MODEL 1
REMARK VINA RESULT:      -7.6      0.000      0.000
REMARK  Name = 
REMARK  8 active torsions:
REMARK  status: ('A' for Active; 'I' for Inactive)
REMARK    1  A    between atoms: C_4  and  N_5
REMARK    2  A    between atoms: N_5  and  C_6
REMARK    3  A    between atoms: C_6  and  C_7
REMARK    4  A    between atoms: C_7  and  N_8
REMARK    5  A    between atoms: C_17  and  N_18
REMARK    6  A    between atoms: N_18  and  C_19
REMARK    7  A    between atoms: C_19  and  C_20
REMARK    8  A    between atoms: C_20  and  N_21
REMARK                            x       y       z     vdW  Elec       q    Type
REMARK                         _______ _______ _______ _____ _____    ______ ____
ROOT
ATOM      1  O   UNL     1       5.551   6.170  15.464  0.00  0.00    +0.000 OA
ATOM      2  C   UNL     1       6.149   5.986  16.520  0.00  0.00    +0.000 C 
ATOM      3  C   UNL     1       6.977   7.055  17.094  0.00  0.00    +0.000 C 
ATOM      4  C   UNL     1       7.723   6.903  18.199  0.00  0.00    +0.000 C 
ATOM      5  C   UNL     1       7.656   5.595  18.934  0.00  0.00    +0.000 C 
ATOM      6  O   UNL     1       8.290   5.411  19.966  0.00  0.00    +0.000 OA
ATOM      7  C   UNL     1       6.769   4.550  18.405  0.00  0.00    +0.000 C 
ATOM      8  C   UNL     1       6.047   4.694  17.279  0.00  0.00    +0.000 C 
ENDROOT
BRANCH   4   9
ATOM      9  N   UNL     1       8.532   7.893  18.730  0.00  0.00    +0.000 N 
ATOM     10  H   UNL     1       8.638   7.782  19.742  0.00  0.00    +0.000 HD
BRANCH   9  11
ATOM     11  C   UNL     1       8.463   9.262  18.238  0.00  0.00    +0.000 C 
BRANCH  11  12
ATOM     12  C   UNL     1       9.223  10.239  19.140  0.00  0.00    +0.000 C 
BRANCH  12  13
ATOM     13  N   UNL     1      10.015  11.219  18.368  0.00  0.00    +0.000 NA
ATOM     14  C   UNL     1      11.303  11.493  19.048  0.00  0.00    +0.000 C 
ATOM     15  C   UNL     1      11.142  12.318  20.337  0.00  0.00    +0.000 C 
ATOM     16  O   UNL     1      10.457  13.552  20.089  0.00  0.00    +0.000 OA
ATOM     17  C   UNL     1       9.185  13.334  19.467  0.00  0.00    +0.000 C 
ATOM     18  C   UNL     1       9.343  12.519  18.174  0.00  0.00    +0.000 C 
ENDBRANCH  12  13
ENDBRANCH  11  12
ENDBRANCH   9  11
ENDBRANCH   4   9
BRANCH   8  19
ATOM     19  N   UNL     1       5.185   3.744  16.773  0.00  0.00    +0.000 N 
ATOM     20  H   UNL     1       5.668   2.941  16.360  0.00  0.00    +0.000 HD
BRANCH  19  21
ATOM     21  C   UNL     1       3.781   3.581  17.105  0.00  0.00    +0.000 C 
BRANCH  21  22
ATOM     22  C   UNL     1       3.612   2.648  18.335  0.00  0.00    +0.000 C 
BRANCH  22  23
ATOM     23  N   UNL     1       3.753   3.329  19.636  0.00  0.00    +0.000 NA
ATOM     24  C   UNL     1       3.153   2.530  20.732  0.00  0.00    +0.000 C 
ATOM     25  C   UNL     1       1.619   2.611  20.808  0.00  0.00    +0.000 C 
ATOM     26  O   UNL     1       1.179   3.968  20.924  0.00  0.00    +0.000 OA
ATOM     27  C   UNL     1       1.651   4.756  19.827  0.00  0.00    +0.000 C 
ATOM     28  C   UNL     1       3.182   4.687  19.688  0.00  0.00    +0.000 C 
ENDBRANCH  22  23
ENDBRANCH  21  22
ENDBRANCH  19  21
ENDBRANCH   8  19
TORSDOF 8
ENDMDL
MODEL 2
REMARK VINA RESULT:      -7.5      0.808      1.117
REMARK  Name = 
REMARK  8 active torsions:
REMARK  status: ('A' for Active; 'I' for Inactive)
REMARK    1  A    between atoms: C_4  and  N_5
REMARK    2  A    between atoms: N_5  and  C_6
REMARK    3  A    between atoms: C_6  and  C_7
REMARK    4  A    between atoms: C_7  and  N_8
REMARK    5  A    between atoms: C_17  and  N_18
REMARK    6  A    between atoms: N_18  and  C_19
REMARK    7  A    between atoms: C_19  and  C_20
REMARK    8  A    between atoms: C_20  and  N_21
REMARK                            x       y       z     vdW  Elec       q    Type
REMARK                         _______ _______ _______ _____ _____    ______ ____
ROOT
ATOM      1  O   UNL     1       5.870   6.215  15.366  0.00  0.00    +0.000 OA
ATOM      2  C   UNL     1       6.409   6.019  16.451  0.00  0.00    +0.000 C 
ATOM      3  C   UNL     1       7.156   7.099  17.109  0.00  0.00    +0.000 C 
ATOM      4  C   UNL     1       7.839   6.939  18.253  0.00  0.00    +0.000 C 
ATOM      5  C   UNL     1       7.780   5.605  18.940  0.00  0.00    +0.000 C 
ATOM      6  O   UNL     1       8.357   5.411  20.004  0.00  0.00    +0.000 OA
ATOM      7  C   UNL     1       6.971   4.545  18.325  0.00  0.00    +0.000 C 
ATOM      8  C   UNL     1       6.314   4.699  17.161  0.00  0.00    +0.000 C 
ENDROOT
BRANCH   4   9
ATOM      9  N   UNL     1       8.572   7.940  18.865  0.00  0.00    +0.000 N 
ATOM     10  H   UNL     1       8.563   7.837  19.883  0.00  0.00    +0.000 HD
BRANCH   9  11
ATOM     11  C   UNL     1       8.546   9.306  18.358  0.00  0.00    +0.000 C 
BRANCH  11  12
ATOM     12  C   UNL     1       9.285  10.279  19.280  0.00  0.00    +0.000 C 
BRANCH  12  13
ATOM     13  N   UNL     1       9.475  11.607  18.661  0.00  0.00    +0.000 NA
ATOM     14  C   UNL     1      10.798  11.684  17.998  0.00  0.00    +0.000 C 
ATOM     15  C   UNL     1      11.970  11.743  18.993  0.00  0.00    +0.000 C 
ATOM     16  O   UNL     1      11.828  12.836  19.908  0.00  0.00    +0.000 OA
ATOM     17  C   UNL     1      10.577  12.782  20.605  0.00  0.00    +0.000 C 
ATOM     18  C   UNL     1       9.404  12.732  19.614  0.00  0.00    +0.000 C 
ENDBRANCH  12  13
ENDBRANCH  11  12
ENDBRANCH   9  11
ENDBRANCH   4   9
BRANCH   8  19
ATOM     19  N   UNL     1       5.524   3.733  16.572  0.00  0.00    +0.000 N 
ATOM     20  H   UNL     1       6.057   2.924  16.240  0.00  0.00    +0.000 HD
BRANCH  19  21
ATOM     21  C   UNL     1       4.090   3.570  16.728  0.00  0.00    +0.000 C 
BRANCH  21  22
ATOM     22  C   UNL     1       3.732   3.254  18.207  0.00  0.00    +0.000 C 
BRANCH  22  23
ATOM     23  N   UNL     1       2.764   4.188  18.810  0.00  0.00    +0.000 NA
ATOM     24  C   UNL     1       2.991   4.336  20.267  0.00  0.00    +0.000 C 
ATOM     25  C   UNL     1       2.455   3.168  21.113  0.00  0.00    +0.000 C 
ATOM     26  O   UNL     1       1.059   2.958  20.877  0.00  0.00    +0.000 OA
ATOM     27  C   UNL     1       0.805   2.708  19.491  0.00  0.00    +0.000 C 
ATOM     28  C   UNL     1       1.349   3.836  18.596  0.00  0.00    +0.000 C 
ENDBRANCH  22  23
ENDBRANCH  21  22
ENDBRANCH  19  21
ENDBRANCH   8  19
TORSDOF 8
ENDMDL
MODEL 3
REMARK VINA RESULT:      -7.5      0.760      9.160
REMARK  Name = 
REMARK  8 active torsions:
REMARK  status: ('A' for Active; 'I' for Inactive)
REMARK    1  A    between atoms: C_4  and  N_5
REMARK    2  A    between atoms: N_5  and  C_6
REMARK    3  A    between atoms: C_6  and  C_7
REMARK    4  A    between atoms: C_7  and  N_8
REMARK    5  A    between atoms: C_17  and  N_18
REMARK    6  A    between atoms: N_18  and  C_19
REMARK    7  A    between atoms: C_19  and  C_20
REMARK    8  A    between atoms: C_20  and  N_21
REMARK                            x       y       z     vdW  Elec       q    Type
REMARK                         _______ _______ _______ _____ _____    ______ ____
ROOT
ATOM      1  O   UNL     1       8.201   5.493  20.083  0.00  0.00    +0.000 OA
ATOM      2  C   UNL     1       7.631   5.678  19.013  0.00  0.00    +0.000 C 
ATOM      3  C   UNL     1       6.747   4.644  18.460  0.00  0.00    +0.000 C 
ATOM      4  C   UNL     1       6.154   4.738  17.259  0.00  0.00    +0.000 C 
ATOM      5  C   UNL     1       6.342   5.999  16.466  0.00  0.00    +0.000 C 
ATOM      6  O   UNL     1       5.798   6.154  15.379  0.00  0.00    +0.000 OA
ATOM      7  C   UNL     1       7.163   7.068  17.050  0.00  0.00    +0.000 C 
ATOM      8  C   UNL     1       7.782   6.957  18.239  0.00  0.00    +0.000 C 
ENDROOT
BRANCH   4   9
ATOM      9  N   UNL     1       5.346   3.755  16.714  0.00  0.00    +0.000 N 
ATOM     10  H   UNL     1       5.613   3.551  15.747  0.00  0.00    +0.000 HD
BRANCH   9  11
ATOM     11  C   UNL     1       3.921   3.704  17.012  0.00  0.00    +0.000 C 
BRANCH  11  12
ATOM     12  C   UNL     1       3.642   3.159  18.415  0.00  0.00    +0.000 C 
BRANCH  12  13
ATOM     13  N   UNL     1       2.215   3.257  18.784  0.00  0.00    +0.000 NA
ATOM     14  C   UNL     1       1.887   4.634  19.220  0.00  0.00    +0.000 C 
ATOM     15  C   UNL     1       2.486   4.993  20.591  0.00  0.00    +0.000 C 
ATOM     16  O   UNL     1       2.082   4.060  21.601  0.00  0.00    +0.000 OA
ATOM     17  C   UNL     1       2.416   2.714  21.241  0.00  0.00    +0.000 C 
ATOM     18  C   UNL     1       1.811   2.350  19.876  0.00  0.00    +0.000 C 
ENDBRANCH  12  13
ENDBRANCH  11  12
ENDBRANCH   9  11
ENDBRANCH   4   9
BRANCH   8  19
ATOM     19  N   UNL     1       8.536   7.952  18.827  0.00  0.00    +0.000 N 
ATOM     20  H   UNL     1       9.299   7.590  19.407  0.00  0.00    +0.000 HD
BRANCH  19  21
ATOM     21  C   UNL     1       8.610   9.343  18.417  0.00  0.00    +0.000 C 
BRANCH  21  22
ATOM     22  C   UNL     1       9.230  10.214  19.544  0.00  0.00    +0.000 C 
BRANCH  22  23
ATOM     23  N   UNL     1      10.441  10.953  19.143  0.00  0.00    +0.000 NA
ATOM     24  C   UNL     1      10.830  11.951  20.168  0.00  0.00    +0.000 C 
ATOM     25  C   UNL     1       9.988  13.238  20.152  0.00  0.00    +0.000 C 
ATOM     26  O   UNL     1      10.019  13.858  18.862  0.00  0.00    +0.000 OA
ATOM     27  C   UNL     1       9.551  12.960  17.850  0.00  0.00    +0.000 C 
ATOM     28  C   UNL     1      10.344  11.641  17.843  0.00  0.00    +0.000 C 
ENDBRANCH  22  23
ENDBRANCH  21  22
ENDBRANCH  19  21
ENDBRANCH   8  19
TORSDOF 8
ENDMDL
MODEL 4
REMARK VINA RESULT:      -7.4      0.827      1.220
REMARK  Name = 
REMARK  8 active torsions:
REMARK  status: ('A' for Active; 'I' for Inactive)
REMARK    1  A    between atoms: C_4  and  N_5
REMARK    2  A    between atoms: N_5  and  C_6
REMARK    3  A    between atoms: C_6  and  C_7
REMARK    4  A    between atoms: C_7  and  N_8
REMARK    5  A    between atoms: C_17  and  N_18
REMARK    6  A    between atoms: N_18  and  C_19
REMARK    7  A    between atoms: C_19  and  C_20
REMARK    8  A    between atoms: C_20  and  N_21
REMARK                            x       y       z     vdW  Elec       q    Type
REMARK                         _______ _______ _______ _____ _____    ______ ____
ROOT
ATOM      1  O   UNL     1       6.094   5.853  15.304  0.00  0.00    +0.000 OA
ATOM      2  C   UNL     1       6.447   5.788  16.478  0.00  0.00    +0.000 C 
ATOM      3  C   UNL     1       7.257   6.863  17.065  0.00  0.00    +0.000 C 
ATOM      4  C   UNL     1       7.748   6.825  18.313  0.00  0.00    +0.000 C 
ATOM      5  C   UNL     1       7.394   5.656  19.186  0.00  0.00    +0.000 C 
ATOM      6  O   UNL     1       7.787   5.584  20.345  0.00  0.00    +0.000 OA
ATOM      7  C   UNL     1       6.521   4.616  18.627  0.00  0.00    +0.000 C 
ATOM      8  C   UNL     1       6.056   4.640  17.365  0.00  0.00    +0.000 C 
ENDROOT
BRANCH   4   9
ATOM      9  N   UNL     1       8.539   7.818  18.865  0.00  0.00    +0.000 N 
ATOM     10  H   UNL     1       8.570   7.742  19.885  0.00  0.00    +0.000 HD
BRANCH   9  11
ATOM     11  C   UNL     1       8.535   9.170  18.322  0.00  0.00    +0.000 C 
BRANCH  11  12
ATOM     12  C   UNL     1       9.311  10.150  19.205  0.00  0.00    +0.000 C 
BRANCH  12  13
ATOM     13  N   UNL     1      10.066  11.144  18.415  0.00  0.00    +0.000 NA
ATOM     14  C   UNL     1      11.254  11.609  19.170  0.00  0.00    +0.000 C 
ATOM     15  C   UNL     1      10.896  12.513  20.363  0.00  0.00    +0.000 C 
ATOM     16  O   UNL     1      10.117  13.642  19.951  0.00  0.00    +0.000 OA
ATOM     17  C   UNL     1       8.934  13.240  19.250  0.00  0.00    +0.000 C 
ATOM     18  C   UNL     1       9.288  12.344  18.053  0.00  0.00    +0.000 C 
ENDBRANCH  12  13
ENDBRANCH  11  12
ENDBRANCH   9  11
ENDBRANCH   4   9
BRANCH   8  19
ATOM     19  N   UNL     1       5.213   3.695  16.820  0.00  0.00    +0.000 N 
ATOM     20  H   UNL     1       5.613   2.752  16.818  0.00  0.00    +0.000 HD
BRANCH  19  21
ATOM     21  C   UNL     1       3.777   3.811  16.642  0.00  0.00    +0.000 C 
BRANCH  21  22
ATOM     22  C   UNL     1       3.102   4.320  17.946  0.00  0.00    +0.000 C 
BRANCH  22  23
ATOM     23  N   UNL     1       2.221   3.334  18.598  0.00  0.00    +0.000 NA
ATOM     24  C   UNL     1       1.444   3.948  19.701  0.00  0.00    +0.000 C 
ATOM     25  C   UNL     1       2.243   4.157  20.999  0.00  0.00    +0.000 C 
ATOM     26  O   UNL     1       2.812   2.927  21.459  0.00  0.00    +0.000 OA
ATOM     27  C   UNL     1       3.656   2.347  20.459  0.00  0.00    +0.000 C 
ATOM     28  C   UNL     1       2.912   2.143  19.128  0.00  0.00    +0.000 C 
ENDBRANCH  22  23
ENDBRANCH  21  22
ENDBRANCH  19  21
ENDBRANCH   8  19
TORSDOF 8
ENDMDL
MODEL 5
REMARK VINA RESULT:      -7.4      1.016      9.274
REMARK  Name = 
REMARK  8 active torsions:
REMARK  status: ('A' for Active; 'I' for Inactive)
REMARK    1  A    between atoms: C_4  and  N_5
REMARK    2  A    between atoms: N_5  and  C_6
REMARK    3  A    between atoms: C_6  and  C_7
REMARK    4  A    between atoms: C_7  and  N_8
REMARK    5  A    between atoms: C_17  and  N_18
REMARK    6  A    between atoms: N_18  and  C_19
REMARK    7  A    between atoms: C_19  and  C_20
REMARK    8  A    between atoms: C_20  and  N_21
REMARK                            x       y       z     vdW  Elec       q    Type
REMARK                         _______ _______ _______ _____ _____    ______ ____
ROOT
ATOM      1  O   UNL     1       7.773   5.555  20.277  0.00  0.00    +0.000 OA
ATOM      2  C   UNL     1       7.238   5.566  19.173  0.00  0.00    +0.000 C 
ATOM      3  C   UNL     1       6.257   4.532  18.818  0.00  0.00    +0.000 C 
ATOM      4  C   UNL     1       5.691   4.431  17.605  0.00  0.00    +0.000 C 
ATOM      5  C   UNL     1       6.021   5.471  16.573  0.00  0.00    +0.000 C 
ATOM      6  O   UNL     1       5.510   5.447  15.459  0.00  0.00    +0.000 OA
ATOM      7  C   UNL     1       6.943   6.551  16.949  0.00  0.00    +0.000 C 
ATOM      8  C   UNL     1       7.533   6.631  18.155  0.00  0.00    +0.000 C 
ENDROOT
BRANCH   4   9
ATOM      9  N   UNL     1       4.791   3.442  17.250  0.00  0.00    +0.000 N 
ATOM     10  H   UNL     1       5.205   2.788  16.580  0.00  0.00    +0.000 HD
BRANCH   9  11
ATOM     11  C   UNL     1       3.379   3.744  17.062  0.00  0.00    +0.000 C 
BRANCH  11  12
ATOM     12  C   UNL     1       2.734   4.309  18.330  0.00  0.00    +0.000 C 
BRANCH  12  13
ATOM     13  N   UNL     1       1.752   3.380  18.925  0.00  0.00    +0.000 NA
ATOM     14  C   UNL     1       0.978   4.059  19.991  0.00  0.00    +0.000 C 
ATOM     15  C   UNL     1       1.806   4.333  21.258  0.00  0.00    +0.000 C 
ATOM     16  O   UNL     1       2.385   3.130  21.778  0.00  0.00    +0.000 OA
ATOM     17  C   UNL     1       3.179   2.457  20.793  0.00  0.00    +0.000 C 
ATOM     18  C   UNL     1       2.352   2.174  19.529  0.00  0.00    +0.000 C 
ENDBRANCH  12  13
ENDBRANCH  11  12
ENDBRANCH   9  11
ENDBRANCH   4   9
BRANCH   8  19
ATOM     19  N   UNL     1       8.380   7.647  18.549  0.00  0.00    +0.000 N 
ATOM     20  H   UNL     1       9.294   7.309  18.865  0.00  0.00    +0.000 HD
BRANCH  19  21
ATOM     21  C   UNL     1       8.270   9.052  18.203  0.00  0.00    +0.000 C 
BRANCH  21  22
ATOM     22  C   UNL     1       9.246   9.905  19.059  0.00  0.00    +0.000 C 
BRANCH  22  23
ATOM     23  N   UNL     1       9.283  11.334  18.695  0.00  0.00    +0.000 NA
ATOM     24  C   UNL     1      10.423  11.634  17.796  0.00  0.00    +0.000 C 
ATOM     25  C   UNL     1      11.782  11.737  18.509  0.00  0.00    +0.000 C 
ATOM     26  O   UNL     1      11.743  12.713  19.555  0.00  0.00    +0.000 OA
ATOM     27  C   UNL     1      10.720  12.406  20.506  0.00  0.00    +0.000 C 
ATOM     28  C   UNL     1       9.341  12.262  19.839  0.00  0.00    +0.000 C 
ENDBRANCH  22  23
ENDBRANCH  21  22
ENDBRANCH  19  21
ENDBRANCH   8  19
TORSDOF 8
ENDMDL
MODEL 6
REMARK VINA RESULT:      -7.3      0.822      9.407
REMARK  Name = 
REMARK  8 active torsions:
REMARK  status: ('A' for Active; 'I' for Inactive)
REMARK    1  A    between atoms: C_4  and  N_5
REMARK    2  A    between atoms: N_5  and  C_6
REMARK    3  A    between atoms: C_6  and  C_7
REMARK    4  A    between atoms: C_7  and  N_8
REMARK    5  A    between atoms: C_17  and  N_18
REMARK    6  A    between atoms: N_18  and  C_19
REMARK    7  A    between atoms: C_19  and  C_20
REMARK    8  A    between atoms: C_20  and  N_21
REMARK                            x       y       z     vdW  Elec       q    Type
REMARK                         _______ _______ _______ _____ _____    ______ ____
ROOT
ATOM      1  O   UNL     1       8.266   5.452  19.852  0.00  0.00    +0.000 OA
ATOM      2  C   UNL     1       7.608   5.636  18.833  0.00  0.00    +0.000 C 
ATOM      3  C   UNL     1       6.737   4.573  18.315  0.00  0.00    +0.000 C 
ATOM      4  C   UNL     1       6.051   4.670  17.165  0.00  0.00    +0.000 C 
ATOM      5  C   UNL     1       6.116   5.960  16.400  0.00  0.00    +0.000 C 
ATOM      6  O   UNL     1       5.484   6.117  15.362  0.00  0.00    +0.000 OA
ATOM      7  C   UNL     1       6.924   7.053  16.956  0.00  0.00    +0.000 C 
ATOM      8  C   UNL     1       7.637   6.942  18.091  0.00  0.00    +0.000 C 
ENDROOT
BRANCH   4   9
ATOM      9  N   UNL     1       5.255   3.662  16.651  0.00  0.00    +0.000 N 
ATOM     10  H   UNL     1       5.423   3.531  15.650  0.00  0.00    +0.000 HD
BRANCH   9  11
ATOM     11  C   UNL     1       3.879   3.490  17.098  0.00  0.00    +0.000 C 
BRANCH  11  12
ATOM     12  C   UNL     1       3.723   3.742  18.600  0.00  0.00    +0.000 C 
BRANCH  12  13
ATOM     13  N   UNL     1       3.358   2.518  19.342  0.00  0.00    +0.000 NA
ATOM     14  C   UNL     1       1.991   2.080  18.976  0.00  0.00    +0.000 C 
ATOM     15  C   UNL     1       0.891   3.001  19.532  0.00  0.00    +0.000 C 
ATOM     16  O   UNL     1       0.988   3.135  20.956  0.00  0.00    +0.000 OA
ATOM     17  C   UNL     1       2.283   3.596  21.356  0.00  0.00    +0.000 C 
ATOM     18  C   UNL     1       3.383   2.673  20.810  0.00  0.00    +0.000 C 
ENDBRANCH  12  13
ENDBRANCH  11  12
ENDBRANCH   9  11
ENDBRANCH   4   9
BRANCH   8  19
ATOM     19  N   UNL     1       8.382   7.958  18.653  0.00  0.00    +0.000 N 
ATOM     20  H   UNL     1       9.133   7.618  19.261  0.00  0.00    +0.000 HD
BRANCH  19  21
ATOM     21  C   UNL     1       8.468   9.331  18.190  0.00  0.00    +0.000 C 
BRANCH  21  22
ATOM     22  C   UNL     1       9.405  10.162  19.108  0.00  0.00    +0.000 C 
BRANCH  22  23
ATOM     23  N   UNL     1       9.632  11.546  18.652  0.00  0.00    +0.000 NA
ATOM     24  C   UNL     1      11.055  11.773  18.301  0.00  0.00    +0.000 C 
ATOM     25  C   UNL     1      11.981  11.976  19.513  0.00  0.00    +0.000 C 
ATOM     26  O   UNL     1      11.525  13.055  20.336  0.00  0.00    +0.000 OA
ATOM     27  C   UNL     1      10.185  12.827  20.784  0.00  0.00    +0.000 C 
ATOM     28  C   UNL     1       9.220  12.589  19.609  0.00  0.00    +0.000 C 
ENDBRANCH  22  23
ENDBRANCH  21  22
ENDBRANCH  19  21
ENDBRANCH   8  19
TORSDOF 8
ENDMDL
MODEL 7
REMARK VINA RESULT:      -7.3      1.435      2.503
REMARK  Name = 
REMARK  8 active torsions:
REMARK  status: ('A' for Active; 'I' for Inactive)
REMARK    1  A    between atoms: C_4  and  N_5
REMARK    2  A    between atoms: N_5  and  C_6
REMARK    3  A    between atoms: C_6  and  C_7
REMARK    4  A    between atoms: C_7  and  N_8
REMARK    5  A    between atoms: C_17  and  N_18
REMARK    6  A    between atoms: N_18  and  C_19
REMARK    7  A    between atoms: C_19  and  C_20
REMARK    8  A    between atoms: C_20  and  N_21
REMARK                            x       y       z     vdW  Elec       q    Type
REMARK                         _______ _______ _______ _____ _____    ______ ____
ROOT
ATOM      1  O   UNL     1       5.875   4.055  19.618  0.00  0.00    +0.000 OA
ATOM      2  C   UNL     1       5.751   4.669  18.563  0.00  0.00    +0.000 C 
ATOM      3  C   UNL     1       6.416   5.966  18.382  0.00  0.00    +0.000 C 
ATOM      4  C   UNL     1       6.263   6.733  17.291  0.00  0.00    +0.000 C 
ATOM      5  C   UNL     1       5.426   6.208  16.160  0.00  0.00    +0.000 C 
ATOM      6  O   UNL     1       5.278   6.850  15.127  0.00  0.00    +0.000 OA
ATOM      7  C   UNL     1       4.823   4.878  16.306  0.00  0.00    +0.000 C 
ATOM      8  C   UNL     1       4.951   4.125  17.413  0.00  0.00    +0.000 C 
ENDROOT
BRANCH   4   9
ATOM      9  N   UNL     1       6.859   7.971  17.125  0.00  0.00    +0.000 N 
ATOM     10  H   UNL     1       6.759   8.303  16.161  0.00  0.00    +0.000 HD
BRANCH   9  11
ATOM     11  C   UNL     1       8.114   8.296  17.789  0.00  0.00    +0.000 C 
BRANCH  11  12
ATOM     12  C   UNL     1       8.197   9.774  18.177  0.00  0.00    +0.000 C 
BRANCH  12  13
ATOM     13  N   UNL     1       9.549  10.163  18.627  0.00  0.00    +0.000 NA
ATOM     14  C   UNL     1       9.518  10.596  20.044  0.00  0.00    +0.000 C 
ATOM     15  C   UNL     1       8.827  11.956  20.246  0.00  0.00    +0.000 C 
ATOM     16  O   UNL     1       9.434  12.978  19.445  0.00  0.00    +0.000 OA
ATOM     17  C   UNL     1       9.451  12.621  18.058  0.00  0.00    +0.000 C 
ATOM     18  C   UNL     1      10.149  11.267  17.852  0.00  0.00    +0.000 C 
ENDBRANCH  12  13
ENDBRANCH  11  12
ENDBRANCH   9  11
ENDBRANCH   4   9
BRANCH   8  19
ATOM     19  N   UNL     1       4.421   2.861  17.570  0.00  0.00    +0.000 N 
ATOM     20  H   UNL     1       5.063   2.210  18.031  0.00  0.00    +0.000 HD
BRANCH  19  21
ATOM     21  C   UNL     1       3.017   2.497  17.527  0.00  0.00    +0.000 C 
BRANCH  21  22
ATOM     22  C   UNL     1       2.547   1.960  18.907  0.00  0.00    +0.000 C 
BRANCH  22  23
ATOM     23  N   UNL     1       1.400   2.687  19.482  0.00  0.00    +0.000 NA
ATOM     24  C   UNL     1       1.384   4.104  19.048  0.00  0.00    +0.000 C 
ATOM     25  C   UNL     1       2.383   5.006  19.793  0.00  0.00    +0.000 C 
ATOM     26  O   UNL     1       2.173   4.949  21.208  0.00  0.00    +0.000 OA
ATOM     27  C   UNL     1       2.282   3.606  21.689  0.00  0.00    +0.000 C 
ATOM     28  C   UNL     1       1.322   2.654  20.954  0.00  0.00    +0.000 C 
ENDBRANCH  22  23
ENDBRANCH  21  22
ENDBRANCH  19  21
ENDBRANCH   8  19
TORSDOF 8
ENDMDL
MODEL 8
REMARK VINA RESULT:      -7.1      0.775      9.173
REMARK  Name = 
REMARK  8 active torsions:
REMARK  status: ('A' for Active; 'I' for Inactive)
REMARK    1  A    between atoms: C_4  and  N_5
REMARK    2  A    between atoms: N_5  and  C_6
REMARK    3  A    between atoms: C_6  and  C_7
REMARK    4  A    between atoms: C_7  and  N_8
REMARK    5  A    between atoms: C_17  and  N_18
REMARK    6  A    between atoms: N_18  and  C_19
REMARK    7  A    between atoms: C_19  and  C_20
REMARK    8  A    between atoms: C_20  and  N_21
REMARK                            x       y       z     vdW  Elec       q    Type
REMARK                         _______ _______ _______ _____ _____    ______ ____
ROOT
ATOM      1  O   UNL     1       8.283   5.402  19.748  0.00  0.00    +0.000 OA
ATOM      2  C   UNL     1       7.577   5.617  18.767  0.00  0.00    +0.000 C 
ATOM      3  C   UNL     1       6.666   4.577  18.273  0.00  0.00    +0.000 C 
ATOM      4  C   UNL     1       5.924   4.708  17.162  0.00  0.00    +0.000 C 
ATOM      5  C   UNL     1       5.969   6.013  16.420  0.00  0.00    +0.000 C 
ATOM      6  O   UNL     1       5.288   6.200  15.419  0.00  0.00    +0.000 OA
ATOM      7  C   UNL     1       6.821   7.083  16.956  0.00  0.00    +0.000 C 
ATOM      8  C   UNL     1       7.588   6.938  18.051  0.00  0.00    +0.000 C 
ENDROOT
BRANCH   4   9
ATOM      9  N   UNL     1       5.087   3.722  16.669  0.00  0.00    +0.000 N 
ATOM     10  H   UNL     1       4.651   4.012  15.789  0.00  0.00    +0.000 HD
BRANCH   9  11
ATOM     11  C   UNL     1       4.259   2.924  17.563  0.00  0.00    +0.000 C 
BRANCH  11  12
ATOM     12  C   UNL     1       2.923   3.604  17.875  0.00  0.00    +0.000 C 
BRANCH  12  13
ATOM     13  N   UNL     1       3.001   4.481  19.061  0.00  0.00    +0.000 NA
ATOM     14  C   UNL     1       3.675   3.780  20.179  0.00  0.00    +0.000 C 
ATOM     15  C   UNL     1       2.817   2.662  20.797  0.00  0.00    +0.000 C 
ATOM     16  O   UNL     1       1.546   3.158  21.238  0.00  0.00    +0.000 OA
ATOM     17  C   UNL     1       0.838   3.810  20.177  0.00  0.00    +0.000 C 
ATOM     18  C   UNL     1       1.689   4.933  19.564  0.00  0.00    +0.000 C 
ENDBRANCH  12  13
ENDBRANCH  11  12
ENDBRANCH   9  11
ENDBRANCH   4   9
BRANCH   8  19
ATOM     19  N   UNL     1       8.376   7.931  18.595  0.00  0.00    +0.000 N 
ATOM     20  H   UNL     1       9.203   7.570  19.078  0.00  0.00    +0.000 HD
BRANCH  19  21
ATOM     21  C   UNL     1       8.377   9.337  18.231  0.00  0.00    +0.000 C 
BRANCH  21  22
ATOM     22  C   UNL     1       9.370  10.133  19.121  0.00  0.00    +0.000 C 
BRANCH  22  23
ATOM     23  N   UNL     1       9.586  11.527  18.691  0.00  0.00    +0.000 NA
ATOM     24  C   UNL     1      10.961  11.726  18.173  0.00  0.00    +0.000 C 
ATOM     25  C   UNL     1      12.037  11.851  19.265  0.00  0.00    +0.000 C 
ATOM     26  O   UNL     1      11.725  12.908  20.178  0.00  0.00    +0.000 OA
ATOM     27  C   UNL     1      10.444  12.702  20.783  0.00  0.00    +0.000 C 
ATOM     28  C   UNL     1       9.333  12.541  19.731  0.00  0.00    +0.000 C 
ENDBRANCH  22  23
ENDBRANCH  21  22
ENDBRANCH  19  21
ENDBRANCH   8  19
TORSDOF 8
ENDMDL
MODEL 9
REMARK VINA RESULT:      -7.1      0.828      1.321
REMARK  Name = 
REMARK  8 active torsions:
REMARK  status: ('A' for Active; 'I' for Inactive)
REMARK    1  A    between atoms: C_4  and  N_5
REMARK    2  A    between atoms: N_5  and  C_6
REMARK    3  A    between atoms: C_6  and  C_7
REMARK    4  A    between atoms: C_7  and  N_8
REMARK    5  A    between atoms: C_17  and  N_18
REMARK    6  A    between atoms: N_18  and  C_19
REMARK    7  A    between atoms: C_19  and  C_20
REMARK    8  A    between atoms: C_20  and  N_21
REMARK                            x       y       z     vdW  Elec       q    Type
REMARK                         _______ _______ _______ _____ _____    ______ ____
ROOT
ATOM      1  O   UNL     1       5.249   6.864  15.628  0.00  0.00    +0.000 OA
ATOM      2  C   UNL     1       5.933   6.500  16.580  0.00  0.00    +0.000 C 
ATOM      3  C   UNL     1       6.864   7.438  17.220  0.00  0.00    +0.000 C 
ATOM      4  C   UNL     1       7.702   7.093  18.211  0.00  0.00    +0.000 C 
ATOM      5  C   UNL     1       7.636   5.691  18.746  0.00  0.00    +0.000 C 
ATOM      6  O   UNL     1       8.354   5.329  19.671  0.00  0.00    +0.000 OA
ATOM      7  C   UNL     1       6.652   4.772  18.160  0.00  0.00    +0.000 C 
ATOM      8  C   UNL     1       5.837   5.112  17.146  0.00  0.00    +0.000 C 
ENDROOT
BRANCH   4   9
ATOM      9  N   UNL     1       8.606   7.960  18.799  0.00  0.00    +0.000 N 
ATOM     10  H   UNL     1       8.705   7.768  19.799  0.00  0.00    +0.000 HD
BRANCH   9  11
ATOM     11  C   UNL     1       8.668   9.361  18.404  0.00  0.00    +0.000 C 
BRANCH  11  12
ATOM     12  C   UNL     1       9.254  10.246  19.506  0.00  0.00    +0.000 C 
BRANCH  12  13
ATOM     13  N   UNL     1      10.448  10.991  19.055  0.00  0.00    +0.000 NA
ATOM     14  C   UNL     1      10.925  11.900  20.124  0.00  0.00    +0.000 C 
ATOM     15  C   UNL     1       9.997  13.105  20.353  0.00  0.00    +0.000 C 
ATOM     16  O   UNL     1       9.795  13.849  19.145  0.00  0.00    +0.000 OA
ATOM     17  C   UNL     1       9.294  13.019  18.091  0.00  0.00    +0.000 C 
ATOM     18  C   UNL     1      10.224  11.819  17.853  0.00  0.00    +0.000 C 
ENDBRANCH  12  13
ENDBRANCH  11  12
ENDBRANCH   9  11
ENDBRANCH   4   9
BRANCH   8  19
ATOM     19  N   UNL     1       4.883   4.282  16.593  0.00  0.00    +0.000 N 
ATOM     20  H   UNL     1       4.734   4.450  15.594  0.00  0.00    +0.000 HD
BRANCH  19  21
ATOM     21  C   UNL     1       4.406   3.024  17.137  0.00  0.00    +0.000 C 
BRANCH  21  22
ATOM     22  C   UNL     1       3.746   3.242  18.526  0.00  0.00    +0.000 C 
BRANCH  22  23
ATOM     23  N   UNL     1       2.275   3.141  18.522  0.00  0.00    +0.000 NA
ATOM     24  C   UNL     1       1.642   4.441  18.848  0.00  0.00    +0.000 C 
ATOM     25  C   UNL     1       1.655   4.794  20.345  0.00  0.00    +0.000 C 
ATOM     26  O   UNL     1       1.035   3.766  21.124  0.00  0.00    +0.000 OA
ATOM     27  C   UNL     1       1.682   2.506  20.918  0.00  0.00    +0.000 C 
ATOM     28  C   UNL     1       1.722   2.118  19.429  0.00  0.00    +0.000 C 
ENDBRANCH  22  23
ENDBRANCH  21  22
ENDBRANCH  19  21
ENDBRANCH   8  19
TORSDOF 8
ENDMDL
