MODEL 1
REMARK VINA RESULT:      -7.4      0.000      0.000
REMARK  Name = 
REMARK  7 active torsions:
REMARK  status: ('A' for Active; 'I' for Inactive)
REMARK    1  A    between atoms: C_1  and  C_2
REMARK    2  A    between atoms: C_2  and  C_3
REMARK    3  A    between atoms: C_7  and  N_8
REMARK    4  A    between atoms: N_8  and  C_9
REMARK    5  A    between atoms: N_12  and  C_13
REMARK    6  A    between atoms: C_17  and  S_18
REMARK    7  A    between atoms: S_18  and  C_19
REMARK                            x       y       z     vdW  Elec       q    Type
REMARK                         _______ _______ _______ _____ _____    ______ ____
ROOT
ATOM      1  N   UNL     1       3.692   4.344  19.483  0.00  0.00    +0.000 N 
ATOM      2  C   UNL     1       3.447   2.937  19.829  0.00  0.00    +0.000 C 
ATOM      3  C   UNL     1       2.670   5.274  19.664  0.00  0.00    +0.000 C 
ATOM      4  N   UNL     1       1.422   4.969  19.849  0.00  0.00    +0.000 NA
ATOM      5  N   UNL     1       3.063   6.591  19.723  0.00  0.00    +0.000 N 
ATOM      6  H   UNL     1       1.265   3.968  19.792  0.00  0.00    +0.000 HD
ATOM      7  H   UNL     1       4.007   6.777  20.026  0.00  0.00    +0.000 HD
ENDROOT
BRANCH   1  12
ATOM      8  C   UNL     1       5.774   4.483  16.338  0.00  0.00    +0.000 A 
ATOM      9  C   UNL     1       7.027   4.808  16.859  0.00  0.00    +0.000 A 
ATOM     10  C   UNL     1       7.174   5.020  18.225  0.00  0.00    +0.000 A 
ATOM     11  C   UNL     1       6.071   4.901  19.078  0.00  0.00    +0.000 A 
ATOM     12  C   UNL     1       4.800   4.535  18.601  0.00  0.00    +0.000 A 
ATOM     13  C   UNL     1       4.678   4.348  17.212  0.00  0.00    +0.000 A 
BRANCH   8  15
ATOM     14  C   UNL     1       6.831   4.647  14.083  0.00  0.00    +0.000 C 
ATOM     15  C   UNL     1       5.604   4.205  14.867  0.00  0.00    +0.000 C 
ENDBRANCH   8  15
ENDBRANCH   1  12
BRANCH   5  16
ATOM     16  C   UNL     1       2.250   7.712  19.454  0.00  0.00    +0.000 A 
ATOM     17  C   UNL     1       2.048   8.167  18.142  0.00  0.00    +0.000 A 
ATOM     18  C   UNL     1       1.209   9.251  17.873  0.00  0.00    +0.000 A 
ATOM     19  C   UNL     1       0.526   9.865  18.918  0.00  0.00    +0.000 A 
ATOM     20  C   UNL     1       0.679   9.409  20.232  0.00  0.00    +0.000 A 
ATOM     21  C   UNL     1       1.555   8.343  20.492  0.00  0.00    +0.000 A 
BRANCH  20  22
ATOM     22  S   UNL     1      -0.242  10.263  21.508  0.00  0.00    +0.000 S 
ATOM     23  C   UNL     1       0.268   9.376  23.005  0.00  0.00    +0.000 C 
ENDBRANCH  20  22
ENDBRANCH   5  16
TORSDOF 4
ENDMDL
MODEL 2
REMARK VINA RESULT:      -7.4      0.959      1.857
REMARK  Name = 
REMARK  7 active torsions:
REMARK  status: ('A' for Active; 'I' for Inactive)
REMARK    1  A    between atoms: C_1  and  C_2
REMARK    2  A    between atoms: C_2  and  C_3
REMARK    3  A    between atoms: C_7  and  N_8
REMARK    4  A    between atoms: N_8  and  C_9
REMARK    5  A    between atoms: N_12  and  C_13
REMARK    6  A    between atoms: C_17  and  S_18
REMARK    7  A    between atoms: S_18  and  C_19
REMARK                            x       y       z     vdW  Elec       q    Type
REMARK                         _______ _______ _______ _____ _____    ______ ____
ROOT
ATOM      1  N   UNL     1       3.165   4.305  19.970  0.00  0.00    +0.000 N 
ATOM      2  C   UNL     1       2.838   2.977  20.509  0.00  0.00    +0.000 C 
ATOM      3  C   UNL     1       2.266   5.354  20.162  0.00  0.00    +0.000 C 
ATOM      4  N   UNL     1       1.031   5.205  20.532  0.00  0.00    +0.000 NA
ATOM      5  N   UNL     1       2.784   6.619  20.015  0.00  0.00    +0.000 N 
ATOM      6  H   UNL     1       0.776   4.227  20.615  0.00  0.00    +0.000 HD
ATOM      7  H   UNL     1       3.773   6.734  20.176  0.00  0.00    +0.000 HD
ENDROOT
BRANCH   1  12
ATOM      8  C   UNL     1       6.428   4.804  18.142  0.00  0.00    +0.000 A 
ATOM      9  C   UNL     1       6.098   4.336  16.869  0.00  0.00    +0.000 A 
ATOM     10  C   UNL     1       4.828   3.824  16.629  0.00  0.00    +0.000 A 
ATOM     11  C   UNL     1       3.881   3.783  17.657  0.00  0.00    +0.000 A 
ATOM     12  C   UNL     1       4.157   4.282  18.943  0.00  0.00    +0.000 A 
ATOM     13  C   UNL     1       5.458   4.774  19.161  0.00  0.00    +0.000 A 
BRANCH   8  15
ATOM     14  C   UNL     1       7.775   6.906  18.163  0.00  0.00    +0.000 C 
ATOM     15  C   UNL     1       7.785   5.404  18.410  0.00  0.00    +0.000 C 
ENDBRANCH   8  15
ENDBRANCH   1  12
BRANCH   5  16
ATOM     16  C   UNL     1       2.050   7.786  19.714  0.00  0.00    +0.000 A 
ATOM     17  C   UNL     1       1.907   8.237  18.394  0.00  0.00    +0.000 A 
ATOM     18  C   UNL     1       1.145   9.369  18.093  0.00  0.00    +0.000 A 
ATOM     19  C   UNL     1       0.478  10.037  19.115  0.00  0.00    +0.000 A 
ATOM     20  C   UNL     1       0.570   9.587  20.437  0.00  0.00    +0.000 A 
ATOM     21  C   UNL     1       1.371   8.472  20.729  0.00  0.00    +0.000 A 
BRANCH  20  22
ATOM     22  S   UNL     1      -0.324  10.513  21.682  0.00  0.00    +0.000 S 
ATOM     23  C   UNL     1      -0.080   9.495  23.162  0.00  0.00    +0.000 C 
ENDBRANCH  20  22
ENDBRANCH   5  16
TORSDOF 4
ENDMDL
MODEL 3
REMARK VINA RESULT:      -7.4      1.139      1.241
REMARK  Name = 
REMARK  7 active torsions:
REMARK  status: ('A' for Active; 'I' for Inactive)
REMARK    1  A    between atoms: C_1  and  C_2
REMARK    2  A    between atoms: C_2  and  C_3
REMARK    3  A    between atoms: C_7  and  N_8
REMARK    4  A    between atoms: N_8  and  C_9
REMARK    5  A    between atoms: N_12  and  C_13
REMARK    6  A    between atoms: C_17  and  S_18
REMARK    7  A    between atoms: S_18  and  C_19
REMARK                            x       y       z     vdW  Elec       q    Type
REMARK                         _______ _______ _______ _____ _____    ______ ____
ROOT
ATOM      1  N   UNL     1       3.673   3.905  18.004  0.00  0.00    +0.000 N 
ATOM      2  C   UNL     1       3.267   2.521  17.722  0.00  0.00    +0.000 C 
ATOM      3  C   UNL     1       2.699   4.842  18.343  0.00  0.00    +0.000 C 
ATOM      4  N   UNL     1       1.424   4.675  18.163  0.00  0.00    +0.000 NA
ATOM      5  N   UNL     1       3.152   5.973  18.981  0.00  0.00    +0.000 N 
ATOM      6  H   UNL     1       1.220   3.800  17.693  0.00  0.00    +0.000 HD
ATOM      7  H   UNL     1       4.014   5.895  19.500  0.00  0.00    +0.000 HD
ENDROOT
BRANCH   1  12
ATOM      8  C   UNL     1       6.457   4.678  15.576  0.00  0.00    +0.000 A 
ATOM      9  C   UNL     1       7.543   4.808  16.444  0.00  0.00    +0.000 A 
ATOM     10  C   UNL     1       7.351   4.684  17.815  0.00  0.00    +0.000 A 
ATOM     11  C   UNL     1       6.074   4.422  18.325  0.00  0.00    +0.000 A 
ATOM     12  C   UNL     1       4.961   4.244  17.485  0.00  0.00    +0.000 A 
ATOM     13  C   UNL     1       5.183   4.396  16.104  0.00  0.00    +0.000 A 
BRANCH   8  15
ATOM     14  C   UNL     1       5.879   3.669  13.367  0.00  0.00    +0.000 C 
ATOM     15  C   UNL     1       6.654   4.765  14.084  0.00  0.00    +0.000 C 
ENDBRANCH   8  15
ENDBRANCH   1  12
BRANCH   5  16
ATOM     16  C   UNL     1       2.495   7.220  19.026  0.00  0.00    +0.000 A 
ATOM     17  C   UNL     1       2.378   8.024  17.883  0.00  0.00    +0.000 A 
ATOM     18  C   UNL     1       1.690   9.240  17.919  0.00  0.00    +0.000 A 
ATOM     19  C   UNL     1       1.070   9.641  19.098  0.00  0.00    +0.000 A 
ATOM     20  C   UNL     1       1.137   8.841  20.244  0.00  0.00    +0.000 A 
ATOM     21  C   UNL     1       1.865   7.642  20.203  0.00  0.00    +0.000 A 
BRANCH  20  22
ATOM     22  S   UNL     1       0.307   9.443  21.712  0.00  0.00    +0.000 S 
ATOM     23  C   UNL     1       0.137  11.212  21.355  0.00  0.00    +0.000 C 
ENDBRANCH  20  22
ENDBRANCH   5  16
TORSDOF 4
ENDMDL
MODEL 4
REMARK VINA RESULT:      -7.2      1.321      2.110
REMARK  Name = 
REMARK  7 active torsions:
REMARK  status: ('A' for Active; 'I' for Inactive)
REMARK    1  A    between atoms: C_1  and  C_2
REMARK    2  A    between atoms: C_2  and  C_3
REMARK    3  A    between atoms: C_7  and  N_8
REMARK    4  A    between atoms: N_8  and  C_9
REMARK    5  A    between atoms: N_12  and  C_13
REMARK    6  A    between atoms: C_17  and  S_18
REMARK    7  A    between atoms: S_18  and  C_19
REMARK                            x       y       z     vdW  Elec       q    Type
REMARK                         _______ _______ _______ _____ _____    ______ ____
ROOT
ATOM      1  N   UNL     1       3.688   4.001  18.108  0.00  0.00    +0.000 N 
ATOM      2  C   UNL     1       3.334   2.597  17.857  0.00  0.00    +0.000 C 
ATOM      3  C   UNL     1       2.690   4.892  18.502  0.00  0.00    +0.000 C 
ATOM      4  N   UNL     1       1.417   4.661  18.399  0.00  0.00    +0.000 NA
ATOM      5  N   UNL     1       3.125   6.047  19.107  0.00  0.00    +0.000 N 
ATOM      6  H   UNL     1       1.229   3.773  17.945  0.00  0.00    +0.000 HD
ATOM      7  H   UNL     1       4.019   6.015  19.573  0.00  0.00    +0.000 HD
ENDROOT
BRANCH   1  12
ATOM      8  C   UNL     1       6.999   5.726  17.558  0.00  0.00    +0.000 A 
ATOM      9  C   UNL     1       7.328   5.277  16.278  0.00  0.00    +0.000 A 
ATOM     10  C   UNL     1       6.489   4.382  15.623  0.00  0.00    +0.000 A 
ATOM     11  C   UNL     1       5.314   3.940  16.241  0.00  0.00    +0.000 A 
ATOM     12  C   UNL     1       4.924   4.399  17.512  0.00  0.00    +0.000 A 
ATOM     13  C   UNL     1       5.805   5.286  18.157  0.00  0.00    +0.000 A 
BRANCH   8  15
ATOM     14  C   UNL     1       7.794   8.093  17.591  0.00  0.00    +0.000 C 
ATOM     15  C   UNL     1       7.874   6.730  18.265  0.00  0.00    +0.000 C 
ENDBRANCH   8  15
ENDBRANCH   1  12
BRANCH   5  16
ATOM     16  C   UNL     1       2.410   7.261  19.187  0.00  0.00    +0.000 A 
ATOM     17  C   UNL     1       2.221   8.071  18.058  0.00  0.00    +0.000 A 
ATOM     18  C   UNL     1       1.477   9.252  18.129  0.00  0.00    +0.000 A 
ATOM     19  C   UNL     1       0.875   9.610  19.330  0.00  0.00    +0.000 A 
ATOM     20  C   UNL     1       1.014   8.802  20.464  0.00  0.00    +0.000 A 
ATOM     21  C   UNL     1       1.796   7.639  20.387  0.00  0.00    +0.000 A 
BRANCH  20  22
ATOM     22  S   UNL     1       0.201   9.347  21.964  0.00  0.00    +0.000 S 
ATOM     23  C   UNL     1      -0.112  11.098  21.612  0.00  0.00    +0.000 C 
ENDBRANCH  20  22
ENDBRANCH   5  16
TORSDOF 4
ENDMDL
MODEL 5
REMARK VINA RESULT:      -6.9      1.078      2.018
REMARK  Name = 
REMARK  7 active torsions:
REMARK  status: ('A' for Active; 'I' for Inactive)
REMARK    1  A    between atoms: C_1  and  C_2
REMARK    2  A    between atoms: C_2  and  C_3
REMARK    3  A    between atoms: C_7  and  N_8
REMARK    4  A    between atoms: N_8  and  C_9
REMARK    5  A    between atoms: N_12  and  C_13
REMARK    6  A    between atoms: C_17  and  S_18
REMARK    7  A    between atoms: S_18  and  C_19
REMARK                            x       y       z     vdW  Elec       q    Type
REMARK                         _______ _______ _______ _____ _____    ______ ____
ROOT
ATOM      1  N   UNL     1       3.517   4.364  19.379  0.00  0.00    +0.000 N 
ATOM      2  C   UNL     1       3.384   2.928  19.660  0.00  0.00    +0.000 C 
ATOM      3  C   UNL     1       2.554   5.243  19.874  0.00  0.00    +0.000 C 
ATOM      4  N   UNL     1       1.394   4.881  20.328  0.00  0.00    +0.000 NA
ATOM      5  N   UNL     1       2.929   6.564  19.942  0.00  0.00    +0.000 N 
ATOM      6  H   UNL     1       1.243   3.883  20.231  0.00  0.00    +0.000 HD
ATOM      7  H   UNL     1       3.916   6.760  20.023  0.00  0.00    +0.000 HD
ENDROOT
BRANCH   1  12
ATOM      8  C   UNL     1       6.283   5.879  17.306  0.00  0.00    +0.000 A 
ATOM      9  C   UNL     1       6.012   5.329  16.053  0.00  0.00    +0.000 A 
ATOM     10  C   UNL     1       4.957   4.436  15.903  0.00  0.00    +0.000 A 
ATOM     11  C   UNL     1       4.163   4.096  17.003  0.00  0.00    +0.000 A 
ATOM     12  C   UNL     1       4.374   4.658  18.275  0.00  0.00    +0.000 A 
ATOM     13  C   UNL     1       5.463   5.541  18.399  0.00  0.00    +0.000 A 
BRANCH   8  15
ATOM     14  C   UNL     1       8.160   6.632  18.770  0.00  0.00    +0.000 C 
ATOM     15  C   UNL     1       7.395   6.882  17.479  0.00  0.00    +0.000 C 
ENDBRANCH   8  15
ENDBRANCH   1  12
BRANCH   5  16
ATOM     16  C   UNL     1       2.058   7.674  19.966  0.00  0.00    +0.000 A 
ATOM     17  C   UNL     1       1.761   8.392  18.799  0.00  0.00    +0.000 A 
ATOM     18  C   UNL     1       0.865   9.465  18.817  0.00  0.00    +0.000 A 
ATOM     19  C   UNL     1       0.221   9.800  20.003  0.00  0.00    +0.000 A 
ATOM     20  C   UNL     1       0.468   9.075  21.175  0.00  0.00    +0.000 A 
ATOM     21  C   UNL     1       1.399   8.026  21.151  0.00  0.00    +0.000 A 
BRANCH  20  22
ATOM     22  S   UNL     1      -0.410   9.582  22.651  0.00  0.00    +0.000 S 
ATOM     23  C   UNL     1      -0.870  11.290  22.253  0.00  0.00    +0.000 C 
ENDBRANCH  20  22
ENDBRANCH   5  16
TORSDOF 4
ENDMDL
MODEL 6
REMARK VINA RESULT:      -6.9      4.187      7.738
REMARK  Name = 
REMARK  7 active torsions:
REMARK  status: ('A' for Active; 'I' for Inactive)
REMARK    1  A    between atoms: C_1  and  C_2
REMARK    2  A    between atoms: C_2  and  C_3
REMARK    3  A    between atoms: C_7  and  N_8
REMARK    4  A    between atoms: N_8  and  C_9
REMARK    5  A    between atoms: N_12  and  C_13
REMARK    6  A    between atoms: C_17  and  S_18
REMARK    7  A    between atoms: S_18  and  C_19
REMARK                            x       y       z     vdW  Elec       q    Type
REMARK                         _______ _______ _______ _____ _____    ______ ____
ROOT
ATOM      1  N   UNL     1       4.093   5.851  17.436  0.00  0.00    +0.000 N 
ATOM      2  C   UNL     1       3.584   7.035  18.143  0.00  0.00    +0.000 C 
ATOM      3  C   UNL     1       4.878   6.028  16.298  0.00  0.00    +0.000 C 
ATOM      4  N   UNL     1       4.976   7.141  15.637  0.00  0.00    +0.000 NA
ATOM      5  N   UNL     1       5.647   4.950  15.929  0.00  0.00    +0.000 N 
ATOM      6  H   UNL     1       4.367   7.860  16.015  0.00  0.00    +0.000 HD
ATOM      7  H   UNL     1       5.906   4.298  16.654  0.00  0.00    +0.000 HD
ENDROOT
BRANCH   1  12
ATOM      8  C   UNL     1       1.827   3.376  19.163  0.00  0.00    +0.000 A 
ATOM      9  C   UNL     1       2.042   2.232  18.394  0.00  0.00    +0.000 A 
ATOM     10  C   UNL     1       2.891   2.287  17.294  0.00  0.00    +0.000 A 
ATOM     11  C   UNL     1       3.534   3.485  16.963  0.00  0.00    +0.000 A 
ATOM     12  C   UNL     1       3.378   4.651  17.734  0.00  0.00    +0.000 A 
ATOM     13  C   UNL     1       2.497   4.568  18.828  0.00  0.00    +0.000 A 
BRANCH   8  15
ATOM     14  C   UNL     1       1.759   2.996  21.630  0.00  0.00    +0.000 C 
ATOM     15  C   UNL     1       0.946   3.324  20.385  0.00  0.00    +0.000 C 
ENDBRANCH   8  15
ENDBRANCH   1  12
BRANCH   5  16
ATOM     16  C   UNL     1       6.158   4.698  14.638  0.00  0.00    +0.000 A 
ATOM     17  C   UNL     1       7.352   5.289  14.199  0.00  0.00    +0.000 A 
ATOM     18  C   UNL     1       7.878   5.006  12.936  0.00  0.00    +0.000 A 
ATOM     19  C   UNL     1       7.233   4.087  12.114  0.00  0.00    +0.000 A 
ATOM     20  C   UNL     1       6.061   3.453  12.541  0.00  0.00    +0.000 A 
ATOM     21  C   UNL     1       5.523   3.776  13.796  0.00  0.00    +0.000 A 
BRANCH  20  22
ATOM     22  S   UNL     1       5.304   2.286  11.414  0.00  0.00    +0.000 S 
ATOM     23  C   UNL     1       3.771   3.139  10.956  0.00  0.00    +0.000 C 
ENDBRANCH  20  22
ENDBRANCH   5  16
TORSDOF 4
ENDMDL
MODEL 7
REMARK VINA RESULT:      -6.8      1.594      2.707
REMARK  Name = 
REMARK  7 active torsions:
REMARK  status: ('A' for Active; 'I' for Inactive)
REMARK    1  A    between atoms: C_1  and  C_2
REMARK    2  A    between atoms: C_2  and  C_3
REMARK    3  A    between atoms: C_7  and  N_8
REMARK    4  A    between atoms: N_8  and  C_9
REMARK    5  A    between atoms: N_12  and  C_13
REMARK    6  A    between atoms: C_17  and  S_18
REMARK    7  A    between atoms: S_18  and  C_19
REMARK                            x       y       z     vdW  Elec       q    Type
REMARK                         _______ _______ _______ _____ _____    ______ ____
ROOT
ATOM      1  N   UNL     1       3.713   3.683  18.239  0.00  0.00    +0.000 N 
ATOM      2  C   UNL     1       3.422   2.286  17.887  0.00  0.00    +0.000 C 
ATOM      3  C   UNL     1       2.705   4.465  18.802  0.00  0.00    +0.000 C 
ATOM      4  N   UNL     1       1.444   4.158  18.790  0.00  0.00    +0.000 NA
ATOM      5  N   UNL     1       3.125   5.589  19.473  0.00  0.00    +0.000 N 
ATOM      6  H   UNL     1       1.267   3.303  18.273  0.00  0.00    +0.000 HD
ATOM      7  H   UNL     1       4.059   5.577  19.853  0.00  0.00    +0.000 HD
ENDROOT
BRANCH   1  12
ATOM      8  C   UNL     1       6.875   5.635  17.579  0.00  0.00    +0.000 A 
ATOM      9  C   UNL     1       7.081   5.365  16.226  0.00  0.00    +0.000 A 
ATOM     10  C   UNL     1       6.212   4.515  15.550  0.00  0.00    +0.000 A 
ATOM     11  C   UNL     1       5.129   3.938  16.223  0.00  0.00    +0.000 A 
ATOM     12  C   UNL     1       4.861   4.216  17.575  0.00  0.00    +0.000 A 
ATOM     13  C   UNL     1       5.770   5.062  18.236  0.00  0.00    +0.000 A 
BRANCH   8  15
ATOM     14  C   UNL     1       7.804   7.952  17.639  0.00  0.00    +0.000 C 
ATOM     15  C   UNL     1       7.780   6.589  18.316  0.00  0.00    +0.000 C 
ENDBRANCH   8  15
ENDBRANCH   1  12
BRANCH   5  16
ATOM     16  C   UNL     1       2.350   6.739  19.731  0.00  0.00    +0.000 A 
ATOM     17  C   UNL     1       1.645   6.887  20.935  0.00  0.00    +0.000 A 
ATOM     18  C   UNL     1       0.911   8.045  21.207  0.00  0.00    +0.000 A 
ATOM     19  C   UNL     1       0.914   9.090  20.289  0.00  0.00    +0.000 A 
ATOM     20  C   UNL     1       1.640   8.986  19.097  0.00  0.00    +0.000 A 
ATOM     21  C   UNL     1       2.340   7.801  18.820  0.00  0.00    +0.000 A 
BRANCH  20  22
ATOM     22  S   UNL     1       1.583  10.383  17.979  0.00  0.00    +0.000 S 
ATOM     23  C   UNL     1       1.216  11.757  19.105  0.00  0.00    +0.000 C 
ENDBRANCH  20  22
ENDBRANCH   5  16
TORSDOF 4
ENDMDL
MODEL 8
REMARK VINA RESULT:      -6.8      1.457      2.131
REMARK  Name = 
REMARK  7 active torsions:
REMARK  status: ('A' for Active; 'I' for Inactive)
REMARK    1  A    between atoms: C_1  and  C_2
REMARK    2  A    between atoms: C_2  and  C_3
REMARK    3  A    between atoms: C_7  and  N_8
REMARK    4  A    between atoms: N_8  and  C_9
REMARK    5  A    between atoms: N_12  and  C_13
REMARK    6  A    between atoms: C_17  and  S_18
REMARK    7  A    between atoms: S_18  and  C_19
REMARK                            x       y       z     vdW  Elec       q    Type
REMARK                         _______ _______ _______ _____ _____    ______ ____
ROOT
ATOM      1  N   UNL     1       3.680   3.544  18.101  0.00  0.00    +0.000 N 
ATOM      2  C   UNL     1       3.341   2.199  17.615  0.00  0.00    +0.000 C 
ATOM      3  C   UNL     1       2.671   4.349  18.626  0.00  0.00    +0.000 C 
ATOM      4  N   UNL     1       1.401   4.131  18.471  0.00  0.00    +0.000 NA
ATOM      5  N   UNL     1       3.089   5.391  19.421  0.00  0.00    +0.000 N 
ATOM      6  H   UNL     1       1.224   3.330  17.874  0.00  0.00    +0.000 HD
ATOM      7  H   UNL     1       3.979   5.287  19.885  0.00  0.00    +0.000 HD
ENDROOT
BRANCH   1  12
ATOM      8  C   UNL     1       6.382   4.625  15.698  0.00  0.00    +0.000 A 
ATOM      9  C   UNL     1       7.419   4.933  16.579  0.00  0.00    +0.000 A 
ATOM     10  C   UNL     1       7.216   4.826  17.951  0.00  0.00    +0.000 A 
ATOM     11  C   UNL     1       5.977   4.403  18.447  0.00  0.00    +0.000 A 
ATOM     12  C   UNL     1       4.919   4.044  17.593  0.00  0.00    +0.000 A 
ATOM     13  C   UNL     1       5.148   4.183  16.212  0.00  0.00    +0.000 A 
BRANCH   8  15
ATOM     14  C   UNL     1       5.654   3.747  13.477  0.00  0.00    +0.000 C 
ATOM     15  C   UNL     1       6.598   4.692  14.208  0.00  0.00    +0.000 C 
ENDBRANCH   8  15
ENDBRANCH   1  12
BRANCH   5  16
ATOM     16  C   UNL     1       2.364   6.569  19.694  0.00  0.00    +0.000 A 
ATOM     17  C   UNL     1       1.671   6.734  20.902  0.00  0.00    +0.000 A 
ATOM     18  C   UNL     1       0.988   7.919  21.189  0.00  0.00    +0.000 A 
ATOM     19  C   UNL     1       1.030   8.972  20.282  0.00  0.00    +0.000 A 
ATOM     20  C   UNL     1       1.746   8.850  19.085  0.00  0.00    +0.000 A 
ATOM     21  C   UNL     1       2.395   7.640  18.793  0.00  0.00    +0.000 A 
BRANCH  20  22
ATOM     22  S   UNL     1       1.743  10.260  17.982  0.00  0.00    +0.000 S 
ATOM     23  C   UNL     1       0.375  11.254  18.638  0.00  0.00    +0.000 C 
ENDBRANCH  20  22
ENDBRANCH   5  16
TORSDOF 4
ENDMDL
MODEL 9
REMARK VINA RESULT:      -6.8      1.483      2.657
REMARK  Name = 
REMARK  7 active torsions:
REMARK  status: ('A' for Active; 'I' for Inactive)
REMARK    1  A    between atoms: C_1  and  C_2
REMARK    2  A    between atoms: C_2  and  C_3
REMARK    3  A    between atoms: C_7  and  N_8
REMARK    4  A    between atoms: N_8  and  C_9
REMARK    5  A    between atoms: N_12  and  C_13
REMARK    6  A    between atoms: C_17  and  S_18
REMARK    7  A    between atoms: S_18  and  C_19
REMARK                            x       y       z     vdW  Elec       q    Type
REMARK                         _______ _______ _______ _____ _____    ______ ____
ROOT
ATOM      1  N   UNL     1       3.445   4.412  19.646  0.00  0.00    +0.000 N 
ATOM      2  C   UNL     1       3.400   2.949  19.776  0.00  0.00    +0.000 C 
ATOM      3  C   UNL     1       2.392   5.170  20.158  0.00  0.00    +0.000 C 
ATOM      4  N   UNL     1       1.236   4.687  20.495  0.00  0.00    +0.000 NA
ATOM      5  N   UNL     1       2.665   6.499  20.379  0.00  0.00    +0.000 N 
ATOM      6  H   UNL     1       1.164   3.696  20.291  0.00  0.00    +0.000 HD
ATOM      7  H   UNL     1       3.628   6.751  20.546  0.00  0.00    +0.000 HD
ENDROOT
BRANCH   1  12
ATOM      8  C   UNL     1       6.461   5.948  17.977  0.00  0.00    +0.000 A 
ATOM      9  C   UNL     1       6.084   5.891  16.634  0.00  0.00    +0.000 A 
ATOM     10  C   UNL     1       4.868   5.316  16.281  0.00  0.00    +0.000 A 
ATOM     11  C   UNL     1       4.022   4.800  17.269  0.00  0.00    +0.000 A 
ATOM     12  C   UNL     1       4.344   4.874  18.636  0.00  0.00    +0.000 A 
ATOM     13  C   UNL     1       5.589   5.442  18.960  0.00  0.00    +0.000 A 
BRANCH   8  15
ATOM     14  C   UNL     1       7.891   7.980  17.737  0.00  0.00    +0.000 C 
ATOM     15  C   UNL     1       7.753   6.608  18.382  0.00  0.00    +0.000 C 
ENDBRANCH   8  15
ENDBRANCH   1  12
BRANCH   5  16
ATOM     16  C   UNL     1       1.715   7.540  20.453  0.00  0.00    +0.000 A 
ATOM     17  C   UNL     1       0.825   7.638  21.532  0.00  0.00    +0.000 A 
ATOM     18  C   UNL     1      -0.086   8.693  21.625  0.00  0.00    +0.000 A 
ATOM     19  C   UNL     1      -0.084   9.689  20.654  0.00  0.00    +0.000 A 
ATOM     20  C   UNL     1       0.819   9.637  19.586  0.00  0.00    +0.000 A 
ATOM     21  C   UNL     1       1.702   8.551  19.485  0.00  0.00    +0.000 A 
BRANCH  20  22
ATOM     22  S   UNL     1       0.745  10.965  18.386  0.00  0.00    +0.000 S 
ATOM     23  C   UNL     1       0.570  12.426  19.446  0.00  0.00    +0.000 C 
ENDBRANCH  20  22
ENDBRANCH   5  16
TORSDOF 4
ENDMDL
