MODEL 1
REMARK VINA RESULT:      -8.6      0.000      0.000
REMARK  Name = 
REMARK  9 active torsions:
REMARK  status: ('A' for Active; 'I' for Inactive)
REMARK    1  A    between atoms: C_1  and  S_2
REMARK    2  A    between atoms: S_2  and  N_5
REMARK    3  A    between atoms: N_5  and  C_6
REMARK    4  A    between atoms: C_9  and  C_10
REMARK    5  A    between atoms: C_10  and  N_11
REMARK    6  A    between atoms: C_12  and  C_14
REMARK    7  A    between atoms: C_15  and  C_16
REMARK    8  A    between atoms: C_19  and  C_20
REMARK    9  A    between atoms: C_20  and  C_21
REMARK                            x       y       z     vdW  Elec       q    Type
REMARK                         _______ _______ _______ _____ _____    ______ ____
ROOT
ATOM      1  N   UNL     1       7.921   6.075  18.379  0.00  0.00    +0.000 N 
ATOM      2  C   UNL     1       7.761   7.283  17.745  0.00  0.00    +0.000 C 
ATOM      3  O   UNL     1       7.143   7.442  16.701  0.00  0.00    +0.000 OA
ATOM      4  H   UNL     1       8.409   6.027  19.261  0.00  0.00    +0.000 HD
ENDROOT
BRANCH   2   5
ATOM      5  C   UNL     1       8.472   8.388  18.443  0.00  0.00    +0.000 C 
ATOM      6  C   UNL     1       8.421   9.647  17.979  0.00  0.00    +0.000 C 
BRANCH   6   7
ATOM      7  C   UNL     1       9.183  10.764  18.561  0.00  0.00    +0.000 A 
ATOM      8  C   UNL     1       9.481  11.922  17.829  0.00  0.00    +0.000 A 
ATOM      9  C   UNL     1      10.131  13.010  18.427  0.00  0.00    +0.000 A 
ATOM     10  C   UNL     1      10.484  12.976  19.780  0.00  0.00    +0.000 A 
ATOM     11  C   UNL     1      10.207  11.808  20.508  0.00  0.00    +0.000 A 
ATOM     12  C   UNL     1       9.555  10.721  19.910  0.00  0.00    +0.000 A 
BRANCH  10  13
ATOM     13  C   UNL     1      11.209  14.129  20.437  0.00  0.00    +0.000 C 
BRANCH  13  14
ATOM     14  C   UNL     1      11.767  15.132  19.463  0.00  0.00    +0.000 C 
ATOM     15  C   UNL     1      11.107  16.452  19.137  0.00  0.00    +0.000 C 
ATOM     16  C   UNL     1      12.329  16.426  20.008  0.00  0.00    +0.000 C 
ENDBRANCH  13  14
ENDBRANCH  10  13
ENDBRANCH   6   7
ENDBRANCH   2   5
BRANCH   1  17
ATOM     17  C   UNL     1       7.405   4.845  17.828  0.00  0.00    +0.000 C 
BRANCH  17  21
ATOM     18  C   UNL     1       3.190   4.300  18.592  0.00  0.00    +0.000 A 
ATOM     19  C   UNL     1       3.998   4.882  19.567  0.00  0.00    +0.000 A 
ATOM     20  C   UNL     1       5.365   5.065  19.318  0.00  0.00    +0.000 A 
ATOM     21  C   UNL     1       5.930   4.677  18.091  0.00  0.00    +0.000 A 
ATOM     22  C   UNL     1       5.097   4.136  17.101  0.00  0.00    +0.000 A 
ATOM     23  C   UNL     1       3.741   3.953  17.357  0.00  0.00    +0.000 A 
ATOM     24  F   UNL     1       2.961   3.411  16.409  0.00  0.00    +0.000 F 
BRANCH  18  25
ATOM     25  N   UNL     1       1.784   4.134  18.836  0.00  0.00    +0.000 N 
ATOM     26  H   UNL     1       1.443   4.796  19.542  0.00  0.00    +0.000 HD
BRANCH  25  28
ATOM     27  C   UNL     1       1.210   2.881  21.129  0.00  0.00    +0.000 C 
ATOM     28  S   UNL     1       1.326   2.586  19.380  0.00  0.00    +0.000 S 
ATOM     29  O   UNL     1       2.468   1.734  19.155  0.00  0.00    +0.000 OA
ATOM     30  O   UNL     1       0.005   2.248  18.896  0.00  0.00    +0.000 OA
ENDBRANCH  25  28
ENDBRANCH  18  25
ENDBRANCH  17  21
ENDBRANCH   1  17
TORSDOF 8
ENDMDL
MODEL 2
REMARK VINA RESULT:      -8.4      1.339      1.800
REMARK  Name = 
REMARK  9 active torsions:
REMARK  status: ('A' for Active; 'I' for Inactive)
REMARK    1  A    between atoms: C_1  and  S_2
REMARK    2  A    between atoms: S_2  and  N_5
REMARK    3  A    between atoms: N_5  and  C_6
REMARK    4  A    between atoms: C_9  and  C_10
REMARK    5  A    between atoms: C_10  and  N_11
REMARK    6  A    between atoms: C_12  and  C_14
REMARK    7  A    between atoms: C_15  and  C_16
REMARK    8  A    between atoms: C_19  and  C_20
REMARK    9  A    between atoms: C_20  and  C_21
REMARK                            x       y       z     vdW  Elec       q    Type
REMARK                         _______ _______ _______ _____ _____    ______ ____
ROOT
ATOM      1  N   UNL     1       7.905   6.410  18.691  0.00  0.00    +0.000 N 
ATOM      2  C   UNL     1       7.882   7.544  17.915  0.00  0.00    +0.000 C 
ATOM      3  O   UNL     1       7.535   7.575  16.743  0.00  0.00    +0.000 OA
ATOM      4  H   UNL     1       8.164   6.468  19.664  0.00  0.00    +0.000 HD
ENDROOT
BRANCH   2   5
ATOM      5  C   UNL     1       8.379   8.740  18.646  0.00  0.00    +0.000 C 
ATOM      6  C   UNL     1       8.681   9.874  17.994  0.00  0.00    +0.000 C 
BRANCH   6   7
ATOM      7  C   UNL     1       9.274  11.056  18.642  0.00  0.00    +0.000 A 
ATOM      8  C   UNL     1       8.990  12.360  18.212  0.00  0.00    +0.000 A 
ATOM      9  C   UNL     1       9.494  13.474  18.896  0.00  0.00    +0.000 A 
ATOM     10  C   UNL     1      10.281  13.314  20.042  0.00  0.00    +0.000 A 
ATOM     11  C   UNL     1      10.586  12.009  20.459  0.00  0.00    +0.000 A 
ATOM     12  C   UNL     1      10.079  10.894  19.776  0.00  0.00    +0.000 A 
BRANCH  10  13
ATOM     13  C   UNL     1      10.855  14.503  20.778  0.00  0.00    +0.000 C 
BRANCH  13  14
ATOM     14  C   UNL     1       9.839  15.272  21.579  0.00  0.00    +0.000 C 
ATOM     15  C   UNL     1       9.134  14.724  22.799  0.00  0.00    +0.000 C 
ATOM     16  C   UNL     1      10.224  15.742  22.965  0.00  0.00    +0.000 C 
ENDBRANCH  13  14
ENDBRANCH  10  13
ENDBRANCH   6   7
ENDBRANCH   2   5
BRANCH   1  17
ATOM     17  C   UNL     1       7.563   5.112  18.161  0.00  0.00    +0.000 C 
BRANCH  17  21
ATOM     18  C   UNL     1       3.304   4.416  18.298  0.00  0.00    +0.000 A 
ATOM     19  C   UNL     1       4.036   3.997  17.189  0.00  0.00    +0.000 A 
ATOM     20  C   UNL     1       5.419   4.217  17.146  0.00  0.00    +0.000 A 
ATOM     21  C   UNL     1       6.080   4.847  18.214  0.00  0.00    +0.000 A 
ATOM     22  C   UNL     1       5.339   5.221  19.344  0.00  0.00    +0.000 A 
ATOM     23  C   UNL     1       3.965   5.004  19.379  0.00  0.00    +0.000 A 
ATOM     24  F   UNL     1       3.265   5.390  20.456  0.00  0.00    +0.000 F 
BRANCH  18  25
ATOM     25  N   UNL     1       1.889   4.170  18.355  0.00  0.00    +0.000 N 
ATOM     26  H   UNL     1       1.405   4.881  18.912  0.00  0.00    +0.000 HD
BRANCH  25  28
ATOM     27  C   UNL     1       1.061   3.153  20.686  0.00  0.00    +0.000 C 
ATOM     28  S   UNL     1       1.447   2.666  19.021  0.00  0.00    +0.000 S 
ATOM     29  O   UNL     1       2.657   1.881  19.064  0.00  0.00    +0.000 OA
ATOM     30  O   UNL     1       0.232   2.176  18.405  0.00  0.00    +0.000 OA
ENDBRANCH  25  28
ENDBRANCH  18  25
ENDBRANCH  17  21
ENDBRANCH   1  17
TORSDOF 8
ENDMDL
MODEL 3
REMARK VINA RESULT:      -8.4      1.378      2.018
REMARK  Name = 
REMARK  9 active torsions:
REMARK  status: ('A' for Active; 'I' for Inactive)
REMARK    1  A    between atoms: C_1  and  S_2
REMARK    2  A    between atoms: S_2  and  N_5
REMARK    3  A    between atoms: N_5  and  C_6
REMARK    4  A    between atoms: C_9  and  C_10
REMARK    5  A    between atoms: C_10  and  N_11
REMARK    6  A    between atoms: C_12  and  C_14
REMARK    7  A    between atoms: C_15  and  C_16
REMARK    8  A    between atoms: C_19  and  C_20
REMARK    9  A    between atoms: C_20  and  C_21
REMARK                            x       y       z     vdW  Elec       q    Type
REMARK                         _______ _______ _______ _____ _____    ______ ____
ROOT
ATOM      1  N   UNL     1       7.753   6.445  18.230  0.00  0.00    +0.000 N 
ATOM      2  C   UNL     1       7.300   7.413  17.367  0.00  0.00    +0.000 C 
ATOM      3  O   UNL     1       6.536   7.207  16.434  0.00  0.00    +0.000 OA
ATOM      4  H   UNL     1       8.349   6.696  19.004  0.00  0.00    +0.000 HD
ENDROOT
BRANCH   2   5
ATOM      5  C   UNL     1       7.884   8.750  17.657  0.00  0.00    +0.000 C 
ATOM      6  C   UNL     1       8.748   8.923  18.670  0.00  0.00    +0.000 C 
BRANCH   6   7
ATOM      7  C   UNL     1       9.280  10.236  19.074  0.00  0.00    +0.000 A 
ATOM      8  C   UNL     1       9.453  10.584  20.421  0.00  0.00    +0.000 A 
ATOM      9  C   UNL     1      10.042  11.803  20.783  0.00  0.00    +0.000 A 
ATOM     10  C   UNL     1      10.491  12.698  19.807  0.00  0.00    +0.000 A 
ATOM     11  C   UNL     1      10.297  12.361  18.459  0.00  0.00    +0.000 A 
ATOM     12  C   UNL     1       9.710  11.140  18.096  0.00  0.00    +0.000 A 
BRANCH  10  13
ATOM     13  C   UNL     1      11.106  14.029  20.178  0.00  0.00    +0.000 C 
BRANCH  13  14
ATOM     14  C   UNL     1      10.139  14.990  20.816  0.00  0.00    +0.000 C 
ATOM     15  C   UNL     1       9.791  14.987  22.287  0.00  0.00    +0.000 C 
ATOM     16  C   UNL     1      10.689  16.056  21.737  0.00  0.00    +0.000 C 
ENDBRANCH  13  14
ENDBRANCH  10  13
ENDBRANCH   6   7
ENDBRANCH   2   5
BRANCH   1  17
ATOM     17  C   UNL     1       7.400   5.054  18.077  0.00  0.00    +0.000 C 
BRANCH  17  21
ATOM     18  C   UNL     1       3.124   4.482  18.280  0.00  0.00    +0.000 A 
ATOM     19  C   UNL     1       3.831   4.013  17.175  0.00  0.00    +0.000 A 
ATOM     20  C   UNL     1       5.219   4.194  17.110  0.00  0.00    +0.000 A 
ATOM     21  C   UNL     1       5.910   4.833  18.154  0.00  0.00    +0.000 A 
ATOM     22  C   UNL     1       5.193   5.257  19.282  0.00  0.00    +0.000 A 
ATOM     23  C   UNL     1       3.815   5.080  19.337  0.00  0.00    +0.000 A 
ATOM     24  F   UNL     1       3.138   5.514  20.412  0.00  0.00    +0.000 F 
BRANCH  18  25
ATOM     25  N   UNL     1       1.704   4.277  18.359  0.00  0.00    +0.000 N 
ATOM     26  H   UNL     1       1.230   5.082  18.782  0.00  0.00    +0.000 HD
BRANCH  25  28
ATOM     27  C   UNL     1       2.698   1.930  19.172  0.00  0.00    +0.000 C 
ATOM     28  S   UNL     1       1.223   2.917  19.265  0.00  0.00    +0.000 S 
ATOM     29  O   UNL     1       0.207   2.259  18.479  0.00  0.00    +0.000 OA
ATOM     30  O   UNL     1       1.012   3.278  20.650  0.00  0.00    +0.000 OA
ENDBRANCH  25  28
ENDBRANCH  18  25
ENDBRANCH  17  21
ENDBRANCH   1  17
TORSDOF 8
ENDMDL
MODEL 4
REMARK VINA RESULT:      -8.3      0.890      1.419
REMARK  Name = 
REMARK  9 active torsions:
REMARK  status: ('A' for Active; 'I' for Inactive)
REMARK    1  A    between atoms: C_1  and  S_2
REMARK    2  A    between atoms: S_2  and  N_5
REMARK    3  A    between atoms: N_5  and  C_6
REMARK    4  A    between atoms: C_9  and  C_10
REMARK    5  A    between atoms: C_10  and  N_11
REMARK    6  A    between atoms: C_12  and  C_14
REMARK    7  A    between atoms: C_15  and  C_16
REMARK    8  A    between atoms: C_19  and  C_20
REMARK    9  A    between atoms: C_20  and  C_21
REMARK                            x       y       z     vdW  Elec       q    Type
REMARK                         _______ _______ _______ _____ _____    ______ ____
ROOT
ATOM      1  N   UNL     1       7.901   6.581  18.368  0.00  0.00    +0.000 N 
ATOM      2  C   UNL     1       7.458   7.501  17.450  0.00  0.00    +0.000 C 
ATOM      3  O   UNL     1       6.726   7.241  16.505  0.00  0.00    +0.000 OA
ATOM      4  H   UNL     1       8.470   6.877  19.147  0.00  0.00    +0.000 HD
ENDROOT
BRANCH   2   5
ATOM      5  C   UNL     1       8.010   8.860  17.698  0.00  0.00    +0.000 C 
ATOM      6  C   UNL     1       8.797   9.106  18.758  0.00  0.00    +0.000 C 
BRANCH   6   7
ATOM      7  C   UNL     1       9.289  10.447  19.117  0.00  0.00    +0.000 A 
ATOM      8  C   UNL     1      10.102  10.664  20.237  0.00  0.00    +0.000 A 
ATOM      9  C   UNL     1      10.632  11.932  20.513  0.00  0.00    +0.000 A 
ATOM     10  C   UNL     1      10.377  13.013  19.663  0.00  0.00    +0.000 A 
ATOM     11  C   UNL     1       9.543  12.802  18.554  0.00  0.00    +0.000 A 
ATOM     12  C   UNL     1       9.015  11.533  18.277  0.00  0.00    +0.000 A 
BRANCH  10  13
ATOM     13  C   UNL     1      10.918  14.394  19.957  0.00  0.00    +0.000 C 
BRANCH  13  14
ATOM     14  C   UNL     1       9.968  15.269  20.731  0.00  0.00    +0.000 C 
ATOM     15  C   UNL     1       9.073  14.769  21.841  0.00  0.00    +0.000 C 
ATOM     16  C   UNL     1      10.292  15.577  22.176  0.00  0.00    +0.000 C 
ENDBRANCH  13  14
ENDBRANCH  10  13
ENDBRANCH   6   7
ENDBRANCH   2   5
BRANCH   1  17
ATOM     17  C   UNL     1       7.577   5.179  18.267  0.00  0.00    +0.000 C 
BRANCH  17  21
ATOM     18  C   UNL     1       3.335   4.403  18.502  0.00  0.00    +0.000 A 
ATOM     19  C   UNL     1       3.979   5.044  19.558  0.00  0.00    +0.000 A 
ATOM     20  C   UNL     1       5.354   5.301  19.481  0.00  0.00    +0.000 A 
ATOM     21  C   UNL     1       6.092   4.930  18.344  0.00  0.00    +0.000 A 
ATOM     22  C   UNL     1       5.423   4.328  17.268  0.00  0.00    +0.000 A 
ATOM     23  C   UNL     1       4.058   4.071  17.354  0.00  0.00    +0.000 A 
ATOM     24  F   UNL     1       3.436   3.472  16.327  0.00  0.00    +0.000 F 
BRANCH  18  25
ATOM     25  N   UNL     1       1.921   4.160  18.569  0.00  0.00    +0.000 N 
ATOM     26  H   UNL     1       1.453   4.827  19.192  0.00  0.00    +0.000 HD
BRANCH  25  28
ATOM     27  C   UNL     1       1.241   2.944  20.852  0.00  0.00    +0.000 C 
ATOM     28  S   UNL     1       1.482   2.610  19.124  0.00  0.00    +0.000 S 
ATOM     29  O   UNL     1       2.666   1.795  18.996  0.00  0.00    +0.000 OA
ATOM     30  O   UNL     1       0.209   2.212  18.563  0.00  0.00    +0.000 OA
ENDBRANCH  25  28
ENDBRANCH  18  25
ENDBRANCH  17  21
ENDBRANCH   1  17
TORSDOF 8
ENDMDL
MODEL 5
REMARK VINA RESULT:      -8.1      1.140      1.361
REMARK  Name = 
REMARK  9 active torsions:
REMARK  status: ('A' for Active; 'I' for Inactive)
REMARK    1  A    between atoms: C_1  and  S_2
REMARK    2  A    between atoms: S_2  and  N_5
REMARK    3  A    between atoms: N_5  and  C_6
REMARK    4  A    between atoms: C_9  and  C_10
REMARK    5  A    between atoms: C_10  and  N_11
REMARK    6  A    between atoms: C_12  and  C_14
REMARK    7  A    between atoms: C_15  and  C_16
REMARK    8  A    between atoms: C_19  and  C_20
REMARK    9  A    between atoms: C_20  and  C_21
REMARK                            x       y       z     vdW  Elec       q    Type
REMARK                         _______ _______ _______ _____ _____    ______ ____
ROOT
ATOM      1  N   UNL     1       7.836   6.710  18.611  0.00  0.00    +0.000 N 
ATOM      2  C   UNL     1       7.770   7.512  17.498  0.00  0.00    +0.000 C 
ATOM      3  O   UNL     1       7.441   7.127  16.384  0.00  0.00    +0.000 OA
ATOM      4  H   UNL     1       8.075   7.107  19.507  0.00  0.00    +0.000 HD
ENDROOT
BRANCH   2   5
ATOM      5  C   UNL     1       8.194   8.910  17.780  0.00  0.00    +0.000 C 
ATOM      6  C   UNL     1       8.958   9.200  18.845  0.00  0.00    +0.000 C 
BRANCH   6   7
ATOM      7  C   UNL     1       9.325  10.572  19.238  0.00  0.00    +0.000 A 
ATOM      8  C   UNL     1       9.335  11.630  18.319  0.00  0.00    +0.000 A 
ATOM      9  C   UNL     1       9.602  12.943  18.730  0.00  0.00    +0.000 A 
ATOM     10  C   UNL     1       9.847  13.235  20.075  0.00  0.00    +0.000 A 
ATOM     11  C   UNL     1       9.860  12.173  20.993  0.00  0.00    +0.000 A 
ATOM     12  C   UNL     1       9.591  10.860  20.582  0.00  0.00    +0.000 A 
BRANCH  10  13
ATOM     13  C   UNL     1      10.161  14.641  20.534  0.00  0.00    +0.000 C 
BRANCH  13  14
ATOM     14  C   UNL     1      10.072  14.830  22.025  0.00  0.00    +0.000 C 
ATOM     15  C   UNL     1      10.393  16.127  22.733  0.00  0.00    +0.000 C 
ATOM     16  C   UNL     1       8.963  15.701  22.572  0.00  0.00    +0.000 C 
ENDBRANCH  13  14
ENDBRANCH  10  13
ENDBRANCH   6   7
ENDBRANCH   2   5
BRANCH   1  17
ATOM     17  C   UNL     1       7.569   5.293  18.553  0.00  0.00    +0.000 C 
BRANCH  17  21
ATOM     18  C   UNL     1       3.352   4.372  18.417  0.00  0.00    +0.000 A 
ATOM     19  C   UNL     1       3.878   5.039  19.522  0.00  0.00    +0.000 A 
ATOM     20  C   UNL     1       5.244   5.343  19.565  0.00  0.00    +0.000 A 
ATOM     21  C   UNL     1       6.092   4.994  18.500  0.00  0.00    +0.000 A 
ATOM     22  C   UNL     1       5.542   4.365  17.374  0.00  0.00    +0.000 A 
ATOM     23  C   UNL     1       4.185   4.062  17.339  0.00  0.00    +0.000 A 
ATOM     24  F   UNL     1       3.677   3.438  16.265  0.00  0.00    +0.000 F 
BRANCH  18  25
ATOM     25  N   UNL     1       1.946   4.081  18.360  0.00  0.00    +0.000 N 
ATOM     26  H   UNL     1       1.396   4.775  18.877  0.00  0.00    +0.000 HD
BRANCH  25  28
ATOM     27  C   UNL     1       1.258   2.981  20.699  0.00  0.00    +0.000 C 
ATOM     28  S   UNL     1       1.500   2.562  18.990  0.00  0.00    +0.000 S 
ATOM     29  O   UNL     1       2.681   1.737  18.904  0.00  0.00    +0.000 OA
ATOM     30  O   UNL     1       0.226   2.142  18.447  0.00  0.00    +0.000 OA
ENDBRANCH  25  28
ENDBRANCH  18  25
ENDBRANCH  17  21
ENDBRANCH   1  17
TORSDOF 8
ENDMDL
MODEL 6
REMARK VINA RESULT:      -8.1      1.842      2.271
REMARK  Name = 
REMARK  9 active torsions:
REMARK  status: ('A' for Active; 'I' for Inactive)
REMARK    1  A    between atoms: C_1  and  S_2
REMARK    2  A    between atoms: S_2  and  N_5
REMARK    3  A    between atoms: N_5  and  C_6
REMARK    4  A    between atoms: C_9  and  C_10
REMARK    5  A    between atoms: C_10  and  N_11
REMARK    6  A    between atoms: C_12  and  C_14
REMARK    7  A    between atoms: C_15  and  C_16
REMARK    8  A    between atoms: C_19  and  C_20
REMARK    9  A    between atoms: C_20  and  C_21
REMARK                            x       y       z     vdW  Elec       q    Type
REMARK                         _______ _______ _______ _____ _____    ______ ____
ROOT
ATOM      1  N   UNL     1       6.280   7.190  16.804  0.00  0.00    +0.000 N 
ATOM      2  C   UNL     1       7.412   6.741  17.438  0.00  0.00    +0.000 C 
ATOM      3  O   UNL     1       7.779   5.574  17.458  0.00  0.00    +0.000 OA
ATOM      4  H   UNL     1       6.063   8.175  16.794  0.00  0.00    +0.000 HD
ENDROOT
BRANCH   2   5
ATOM      5  C   UNL     1       8.133   7.830  18.151  0.00  0.00    +0.000 C 
ATOM      6  C   UNL     1       8.002   9.111  17.771  0.00  0.00    +0.000 C 
BRANCH   6   7
ATOM      7  C   UNL     1       8.766  10.221  18.366  0.00  0.00    +0.000 A 
ATOM      8  C   UNL     1       8.886  11.464  17.730  0.00  0.00    +0.000 A 
ATOM      9  C   UNL     1       9.542  12.535  18.352  0.00  0.00    +0.000 A 
ATOM     10  C   UNL     1      10.080  12.396  19.636  0.00  0.00    +0.000 A 
ATOM     11  C   UNL     1       9.981  11.145  20.264  0.00  0.00    +0.000 A 
ATOM     12  C   UNL     1       9.321  10.074  19.642  0.00  0.00    +0.000 A 
BRANCH  10  13
ATOM     13  C   UNL     1      10.813  13.532  20.313  0.00  0.00    +0.000 C 
BRANCH  13  14
ATOM     14  C   UNL     1       9.906  14.574  20.909  0.00  0.00    +0.000 C 
ATOM     15  C   UNL     1       8.470  14.317  21.304  0.00  0.00    +0.000 C 
ATOM     16  C   UNL     1       9.522  14.443  22.366  0.00  0.00    +0.000 C 
ENDBRANCH  13  14
ENDBRANCH  10  13
ENDBRANCH   6   7
ENDBRANCH   2   5
BRANCH   1  17
ATOM     17  C   UNL     1       5.369   6.294  16.133  0.00  0.00    +0.000 C 
BRANCH  17  21
ATOM     18  C   UNL     1       2.366   4.695  18.793  0.00  0.00    +0.000 A 
ATOM     19  C   UNL     1       2.826   3.923  17.728  0.00  0.00    +0.000 A 
ATOM     20  C   UNL     1       3.804   4.439  16.867  0.00  0.00    +0.000 A 
ATOM     21  C   UNL     1       4.337   5.723  17.072  0.00  0.00    +0.000 A 
ATOM     22  C   UNL     1       3.900   6.470  18.175  0.00  0.00    +0.000 A 
ATOM     23  C   UNL     1       2.925   5.955  19.023  0.00  0.00    +0.000 A 
ATOM     24  F   UNL     1       2.498   6.692  20.060  0.00  0.00    +0.000 F 
BRANCH  18  25
ATOM     25  N   UNL     1       1.380   4.159  19.690  0.00  0.00    +0.000 N 
ATOM     26  H   UNL     1       1.146   4.825  20.434  0.00  0.00    +0.000 HD
BRANCH  25  28
ATOM     27  C   UNL     1       3.590   2.936  20.571  0.00  0.00    +0.000 C 
ATOM     28  S   UNL     1       1.829   2.715  20.474  0.00  0.00    +0.000 S 
ATOM     29  O   UNL     1       1.573   1.656  19.528  0.00  0.00    +0.000 OA
ATOM     30  O   UNL     1       1.307   2.686  21.823  0.00  0.00    +0.000 OA
ENDBRANCH  25  28
ENDBRANCH  18  25
ENDBRANCH  17  21
ENDBRANCH   1  17
TORSDOF 8
ENDMDL
MODEL 7
REMARK VINA RESULT:      -8.0      1.656      2.013
REMARK  Name = 
REMARK  9 active torsions:
REMARK  status: ('A' for Active; 'I' for Inactive)
REMARK    1  A    between atoms: C_1  and  S_2
REMARK    2  A    between atoms: S_2  and  N_5
REMARK    3  A    between atoms: N_5  and  C_6
REMARK    4  A    between atoms: C_9  and  C_10
REMARK    5  A    between atoms: C_10  and  N_11
REMARK    6  A    between atoms: C_12  and  C_14
REMARK    7  A    between atoms: C_15  and  C_16
REMARK    8  A    between atoms: C_19  and  C_20
REMARK    9  A    between atoms: C_20  and  C_21
REMARK                            x       y       z     vdW  Elec       q    Type
REMARK                         _______ _______ _______ _____ _____    ______ ____
ROOT
ATOM      1  N   UNL     1       6.227   7.268  16.870  0.00  0.00    +0.000 N 
ATOM      2  C   UNL     1       7.443   6.828  17.333  0.00  0.00    +0.000 C 
ATOM      3  O   UNL     1       7.826   5.667  17.284  0.00  0.00    +0.000 OA
ATOM      4  H   UNL     1       5.997   8.249  16.906  0.00  0.00    +0.000 HD
ENDROOT
BRANCH   2   5
ATOM      5  C   UNL     1       8.241   7.919  17.955  0.00  0.00    +0.000 C 
ATOM      6  C   UNL     1       7.846   9.199  17.873  0.00  0.00    +0.000 C 
BRANCH   6   7
ATOM      7  C   UNL     1       8.640  10.333  18.375  0.00  0.00    +0.000 A 
ATOM      8  C   UNL     1       9.431  10.233  19.528  0.00  0.00    +0.000 A 
ATOM      9  C   UNL     1      10.247  11.295  19.941  0.00  0.00    +0.000 A 
ATOM     10  C   UNL     1      10.308  12.480  19.199  0.00  0.00    +0.000 A 
ATOM     11  C   UNL     1       9.498  12.590  18.058  0.00  0.00    +0.000 A 
ATOM     12  C   UNL     1       8.684  11.526  17.644  0.00  0.00    +0.000 A 
BRANCH  10  13
ATOM     13  C   UNL     1      11.162  13.646  19.642  0.00  0.00    +0.000 C 
BRANCH  13  14
ATOM     14  C   UNL     1      10.373  14.812  20.176  0.00  0.00    +0.000 C 
ATOM     15  C   UNL     1       9.772  14.861  21.561  0.00  0.00    +0.000 C 
ATOM     16  C   UNL     1      10.999  15.668  21.255  0.00  0.00    +0.000 C 
ENDBRANCH  13  14
ENDBRANCH  10  13
ENDBRANCH   6   7
ENDBRANCH   2   5
BRANCH   1  17
ATOM     17  C   UNL     1       5.244   6.365  16.320  0.00  0.00    +0.000 C 
BRANCH  17  21
ATOM     18  C   UNL     1       3.747   3.614  19.292  0.00  0.00    +0.000 A 
ATOM     19  C   UNL     1       3.955   4.950  19.631  0.00  0.00    +0.000 A 
ATOM     20  C   UNL     1       4.436   5.845  18.666  0.00  0.00    +0.000 A 
ATOM     21  C   UNL     1       4.701   5.414  17.355  0.00  0.00    +0.000 A 
ATOM     22  C   UNL     1       4.442   4.078  17.015  0.00  0.00    +0.000 A 
ATOM     23  C   UNL     1       3.969   3.194  17.979  0.00  0.00    +0.000 A 
ATOM     24  F   UNL     1       3.750   1.913  17.646  0.00  0.00    +0.000 F 
BRANCH  18  25
ATOM     25  N   UNL     1       3.231   2.701  20.274  0.00  0.00    +0.000 N 
ATOM     26  H   UNL     1       3.038   1.780  19.867  0.00  0.00    +0.000 HD
BRANCH  25  28
ATOM     27  C   UNL     1       0.627   2.936  19.707  0.00  0.00    +0.000 C 
ATOM     28  S   UNL     1       1.786   3.195  21.029  0.00  0.00    +0.000 S 
ATOM     29  O   UNL     1       1.911   4.619  21.228  0.00  0.00    +0.000 OA
ATOM     30  O   UNL     1       1.443   2.294  22.107  0.00  0.00    +0.000 OA
ENDBRANCH  25  28
ENDBRANCH  18  25
ENDBRANCH  17  21
ENDBRANCH   1  17
TORSDOF 8
ENDMDL
MODEL 8
REMARK VINA RESULT:      -8.0      1.694      1.895
REMARK  Name = 
REMARK  9 active torsions:
REMARK  status: ('A' for Active; 'I' for Inactive)
REMARK    1  A    between atoms: C_1  and  S_2
REMARK    2  A    between atoms: S_2  and  N_5
REMARK    3  A    between atoms: N_5  and  C_6
REMARK    4  A    between atoms: C_9  and  C_10
REMARK    5  A    between atoms: C_10  and  N_11
REMARK    6  A    between atoms: C_12  and  C_14
REMARK    7  A    between atoms: C_15  and  C_16
REMARK    8  A    between atoms: C_19  and  C_20
REMARK    9  A    between atoms: C_20  and  C_21
REMARK                            x       y       z     vdW  Elec       q    Type
REMARK                         _______ _______ _______ _____ _____    ______ ____
ROOT
ATOM      1  N   UNL     1       7.174   6.950  16.603  0.00  0.00    +0.000 N 
ATOM      2  C   UNL     1       7.767   7.283  17.796  0.00  0.00    +0.000 C 
ATOM      3  O   UNL     1       8.051   6.483  18.676  0.00  0.00    +0.000 OA
ATOM      4  H   UNL     1       7.007   7.659  15.905  0.00  0.00    +0.000 HD
ENDROOT
BRANCH   2   5
ATOM      5  C   UNL     1       7.986   8.748  17.931  0.00  0.00    +0.000 C 
ATOM      6  C   UNL     1       8.953   9.234  18.725  0.00  0.00    +0.000 C 
BRANCH   6   7
ATOM      7  C   UNL     1       9.154  10.671  18.982  0.00  0.00    +0.000 A 
ATOM      8  C   UNL     1       9.038  11.630  17.967  0.00  0.00    +0.000 A 
ATOM      9  C   UNL     1       9.147  12.999  18.249  0.00  0.00    +0.000 A 
ATOM     10  C   UNL     1       9.356  13.445  19.558  0.00  0.00    +0.000 A 
ATOM     11  C   UNL     1       9.497  12.484  20.571  0.00  0.00    +0.000 A 
ATOM     12  C   UNL     1       9.385  11.115  20.289  0.00  0.00    +0.000 A 
BRANCH  10  13
ATOM     13  C   UNL     1       9.502  14.915  19.878  0.00  0.00    +0.000 C 
BRANCH  13  14
ATOM     14  C   UNL     1       8.571  15.804  19.097  0.00  0.00    +0.000 C 
ATOM     15  C   UNL     1       8.419  17.288  19.338  0.00  0.00    +0.000 C 
ATOM     16  C   UNL     1       9.172  16.803  18.134  0.00  0.00    +0.000 C 
ENDBRANCH  13  14
ENDBRANCH  10  13
ENDBRANCH   6   7
ENDBRANCH   2   5
BRANCH   1  17
ATOM     17  C   UNL     1       6.775   5.598  16.296  0.00  0.00    +0.000 C 
BRANCH  17  21
ATOM     18  C   UNL     1       2.864   4.647  17.860  0.00  0.00    +0.000 A 
ATOM     19  C   UNL     1       3.332   5.958  17.923  0.00  0.00    +0.000 A 
ATOM     20  C   UNL     1       4.598   6.269  17.411  0.00  0.00    +0.000 A 
ATOM     21  C   UNL     1       5.400   5.275  16.823  0.00  0.00    +0.000 A 
ATOM     22  C   UNL     1       4.897   3.970  16.724  0.00  0.00    +0.000 A 
ATOM     23  C   UNL     1       3.641   3.667  17.239  0.00  0.00    +0.000 A 
ATOM     24  F   UNL     1       3.183   2.408  17.159  0.00  0.00    +0.000 F 
BRANCH  18  25
ATOM     25  N   UNL     1       1.555   4.331  18.363  0.00  0.00    +0.000 N 
ATOM     26  H   UNL     1       0.874   5.059  18.124  0.00  0.00    +0.000 HD
BRANCH  25  28
ATOM     27  C   UNL     1       3.043   3.390  20.377  0.00  0.00    +0.000 C 
ATOM     28  S   UNL     1       1.462   4.134  20.052  0.00  0.00    +0.000 S 
ATOM     29  O   UNL     1       0.451   3.129  20.278  0.00  0.00    +0.000 OA
ATOM     30  O   UNL     1       1.429   5.421  20.713  0.00  0.00    +0.000 OA
ENDBRANCH  25  28
ENDBRANCH  18  25
ENDBRANCH  17  21
ENDBRANCH   1  17
TORSDOF 8
ENDMDL
MODEL 9
REMARK VINA RESULT:      -8.0      1.640      1.952
REMARK  Name = 
REMARK  9 active torsions:
REMARK  status: ('A' for Active; 'I' for Inactive)
REMARK    1  A    between atoms: C_1  and  S_2
REMARK    2  A    between atoms: S_2  and  N_5
REMARK    3  A    between atoms: N_5  and  C_6
REMARK    4  A    between atoms: C_9  and  C_10
REMARK    5  A    between atoms: C_10  and  N_11
REMARK    6  A    between atoms: C_12  and  C_14
REMARK    7  A    between atoms: C_15  and  C_16
REMARK    8  A    between atoms: C_19  and  C_20
REMARK    9  A    between atoms: C_20  and  C_21
REMARK                            x       y       z     vdW  Elec       q    Type
REMARK                         _______ _______ _______ _____ _____    ______ ____
ROOT
ATOM      1  N   UNL     1       7.371   7.467  16.815  0.00  0.00    +0.000 N 
ATOM      2  C   UNL     1       8.016   7.954  17.926  0.00  0.00    +0.000 C 
ATOM      3  O   UNL     1       8.429   7.263  18.847  0.00  0.00    +0.000 OA
ATOM      4  H   UNL     1       7.095   8.094  16.075  0.00  0.00    +0.000 HD
ENDROOT
BRANCH   2   5
ATOM      5  C   UNL     1       8.115   9.438  17.918  0.00  0.00    +0.000 C 
ATOM      6  C   UNL     1       9.216  10.061  18.369  0.00  0.00    +0.000 C 
BRANCH   6   7
ATOM      7  C   UNL     1       9.338  11.525  18.485  0.00  0.00    +0.000 A 
ATOM      8  C   UNL     1       8.546  12.397  17.727  0.00  0.00    +0.000 A 
ATOM      9  C   UNL     1       8.614  13.785  17.914  0.00  0.00    +0.000 A 
ATOM     10  C   UNL     1       9.464  14.335  18.880  0.00  0.00    +0.000 A 
ATOM     11  C   UNL     1      10.274  13.463  19.623  0.00  0.00    +0.000 A 
ATOM     12  C   UNL     1      10.204  12.075  19.437  0.00  0.00    +0.000 A 
BRANCH  10  13
ATOM     13  C   UNL     1       9.570  15.830  19.079  0.00  0.00    +0.000 C 
BRANCH  13  14
ATOM     14  C   UNL     1      10.753  16.454  18.387  0.00  0.00    +0.000 C 
ATOM     15  C   UNL     1      11.019  16.343  16.903  0.00  0.00    +0.000 C 
ATOM     16  C   UNL     1      10.508  17.634  17.472  0.00  0.00    +0.000 C 
ENDBRANCH  13  14
ENDBRANCH  10  13
ENDBRANCH   6   7
ENDBRANCH   2   5
BRANCH   1  17
ATOM     17  C   UNL     1       7.071   6.065  16.656  0.00  0.00    +0.000 C 
BRANCH  17  21
ATOM     18  C   UNL     1       3.570   4.844  18.871  0.00  0.00    +0.000 A 
ATOM     19  C   UNL     1       4.774   4.167  19.055  0.00  0.00    +0.000 A 
ATOM     20  C   UNL     1       5.912   4.565  18.341  0.00  0.00    +0.000 A 
ATOM     21  C   UNL     1       5.857   5.649  17.448  0.00  0.00    +0.000 A 
ATOM     22  C   UNL     1       4.652   6.352  17.308  0.00  0.00    +0.000 A 
ATOM     23  C   UNL     1       3.524   5.948  18.016  0.00  0.00    +0.000 A 
ATOM     24  F   UNL     1       2.371   6.614  17.853  0.00  0.00    +0.000 F 
BRANCH  18  25
ATOM     25  N   UNL     1       2.408   4.452  19.620  0.00  0.00    +0.000 N 
ATOM     26  H   UNL     1       2.663   4.063  20.534  0.00  0.00    +0.000 HD
BRANCH  25  28
ATOM     27  C   UNL     1       2.591   1.955  18.680  0.00  0.00    +0.000 C 
ATOM     28  S   UNL     1       1.426   3.283  18.865  0.00  0.00    +0.000 S 
ATOM     29  O   UNL     1       1.138   3.799  17.549  0.00  0.00    +0.000 OA
ATOM     30  O   UNL     1       0.382   2.841  19.765  0.00  0.00    +0.000 OA
ENDBRANCH  25  28
ENDBRANCH  18  25
ENDBRANCH  17  21
ENDBRANCH   1  17
TORSDOF 8
ENDMDL
