MODEL 1
REMARK VINA RESULT:      -7.2      0.000      0.000
REMARK  Name = 
REMARK  10 active torsions:
REMARK  status: ('A' for Active; 'I' for Inactive)
REMARK    1  A    between atoms: C_1  and  C_2
REMARK    2  A    between atoms: C_2  and  C_3
REMARK    3  A    between atoms: C_3  and  O_4
REMARK    4  A    between atoms: O_4  and  C_5
REMARK    5  A    between atoms: C_7  and  N_8
REMARK    6  A    between atoms: C_9  and  C_10
REMARK    7  A    between atoms: C_13  and  S_14
REMARK    8  A    between atoms: S_14  and  C_15
REMARK    9  A    between atoms: C_15  and  C_16
REMARK   10  A    between atoms: C_15  and  C_17
REMARK                            x       y       z     vdW  Elec       q    Type
REMARK                         _______ _______ _______ _____ _____    ______ ____
ROOT
ATOM      1  C   UNL     1       5.683   4.004  15.855  0.00  0.00    +0.000 A 
ATOM      2  C   UNL     1       6.715   4.650  16.486  0.00  0.00    +0.000 A 
ATOM      3  C   UNL     1       6.402   5.259  17.684  0.00  0.00    +0.000 A 
ATOM      4  N   UNL     1       5.163   5.229  18.195  0.00  0.00    +0.000 NA
ATOM      5  C   UNL     1       4.220   4.593  17.484  0.00  0.00    +0.000 A 
ATOM      6  N   UNL     1       4.433   3.970  16.326  0.00  0.00    +0.000 NA
ENDROOT
BRANCH   3   7
ATOM      7  N   UNL     1       7.441   5.908  18.357  0.00  0.00    +0.000 N 
ATOM      8  C   UNL     1       7.875   7.195  18.310  0.00  0.00    +0.000 C 
ATOM      9  C   UNL     1       7.281   8.223  17.386  0.00  0.00    +0.000 C 
ATOM     10  O   UNL     1       8.776   7.518  19.092  0.00  0.00    +0.000 OA
ATOM     11  H   UNL     1       7.970   5.367  19.032  0.00  0.00    +0.000 HD
ENDBRANCH   3   7
BRANCH   1  12
ATOM     12  O   UNL     1       5.971   3.331  14.682  0.00  0.00    +0.000 OA
BRANCH  12  13
ATOM     13  C   UNL     1       6.531   4.203  13.689  0.00  0.00    +0.000 C 
BRANCH  13  15
ATOM     14  C   UNL     1       4.964   3.241  11.987  0.00  0.00    +0.000 C 
ATOM     15  C   UNL     1       6.416   3.548  12.319  0.00  0.00    +0.000 C 
ENDBRANCH  13  15
ENDBRANCH  12  13
ENDBRANCH   1  12
BRANCH   5  16
ATOM     16  S   UNL     1       2.534   4.806  17.973  0.00  0.00    +0.000 S 
BRANCH  16  17
ATOM     17  C   UNL     1       2.699   5.733  19.557  0.00  0.00    +0.000 C 
ATOM     18  C   UNL     1       1.958   5.143  20.762  0.00  0.00    +0.000 C 
BRANCH  17  19
ATOM     19  C   UNL     1       2.223   7.166  19.334  0.00  0.00    +0.000 A 
ATOM     20  C   UNL     1       1.594   7.868  20.370  0.00  0.00    +0.000 A 
ATOM     21  C   UNL     1       1.116   9.162  20.161  0.00  0.00    +0.000 A 
ATOM     22  C   UNL     1       1.267   9.772  18.914  0.00  0.00    +0.000 A 
ATOM     23  C   UNL     1       1.909   9.097  17.881  0.00  0.00    +0.000 A 
ATOM     24  C   UNL     1       2.389   7.802  18.090  0.00  0.00    +0.000 A 
ENDBRANCH  17  19
ENDBRANCH  16  17
ENDBRANCH   5  16
TORSDOF 7
ENDMDL
MODEL 2
REMARK VINA RESULT:      -7.2      0.884      1.422
REMARK  Name = 
REMARK  10 active torsions:
REMARK  status: ('A' for Active; 'I' for Inactive)
REMARK    1  A    between atoms: C_1  and  C_2
REMARK    2  A    between atoms: C_2  and  C_3
REMARK    3  A    between atoms: C_3  and  O_4
REMARK    4  A    between atoms: O_4  and  C_5
REMARK    5  A    between atoms: C_7  and  N_8
REMARK    6  A    between atoms: C_9  and  C_10
REMARK    7  A    between atoms: C_13  and  S_14
REMARK    8  A    between atoms: S_14  and  C_15
REMARK    9  A    between atoms: C_15  and  C_16
REMARK   10  A    between atoms: C_15  and  C_17
REMARK                            x       y       z     vdW  Elec       q    Type
REMARK                         _______ _______ _______ _____ _____    ______ ____
ROOT
ATOM      1  C   UNL     1       5.592   4.307  15.497  0.00  0.00    +0.000 A 
ATOM      2  C   UNL     1       6.381   5.416  15.664  0.00  0.00    +0.000 A 
ATOM      3  C   UNL     1       5.997   6.283  16.667  0.00  0.00    +0.000 A 
ATOM      4  N   UNL     1       4.914   6.059  17.424  0.00  0.00    +0.000 NA
ATOM      5  C   UNL     1       4.196   4.958  17.161  0.00  0.00    +0.000 A 
ATOM      6  N   UNL     1       4.497   4.062  16.222  0.00  0.00    +0.000 NA
ENDROOT
BRANCH   3   7
ATOM      7  N   UNL     1       6.795   7.412  16.869  0.00  0.00    +0.000 N 
ATOM      8  C   UNL     1       7.762   7.675  17.787  0.00  0.00    +0.000 C 
ATOM      9  C   UNL     1       8.130   6.714  18.884  0.00  0.00    +0.000 C 
ATOM     10  O   UNL     1       8.374   8.744  17.675  0.00  0.00    +0.000 OA
ATOM     11  H   UNL     1       6.687   8.183  16.220  0.00  0.00    +0.000 HD
ENDBRANCH   3   7
BRANCH   1  12
ATOM     12  O   UNL     1       5.979   3.385  14.542  0.00  0.00    +0.000 OA
BRANCH  12  13
ATOM     13  C   UNL     1       6.351   4.016  13.309  0.00  0.00    +0.000 C 
BRANCH  13  15
ATOM     14  C   UNL     1       5.778   2.157  11.731  0.00  0.00    +0.000 C 
ATOM     15  C   UNL     1       5.413   3.556  12.201  0.00  0.00    +0.000 C 
ENDBRANCH  13  15
ENDBRANCH  12  13
ENDBRANCH   1  12
BRANCH   5  16
ATOM     16  S   UNL     1       2.609   4.804  17.926  0.00  0.00    +0.000 S 
BRANCH  16  17
ATOM     17  C   UNL     1       2.842   5.731  19.500  0.00  0.00    +0.000 C 
ATOM     18  C   UNL     1       2.276   5.070  20.761  0.00  0.00    +0.000 C 
BRANCH  17  19
ATOM     19  C   UNL     1       2.221   7.118  19.347  0.00  0.00    +0.000 A 
ATOM     20  C   UNL     1       2.230   7.760  18.102  0.00  0.00    +0.000 A 
ATOM     21  C   UNL     1       1.705   9.044  17.964  0.00  0.00    +0.000 A 
ATOM     22  C   UNL     1       1.157   9.701  19.068  0.00  0.00    +0.000 A 
ATOM     23  C   UNL     1       1.120   9.068  20.306  0.00  0.00    +0.000 A 
ATOM     24  C   UNL     1       1.645   7.781  20.446  0.00  0.00    +0.000 A 
ENDBRANCH  17  19
ENDBRANCH  16  17
ENDBRANCH   5  16
TORSDOF 7
ENDMDL
MODEL 3
REMARK VINA RESULT:      -7.1      2.170      3.671
REMARK  Name = 
REMARK  10 active torsions:
REMARK  status: ('A' for Active; 'I' for Inactive)
REMARK    1  A    between atoms: C_1  and  C_2
REMARK    2  A    between atoms: C_2  and  C_3
REMARK    3  A    between atoms: C_3  and  O_4
REMARK    4  A    between atoms: O_4  and  C_5
REMARK    5  A    between atoms: C_7  and  N_8
REMARK    6  A    between atoms: C_9  and  C_10
REMARK    7  A    between atoms: C_13  and  S_14
REMARK    8  A    between atoms: S_14  and  C_15
REMARK    9  A    between atoms: C_15  and  C_16
REMARK   10  A    between atoms: C_15  and  C_17
REMARK                            x       y       z     vdW  Elec       q    Type
REMARK                         _______ _______ _______ _____ _____    ______ ____
ROOT
ATOM      1  C   UNL     1       5.179   4.233  18.613  0.00  0.00    +0.000 A 
ATOM      2  C   UNL     1       6.121   4.365  17.625  0.00  0.00    +0.000 A 
ATOM      3  C   UNL     1       6.036   5.510  16.860  0.00  0.00    +0.000 A 
ATOM      4  N   UNL     1       5.084   6.433  17.065  0.00  0.00    +0.000 NA
ATOM      5  C   UNL     1       4.195   6.194  18.040  0.00  0.00    +0.000 A 
ATOM      6  N   UNL     1       4.207   5.123  18.833  0.00  0.00    +0.000 NA
ENDROOT
BRANCH   3   7
ATOM      7  N   UNL     1       6.995   5.678  15.858  0.00  0.00    +0.000 N 
ATOM      8  C   UNL     1       7.094   5.144  14.612  0.00  0.00    +0.000 C 
ATOM      9  C   UNL     1       6.114   4.137  14.074  0.00  0.00    +0.000 C 
ATOM     10  O   UNL     1       8.020   5.544  13.897  0.00  0.00    +0.000 OA
ATOM     11  H   UNL     1       7.751   6.327  16.040  0.00  0.00    +0.000 HD
ENDBRANCH   3   7
BRANCH   1  12
ATOM     12  O   UNL     1       5.270   3.128  19.439  0.00  0.00    +0.000 OA
BRANCH  12  13
ATOM     13  C   UNL     1       3.978   2.587  19.751  0.00  0.00    +0.000 C 
BRANCH  13  15
ATOM     14  C   UNL     1       2.377   2.183  17.866  0.00  0.00    +0.000 C 
ATOM     15  C   UNL     1       3.554   1.622  18.650  0.00  0.00    +0.000 C 
ENDBRANCH  13  15
ENDBRANCH  12  13
ENDBRANCH   1  12
BRANCH   5  16
ATOM     16  S   UNL     1       2.762   7.227  18.123  0.00  0.00    +0.000 S 
BRANCH  16  17
ATOM     17  C   UNL     1       2.349   7.180  19.918  0.00  0.00    +0.000 C 
ATOM     18  C   UNL     1       1.672   5.899  20.418  0.00  0.00    +0.000 C 
BRANCH  17  19
ATOM     19  C   UNL     1       1.454   8.373  20.244  0.00  0.00    +0.000 A 
ATOM     20  C   UNL     1       0.917   8.522  21.528  0.00  0.00    +0.000 A 
ATOM     21  C   UNL     1       0.063   9.584  21.821  0.00  0.00    +0.000 A 
ATOM     22  C   UNL     1      -0.261  10.517  20.833  0.00  0.00    +0.000 A 
ATOM     23  C   UNL     1       0.282  10.396  19.558  0.00  0.00    +0.000 A 
ATOM     24  C   UNL     1       1.138   9.333  19.264  0.00  0.00    +0.000 A 
ENDBRANCH  17  19
ENDBRANCH  16  17
ENDBRANCH   5  16
TORSDOF 7
ENDMDL
MODEL 4
REMARK VINA RESULT:      -7.1      2.253      4.328
REMARK  Name = 
REMARK  10 active torsions:
REMARK  status: ('A' for Active; 'I' for Inactive)
REMARK    1  A    between atoms: C_1  and  C_2
REMARK    2  A    between atoms: C_2  and  C_3
REMARK    3  A    between atoms: C_3  and  O_4
REMARK    4  A    between atoms: O_4  and  C_5
REMARK    5  A    between atoms: C_7  and  N_8
REMARK    6  A    between atoms: C_9  and  C_10
REMARK    7  A    between atoms: C_13  and  S_14
REMARK    8  A    between atoms: S_14  and  C_15
REMARK    9  A    between atoms: C_15  and  C_16
REMARK   10  A    between atoms: C_15  and  C_17
REMARK                            x       y       z     vdW  Elec       q    Type
REMARK                         _______ _______ _______ _____ _____    ______ ____
ROOT
ATOM      1  C   UNL     1       2.487   3.899  17.618  0.00  0.00    +0.000 A 
ATOM      2  C   UNL     1       3.810   3.683  17.328  0.00  0.00    +0.000 A 
ATOM      3  C   UNL     1       4.642   4.776  17.462  0.00  0.00    +0.000 A 
ATOM      4  N   UNL     1       4.182   5.977  17.842  0.00  0.00    +0.000 NA
ATOM      5  C   UNL     1       2.866   6.087  18.076  0.00  0.00    +0.000 A 
ATOM      6  N   UNL     1       1.992   5.086  17.983  0.00  0.00    +0.000 NA
ENDROOT
BRANCH   3   7
ATOM      7  N   UNL     1       5.998   4.579  17.191  0.00  0.00    +0.000 N 
ATOM      8  C   UNL     1       6.692   4.598  16.022  0.00  0.00    +0.000 C 
ATOM      9  C   UNL     1       6.034   4.801  14.685  0.00  0.00    +0.000 C 
ATOM     10  O   UNL     1       7.920   4.474  16.091  0.00  0.00    +0.000 OA
ATOM     11  H   UNL     1       6.614   4.420  17.980  0.00  0.00    +0.000 HD
ENDBRANCH   3   7
BRANCH   1  12
ATOM     12  O   UNL     1       1.633   2.813  17.554  0.00  0.00    +0.000 OA
BRANCH  12  13
ATOM     13  C   UNL     1       0.863   2.667  18.755  0.00  0.00    +0.000 C 
BRANCH  13  15
ATOM     14  C   UNL     1       1.353   2.809  21.208  0.00  0.00    +0.000 C 
ATOM     15  C   UNL     1       1.770   2.191  19.883  0.00  0.00    +0.000 C 
ENDBRANCH  13  15
ENDBRANCH  12  13
ENDBRANCH   1  12
BRANCH   5  16
ATOM     16  S   UNL     1       2.195   7.712  18.270  0.00  0.00    +0.000 S 
BRANCH  16  17
ATOM     17  C   UNL     1       2.010   7.842  20.099  0.00  0.00    +0.000 C 
ATOM     18  C   UNL     1       1.522   6.579  20.817  0.00  0.00    +0.000 C 
BRANCH  17  19
ATOM     19  C   UNL     1       1.053   8.991  20.411  0.00  0.00    +0.000 A 
ATOM     20  C   UNL     1       0.538   9.146  21.703  0.00  0.00    +0.000 A 
ATOM     21  C   UNL     1      -0.371  10.166  21.986  0.00  0.00    +0.000 A 
ATOM     22  C   UNL     1      -0.771  11.047  20.979  0.00  0.00    +0.000 A 
ATOM     23  C   UNL     1      -0.252  10.919  19.695  0.00  0.00    +0.000 A 
ATOM     24  C   UNL     1       0.659   9.900  19.412  0.00  0.00    +0.000 A 
ENDBRANCH  17  19
ENDBRANCH  16  17
ENDBRANCH   5  16
TORSDOF 7
ENDMDL
MODEL 5
REMARK VINA RESULT:      -7.0      2.564      4.348
REMARK  Name = 
REMARK  10 active torsions:
REMARK  status: ('A' for Active; 'I' for Inactive)
REMARK    1  A    between atoms: C_1  and  C_2
REMARK    2  A    between atoms: C_2  and  C_3
REMARK    3  A    between atoms: C_3  and  O_4
REMARK    4  A    between atoms: O_4  and  C_5
REMARK    5  A    between atoms: C_7  and  N_8
REMARK    6  A    between atoms: C_9  and  C_10
REMARK    7  A    between atoms: C_13  and  S_14
REMARK    8  A    between atoms: S_14  and  C_15
REMARK    9  A    between atoms: C_15  and  C_16
REMARK   10  A    between atoms: C_15  and  C_17
REMARK                            x       y       z     vdW  Elec       q    Type
REMARK                         _______ _______ _______ _____ _____    ______ ____
ROOT
ATOM      1  C   UNL     1       2.452   3.930  17.582  0.00  0.00    +0.000 A 
ATOM      2  C   UNL     1       3.737   3.708  17.160  0.00  0.00    +0.000 A 
ATOM      3  C   UNL     1       4.588   4.793  17.220  0.00  0.00    +0.000 A 
ATOM      4  N   UNL     1       4.179   5.993  17.656  0.00  0.00    +0.000 NA
ATOM      5  C   UNL     1       2.894   6.111  18.021  0.00  0.00    +0.000 A 
ATOM      6  N   UNL     1       2.006   5.117  18.006  0.00  0.00    +0.000 NA
ENDROOT
BRANCH   3   7
ATOM      7  N   UNL     1       5.908   4.588  16.813  0.00  0.00    +0.000 N 
ATOM      8  C   UNL     1       7.089   4.801  17.452  0.00  0.00    +0.000 C 
ATOM      9  C   UNL     1       7.175   5.408  18.826  0.00  0.00    +0.000 C 
ATOM     10  O   UNL     1       8.120   4.442  16.872  0.00  0.00    +0.000 OA
ATOM     11  H   UNL     1       6.056   4.182  15.896  0.00  0.00    +0.000 HD
ENDBRANCH   3   7
BRANCH   1  12
ATOM     12  O   UNL     1       1.587   2.851  17.593  0.00  0.00    +0.000 OA
BRANCH  12  13
ATOM     13  C   UNL     1       0.844   2.774  18.818  0.00  0.00    +0.000 C 
BRANCH  13  15
ATOM     14  C   UNL     1       1.384   2.783  21.264  0.00  0.00    +0.000 C 
ATOM     15  C   UNL     1       1.729   2.184  19.909  0.00  0.00    +0.000 C 
ENDBRANCH  13  15
ENDBRANCH  12  13
ENDBRANCH   1  12
BRANCH   5  16
ATOM     16  S   UNL     1       2.259   7.738  18.298  0.00  0.00    +0.000 S 
BRANCH  16  17
ATOM     17  C   UNL     1       2.035   7.765  20.126  0.00  0.00    +0.000 C 
ATOM     18  C   UNL     1       1.541   6.462  20.763  0.00  0.00    +0.000 C 
BRANCH  17  19
ATOM     19  C   UNL     1       1.066   8.890  20.482  0.00  0.00    +0.000 A 
ATOM     20  C   UNL     1       0.632   9.784  19.496  0.00  0.00    +0.000 A 
ATOM     21  C   UNL     1      -0.218  10.841  19.823  0.00  0.00    +0.000 A 
ATOM     22  C   UNL     1      -0.649  11.013  21.139  0.00  0.00    +0.000 A 
ATOM     23  C   UNL     1      -0.245  10.120  22.127  0.00  0.00    +0.000 A 
ATOM     24  C   UNL     1       0.605   9.061  21.801  0.00  0.00    +0.000 A 
ENDBRANCH  17  19
ENDBRANCH  16  17
ENDBRANCH   5  16
TORSDOF 7
ENDMDL
MODEL 6
REMARK VINA RESULT:      -6.9      1.247      1.931
REMARK  Name = 
REMARK  10 active torsions:
REMARK  status: ('A' for Active; 'I' for Inactive)
REMARK    1  A    between atoms: C_1  and  C_2
REMARK    2  A    between atoms: C_2  and  C_3
REMARK    3  A    between atoms: C_3  and  O_4
REMARK    4  A    between atoms: O_4  and  C_5
REMARK    5  A    between atoms: C_7  and  N_8
REMARK    6  A    between atoms: C_9  and  C_10
REMARK    7  A    between atoms: C_13  and  S_14
REMARK    8  A    between atoms: S_14  and  C_15
REMARK    9  A    between atoms: C_15  and  C_16
REMARK   10  A    between atoms: C_15  and  C_17
REMARK                            x       y       z     vdW  Elec       q    Type
REMARK                         _______ _______ _______ _____ _____    ______ ____
ROOT
ATOM      1  C   UNL     1       5.724   4.104  15.790  0.00  0.00    +0.000 A 
ATOM      2  C   UNL     1       6.202   5.390  15.781  0.00  0.00    +0.000 A 
ATOM      3  C   UNL     1       6.148   6.061  16.986  0.00  0.00    +0.000 A 
ATOM      4  N   UNL     1       5.651   5.494  18.094  0.00  0.00    +0.000 NA
ATOM      5  C   UNL     1       5.185   4.241  17.989  0.00  0.00    +0.000 A 
ATOM      6  N   UNL     1       5.206   3.515  16.872  0.00  0.00    +0.000 NA
ENDROOT
BRANCH   3   7
ATOM      7  N   UNL     1       6.645   7.367  17.007  0.00  0.00    +0.000 N 
ATOM      8  C   UNL     1       7.632   7.940  17.745  0.00  0.00    +0.000 C 
ATOM      9  C   UNL     1       8.391   7.197  18.811  0.00  0.00    +0.000 C 
ATOM     10  O   UNL     1       7.923   9.114  17.489  0.00  0.00    +0.000 OA
ATOM     11  H   UNL     1       6.248   8.028  16.350  0.00  0.00    +0.000 HD
ENDBRANCH   3   7
BRANCH   1  12
ATOM     12  O   UNL     1       5.817   3.379  14.617  0.00  0.00    +0.000 OA
BRANCH  12  13
ATOM     13  C   UNL     1       6.394   4.152  13.555  0.00  0.00    +0.000 C 
BRANCH  13  15
ATOM     14  C   UNL     1       4.798   3.325  11.809  0.00  0.00    +0.000 C 
ATOM     15  C   UNL     1       6.255   3.392  12.242  0.00  0.00    +0.000 C 
ENDBRANCH  13  15
ENDBRANCH  12  13
ENDBRANCH   1  12
BRANCH   5  16
ATOM     16  S   UNL     1       4.249   3.591  19.341  0.00  0.00    +0.000 S 
BRANCH  16  17
ATOM     17  C   UNL     1       2.520   3.994  18.850  0.00  0.00    +0.000 C 
ATOM     18  C   UNL     1       2.157   3.724  17.386  0.00  0.00    +0.000 C 
BRANCH  17  19
ATOM     19  C   UNL     1       2.254   5.465  19.164  0.00  0.00    +0.000 A 
ATOM     20  C   UNL     1       2.416   6.438  18.169  0.00  0.00    +0.000 A 
ATOM     21  C   UNL     1       2.218   7.787  18.460  0.00  0.00    +0.000 A 
ATOM     22  C   UNL     1       1.850   8.181  19.748  0.00  0.00    +0.000 A 
ATOM     23  C   UNL     1       1.665   7.225  20.741  0.00  0.00    +0.000 A 
ATOM     24  C   UNL     1       1.861   5.873  20.452  0.00  0.00    +0.000 A 
ENDBRANCH  17  19
ENDBRANCH  16  17
ENDBRANCH   5  16
TORSDOF 7
ENDMDL
MODEL 7
REMARK VINA RESULT:      -6.9      2.786      6.940
REMARK  Name = 
REMARK  10 active torsions:
REMARK  status: ('A' for Active; 'I' for Inactive)
REMARK    1  A    between atoms: C_1  and  C_2
REMARK    2  A    between atoms: C_2  and  C_3
REMARK    3  A    between atoms: C_3  and  O_4
REMARK    4  A    between atoms: O_4  and  C_5
REMARK    5  A    between atoms: C_7  and  N_8
REMARK    6  A    between atoms: C_9  and  C_10
REMARK    7  A    between atoms: C_13  and  S_14
REMARK    8  A    between atoms: S_14  and  C_15
REMARK    9  A    between atoms: C_15  and  C_16
REMARK   10  A    between atoms: C_15  and  C_17
REMARK                            x       y       z     vdW  Elec       q    Type
REMARK                         _______ _______ _______ _____ _____    ______ ____
ROOT
ATOM      1  C   UNL     1       2.651   4.645  18.162  0.00  0.00    +0.000 A 
ATOM      2  C   UNL     1       2.100   5.580  19.001  0.00  0.00    +0.000 A 
ATOM      3  C   UNL     1       2.595   6.863  18.881  0.00  0.00    +0.000 A 
ATOM      4  N   UNL     1       3.561   7.173  18.005  0.00  0.00    +0.000 NA
ATOM      5  C   UNL     1       4.050   6.179  17.250  0.00  0.00    +0.000 A 
ATOM      6  N   UNL     1       3.627   4.916  17.290  0.00  0.00    +0.000 NA
ENDROOT
BRANCH   3   7
ATOM      7  N   UNL     1       2.038   7.838  19.712  0.00  0.00    +0.000 N 
ATOM      8  C   UNL     1       1.359   8.980  19.426  0.00  0.00    +0.000 C 
ATOM      9  C   UNL     1       1.123   9.459  18.020  0.00  0.00    +0.000 C 
ATOM     10  O   UNL     1       0.898   9.619  20.379  0.00  0.00    +0.000 OA
ATOM     11  H   UNL     1       2.101   7.690  20.713  0.00  0.00    +0.000 HD
ENDBRANCH   3   7
BRANCH   1  12
ATOM     12  O   UNL     1       2.139   3.361  18.212  0.00  0.00    +0.000 OA
BRANCH  12  13
ATOM     13  C   UNL     1       2.551   2.667  19.397  0.00  0.00    +0.000 C 
BRANCH  13  15
ATOM     14  C   UNL     1       1.730   2.762  21.763  0.00  0.00    +0.000 C 
ATOM     15  C   UNL     1       1.351   2.481  20.317  0.00  0.00    +0.000 C 
ENDBRANCH  13  15
ENDBRANCH  12  13
ENDBRANCH   1  12
BRANCH   5  16
ATOM     16  S   UNL     1       5.522   6.493  16.322  0.00  0.00    +0.000 S 
BRANCH  16  17
ATOM     17  C   UNL     1       6.233   4.805  16.131  0.00  0.00    +0.000 C 
ATOM     18  C   UNL     1       7.492   4.508  16.952  0.00  0.00    +0.000 C 
BRANCH  17  19
ATOM     19  C   UNL     1       6.538   4.568  14.653  0.00  0.00    +0.000 A 
ATOM     20  C   UNL     1       7.560   5.286  14.021  0.00  0.00    +0.000 A 
ATOM     21  C   UNL     1       7.815   5.108  12.661  0.00  0.00    +0.000 A 
ATOM     22  C   UNL     1       7.053   4.204  11.918  0.00  0.00    +0.000 A 
ATOM     23  C   UNL     1       6.048   3.467  12.536  0.00  0.00    +0.000 A 
ATOM     24  C   UNL     1       5.793   3.643  13.897  0.00  0.00    +0.000 A 
ENDBRANCH  17  19
ENDBRANCH  16  17
ENDBRANCH   5  16
TORSDOF 7
ENDMDL
MODEL 8
REMARK VINA RESULT:      -6.9      3.043      4.921
REMARK  Name = 
REMARK  10 active torsions:
REMARK  status: ('A' for Active; 'I' for Inactive)
REMARK    1  A    between atoms: C_1  and  C_2
REMARK    2  A    between atoms: C_2  and  C_3
REMARK    3  A    between atoms: C_3  and  O_4
REMARK    4  A    between atoms: O_4  and  C_5
REMARK    5  A    between atoms: C_7  and  N_8
REMARK    6  A    between atoms: C_9  and  C_10
REMARK    7  A    between atoms: C_13  and  S_14
REMARK    8  A    between atoms: S_14  and  C_15
REMARK    9  A    between atoms: C_15  and  C_16
REMARK   10  A    between atoms: C_15  and  C_17
REMARK                            x       y       z     vdW  Elec       q    Type
REMARK                         _______ _______ _______ _____ _____    ______ ____
ROOT
ATOM      1  C   UNL     1       3.841   6.511  17.593  0.00  0.00    +0.000 A 
ATOM      2  C   UNL     1       3.744   5.667  18.670  0.00  0.00    +0.000 A 
ATOM      3  C   UNL     1       2.908   6.081  19.687  0.00  0.00    +0.000 A 
ATOM      4  N   UNL     1       2.239   7.242  19.629  0.00  0.00    +0.000 NA
ATOM      5  C   UNL     1       2.425   8.006  18.543  0.00  0.00    +0.000 A 
ATOM      6  N   UNL     1       3.203   7.682  17.511  0.00  0.00    +0.000 NA
ENDROOT
BRANCH   3   7
ATOM      7  N   UNL     1       2.778   5.231  20.788  0.00  0.00    +0.000 N 
ATOM      8  C   UNL     1       1.965   4.163  21.007  0.00  0.00    +0.000 C 
ATOM      9  C   UNL     1       0.925   3.713  20.018  0.00  0.00    +0.000 C 
ATOM     10  O   UNL     1       2.129   3.533  22.058  0.00  0.00    +0.000 OA
ATOM     11  H   UNL     1       3.403   5.382  21.571  0.00  0.00    +0.000 HD
ENDBRANCH   3   7
BRANCH   1  12
ATOM     12  O   UNL     1       4.622   6.101  16.528  0.00  0.00    +0.000 OA
BRANCH  12  13
ATOM     13  C   UNL     1       5.945   5.738  16.945  0.00  0.00    +0.000 C 
BRANCH  13  15
ATOM     14  C   UNL     1       5.593   4.360  14.882  0.00  0.00    +0.000 C 
ATOM     15  C   UNL     1       6.624   4.943  15.836  0.00  0.00    +0.000 C 
ENDBRANCH  13  15
ENDBRANCH  12  13
ENDBRANCH   1  12
BRANCH   5  16
ATOM     16  S   UNL     1       1.809   9.663  18.584  0.00  0.00    +0.000 S 
BRANCH  16  17
ATOM     17  C   UNL     1       0.014   9.405  18.912  0.00  0.00    +0.000 C 
ATOM     18  C   UNL     1      -0.953  10.142  17.979  0.00  0.00    +0.000 C 
BRANCH  17  19
ATOM     19  C   UNL     1      -0.281   9.812  20.354  0.00  0.00    +0.000 A 
ATOM     20  C   UNL     1      -0.693  11.118  20.647  0.00  0.00    +0.000 A 
ATOM     21  C   UNL     1      -0.921  11.510  21.966  0.00  0.00    +0.000 A 
ATOM     22  C   UNL     1      -0.747  10.597  23.009  0.00  0.00    +0.000 A 
ATOM     23  C   UNL     1      -0.360   9.290  22.732  0.00  0.00    +0.000 A 
ATOM     24  C   UNL     1      -0.132   8.896  21.412  0.00  0.00    +0.000 A 
ENDBRANCH  17  19
ENDBRANCH  16  17
ENDBRANCH   5  16
TORSDOF 7
ENDMDL
MODEL 9
REMARK VINA RESULT:      -6.9      1.772      4.719
REMARK  Name = 
REMARK  10 active torsions:
REMARK  status: ('A' for Active; 'I' for Inactive)
REMARK    1  A    between atoms: C_1  and  C_2
REMARK    2  A    between atoms: C_2  and  C_3
REMARK    3  A    between atoms: C_3  and  O_4
REMARK    4  A    between atoms: O_4  and  C_5
REMARK    5  A    between atoms: C_7  and  N_8
REMARK    6  A    between atoms: C_9  and  C_10
REMARK    7  A    between atoms: C_13  and  S_14
REMARK    8  A    between atoms: S_14  and  C_15
REMARK    9  A    between atoms: C_15  and  C_16
REMARK   10  A    between atoms: C_15  and  C_17
REMARK                            x       y       z     vdW  Elec       q    Type
REMARK                         _______ _______ _______ _____ _____    ______ ____
ROOT
ATOM      1  C   UNL     1       6.704   5.568  15.874  0.00  0.00    +0.000 A 
ATOM      2  C   UNL     1       7.102   4.874  14.760  0.00  0.00    +0.000 A 
ATOM      3  C   UNL     1       6.250   3.874  14.337  0.00  0.00    +0.000 A 
ATOM      4  N   UNL     1       5.108   3.593  14.982  0.00  0.00    +0.000 NA
ATOM      5  C   UNL     1       4.826   4.315  16.077  0.00  0.00    +0.000 A 
ATOM      6  N   UNL     1       5.583   5.303  16.551  0.00  0.00    +0.000 NA
ENDROOT
BRANCH   3   7
ATOM      7  N   UNL     1       6.622   3.164  13.194  0.00  0.00    +0.000 N 
ATOM      8  C   UNL     1       5.969   2.940  12.023  0.00  0.00    +0.000 C 
ATOM      9  C   UNL     1       4.569   3.423  11.764  0.00  0.00    +0.000 C 
ATOM     10  O   UNL     1       6.586   2.338  11.136  0.00  0.00    +0.000 OA
ATOM     11  H   UNL     1       7.549   2.753  13.181  0.00  0.00    +0.000 HD
ENDBRANCH   3   7
BRANCH   1  12
ATOM     12  O   UNL     1       7.503   6.617  16.293  0.00  0.00    +0.000 OA
BRANCH  12  13
ATOM     13  C   UNL     1       7.088   7.129  17.567  0.00  0.00    +0.000 C 
BRANCH  13  15
ATOM     14  C   UNL     1       7.454   5.677  19.576  0.00  0.00    +0.000 C 
ATOM     15  C   UNL     1       8.083   6.693  18.635  0.00  0.00    +0.000 C 
ENDBRANCH  13  15
ENDBRANCH  12  13
ENDBRANCH   1  12
BRANCH   5  16
ATOM     16  S   UNL     1       3.502   3.762  17.112  0.00  0.00    +0.000 S 
BRANCH  16  17
ATOM     17  C   UNL     1       4.121   4.180  18.795  0.00  0.00    +0.000 C 
ATOM     18  C   UNL     1       4.200   3.017  19.791  0.00  0.00    +0.000 C 
BRANCH  17  19
ATOM     19  C   UNL     1       3.234   5.276  19.383  0.00  0.00    +0.000 A 
ATOM     20  C   UNL     1       2.450   5.017  20.513  0.00  0.00    +0.000 A 
ATOM     21  C   UNL     1       1.604   5.998  21.029  0.00  0.00    +0.000 A 
ATOM     22  C   UNL     1       1.537   7.255  20.423  0.00  0.00    +0.000 A 
ATOM     23  C   UNL     1       2.327   7.535  19.313  0.00  0.00    +0.000 A 
ATOM     24  C   UNL     1       3.175   6.553  18.796  0.00  0.00    +0.000 A 
ENDBRANCH  17  19
ENDBRANCH  16  17
ENDBRANCH   5  16
TORSDOF 7
ENDMDL
