MODEL 1
REMARK VINA RESULT:      -7.9      0.000      0.000
REMARK  Name = 
REMARK  14 active torsions:
REMARK  status: ('A' for Active; 'I' for Inactive)
REMARK    1  A    between atoms: C_1  and  C_2
REMARK    2  A    between atoms: C_2  and  C_3
REMARK    3  A    between atoms: C_7  and  O_8
REMARK    4  A    between atoms: O_8  and  C_9
REMARK    5  A    between atoms: C_14  and  S_15
REMARK    6  A    between atoms: S_15  and  C_16
REMARK    7  A    between atoms: C_16  and  C_17
REMARK    8  A    between atoms: N_19  and  C_20
REMARK    9  A    between atoms: C_22  and  O_23
REMARK   10  A    between atoms: O_23  and  C_24
REMARK   11  A    between atoms: C_25  and  O_26
REMARK   12  A    between atoms: O_26  and  C_27
REMARK   13  A    between atoms: C_29  and  C_30
REMARK   14  A    between atoms: C_30  and  O_32
REMARK                            x       y       z     vdW  Elec       q    Type
REMARK                         _______ _______ _______ _____ _____    ______ ____
ROOT
ATOM      1  C   UNL     1       2.214   8.238  18.446  0.00  0.00    +0.000 C 
ATOM      2  O   UNL     1       2.318   8.663  17.297  0.00  0.00    +0.000 OA
ATOM      3  N   UNL     1       2.802   7.052  18.883  0.00  0.00    +0.000 N 
ATOM      4  H   UNL     1       2.366   6.615  19.696  0.00  0.00    +0.000 HD
ENDROOT
BRANCH   3   5
ATOM      5  C   UNL     1       3.657   6.265  18.071  0.00  0.00    +0.000 A 
ATOM      6  C   UNL     1       4.904   6.776  17.690  0.00  0.00    +0.000 A 
ATOM      7  C   UNL     1       5.805   6.009  16.940  0.00  0.00    +0.000 A 
ATOM      8  C   UNL     1       5.445   4.715  16.521  0.00  0.00    +0.000 A 
ATOM      9  C   UNL     1       4.201   4.200  16.897  0.00  0.00    +0.000 A 
ATOM     10  C   UNL     1       3.314   4.964  17.674  0.00  0.00    +0.000 A 
BRANCH   7  11
ATOM     11  O   UNL     1       7.045   6.465  16.559  0.00  0.00    +0.000 OA
ATOM     12  C   UNL     1       7.595   7.523  17.338  0.00  0.00    +0.000 C 
ENDBRANCH   7  11
BRANCH   8  13
ATOM     13  O   UNL     1       6.365   4.034  15.765  0.00  0.00    +0.000 OA
ATOM     14  C   UNL     1       6.128   3.942  14.365  0.00  0.00    +0.000 C 
ENDBRANCH   8  13
BRANCH  10  15
ATOM     15  C   UNL     1       2.000   4.340  17.963  0.00  0.00    +0.000 C 
ATOM     16  O   UNL     1       1.157   4.142  17.106  0.00  0.00    +0.000 OA
BRANCH  15  17
ATOM     17  O   UNL     1       1.809   4.061  19.269  0.00  0.00    +0.000 OA
ATOM     18  H   UNL     1       1.128   4.615  19.703  0.00  0.00    +0.000 HD
ENDBRANCH  15  17
ENDBRANCH  10  15
ENDBRANCH   3   5
BRANCH   1  19
ATOM     19  C   UNL     1       1.406   8.991  19.500  0.00  0.00    +0.000 C 
BRANCH  19  20
ATOM     20  S   UNL     1       1.411  10.763  19.104  0.00  0.00    +0.000 S 
BRANCH  20  30
ATOM     21  C   UNL     1      -0.971  11.775  20.059  0.00  0.00    +0.000 A 
ATOM     22  C   UNL     1      -2.337  12.051  19.933  0.00  0.00    +0.000 A 
ATOM     23  C   UNL     1      -3.017  11.732  18.760  0.00  0.00    +0.000 A 
ATOM     24  C   UNL     1      -4.391  12.006  18.622  0.00  0.00    +0.000 A 
ATOM     25  C   UNL     1      -5.077  11.676  17.455  0.00  0.00    +0.000 A 
ATOM     26  C   UNL     1      -4.374  11.070  16.419  0.00  0.00    +0.000 A 
ATOM     27  C   UNL     1      -2.999  10.801  16.560  0.00  0.00    +0.000 A 
ATOM     28  C   UNL     1      -2.295  11.118  17.717  0.00  0.00    +0.000 A 
ATOM     29  N   UNL     1      -0.974  10.841  17.822  0.00  0.00    +0.000 NA
ATOM     30  C   UNL     1      -0.333  11.158  18.976  0.00  0.00    +0.000 A 
BRANCH  21  32
ATOM     31  C   UNL     1      -0.847  11.283  22.520  0.00  0.00    +0.000 C 
ATOM     32  C   UNL     1      -0.292  12.105  21.366  0.00  0.00    +0.000 C 
ENDBRANCH  21  32
BRANCH  25  33
ATOM     33  O   UNL     1      -6.404  11.995  17.463  0.00  0.00    +0.000 OA
ATOM     34  C   UNL     1      -7.127  11.749  18.662  0.00  0.00    +0.000 C 
ENDBRANCH  25  33
ENDBRANCH  20  30
ENDBRANCH  19  20
ENDBRANCH   1  19
TORSDOF 10
ENDMDL
MODEL 2
REMARK VINA RESULT:      -7.7      3.277     10.148
REMARK  Name = 
REMARK  14 active torsions:
REMARK  status: ('A' for Active; 'I' for Inactive)
REMARK    1  A    between atoms: C_1  and  C_2
REMARK    2  A    between atoms: C_2  and  C_3
REMARK    3  A    between atoms: C_7  and  O_8
REMARK    4  A    between atoms: O_8  and  C_9
REMARK    5  A    between atoms: C_14  and  S_15
REMARK    6  A    between atoms: S_15  and  C_16
REMARK    7  A    between atoms: C_16  and  C_17
REMARK    8  A    between atoms: N_19  and  C_20
REMARK    9  A    between atoms: C_22  and  O_23
REMARK   10  A    between atoms: O_23  and  C_24
REMARK   11  A    between atoms: C_25  and  O_26
REMARK   12  A    between atoms: O_26  and  C_27
REMARK   13  A    between atoms: C_29  and  C_30
REMARK   14  A    between atoms: C_30  and  O_32
REMARK                            x       y       z     vdW  Elec       q    Type
REMARK                         _______ _______ _______ _____ _____    ______ ____
ROOT
ATOM      1  C   UNL     1       0.274   9.904  19.564  0.00  0.00    +0.000 C 
ATOM      2  O   UNL     1      -0.872   9.776  19.139  0.00  0.00    +0.000 OA
ATOM      3  N   UNL     1       0.616  10.758  20.611  0.00  0.00    +0.000 N 
ATOM      4  H   UNL     1       1.589  11.065  20.633  0.00  0.00    +0.000 HD
ENDROOT
BRANCH   3   5
ATOM      5  C   UNL     1      -0.341  11.495  21.355  0.00  0.00    +0.000 A 
ATOM      6  C   UNL     1      -0.784  12.731  20.868  0.00  0.00    +0.000 A 
ATOM      7  C   UNL     1      -1.772  13.464  21.537  0.00  0.00    +0.000 A 
ATOM      8  C   UNL     1      -2.307  12.978  22.745  0.00  0.00    +0.000 A 
ATOM      9  C   UNL     1      -1.867  11.746  23.237  0.00  0.00    +0.000 A 
ATOM     10  C   UNL     1      -0.897  11.002  22.544  0.00  0.00    +0.000 A 
BRANCH   7  11
ATOM     11  O   UNL     1      -2.248  14.672  21.086  0.00  0.00    +0.000 OA
ATOM     12  C   UNL     1      -1.300  15.731  21.000  0.00  0.00    +0.000 C 
ENDBRANCH   7  11
BRANCH   8  13
ATOM     13  O   UNL     1      -3.249  13.763  23.362  0.00  0.00    +0.000 OA
ATOM     14  C   UNL     1      -4.539  13.200  23.573  0.00  0.00    +0.000 C 
ENDBRANCH   8  13
BRANCH  10  15
ATOM     15  C   UNL     1      -0.462   9.739  23.189  0.00  0.00    +0.000 C 
ATOM     16  O   UNL     1       0.315   9.706  24.126  0.00  0.00    +0.000 OA
BRANCH  15  17
ATOM     17  O   UNL     1      -0.971   8.633  22.607  0.00  0.00    +0.000 OA
ATOM     18  H   UNL     1      -1.939   8.665  22.460  0.00  0.00    +0.000 HD
ENDBRANCH  15  17
ENDBRANCH  10  15
ENDBRANCH   3   5
BRANCH   1  19
ATOM     19  C   UNL     1       1.437   9.126  18.952  0.00  0.00    +0.000 C 
BRANCH  19  20
ATOM     20  S   UNL     1       1.881   7.752  20.053  0.00  0.00    +0.000 S 
BRANCH  20  30
ATOM     21  C   UNL     1       2.479   5.228  19.113  0.00  0.00    +0.000 A 
ATOM     22  C   UNL     1       3.157   4.357  18.253  0.00  0.00    +0.000 A 
ATOM     23  C   UNL     1       4.014   4.855  17.274  0.00  0.00    +0.000 A 
ATOM     24  C   UNL     1       4.701   3.988  16.404  0.00  0.00    +0.000 A 
ATOM     25  C   UNL     1       5.569   4.483  15.432  0.00  0.00    +0.000 A 
ATOM     26  C   UNL     1       5.742   5.860  15.334  0.00  0.00    +0.000 A 
ATOM     27  C   UNL     1       5.050   6.723  16.204  0.00  0.00    +0.000 A 
ATOM     28  C   UNL     1       4.182   6.251  17.184  0.00  0.00    +0.000 A 
ATOM     29  N   UNL     1       3.536   7.109  18.008  0.00  0.00    +0.000 NA
ATOM     30  C   UNL     1       2.710   6.601  18.957  0.00  0.00    +0.000 A 
BRANCH  21  32
ATOM     31  C   UNL     1       2.293   3.518  20.943  0.00  0.00    +0.000 C 
ATOM     32  C   UNL     1       1.594   4.634  20.181  0.00  0.00    +0.000 C 
ENDBRANCH  21  32
BRANCH  25  33
ATOM     33  O   UNL     1       6.169   3.528  14.663  0.00  0.00    +0.000 OA
ATOM     34  C   UNL     1       6.021   3.637  13.253  0.00  0.00    +0.000 C 
ENDBRANCH  25  33
ENDBRANCH  20  30
ENDBRANCH  19  20
ENDBRANCH   1  19
TORSDOF 10
ENDMDL
MODEL 3
REMARK VINA RESULT:      -7.7      3.114      9.354
REMARK  Name = 
REMARK  14 active torsions:
REMARK  status: ('A' for Active; 'I' for Inactive)
REMARK    1  A    between atoms: C_1  and  C_2
REMARK    2  A    between atoms: C_2  and  C_3
REMARK    3  A    between atoms: C_7  and  O_8
REMARK    4  A    between atoms: O_8  and  C_9
REMARK    5  A    between atoms: C_14  and  S_15
REMARK    6  A    between atoms: S_15  and  C_16
REMARK    7  A    between atoms: C_16  and  C_17
REMARK    8  A    between atoms: N_19  and  C_20
REMARK    9  A    between atoms: C_22  and  O_23
REMARK   10  A    between atoms: O_23  and  C_24
REMARK   11  A    between atoms: C_25  and  O_26
REMARK   12  A    between atoms: O_26  and  C_27
REMARK   13  A    between atoms: C_29  and  C_30
REMARK   14  A    between atoms: C_30  and  O_32
REMARK                            x       y       z     vdW  Elec       q    Type
REMARK                         _______ _______ _______ _____ _____    ______ ____
ROOT
ATOM      1  C   UNL     1       1.811   5.238  21.000  0.00  0.00    +0.000 C 
ATOM      2  O   UNL     1       0.742   4.965  20.457  0.00  0.00    +0.000 OA
ATOM      3  N   UNL     1       2.411   6.494  20.928  0.00  0.00    +0.000 N 
ATOM      4  H   UNL     1       3.421   6.512  21.076  0.00  0.00    +0.000 HD
ENDROOT
BRANCH   3   5
ATOM      5  C   UNL     1       1.802   7.610  20.299  0.00  0.00    +0.000 A 
ATOM      6  C   UNL     1       1.042   8.500  21.067  0.00  0.00    +0.000 A 
ATOM      7  C   UNL     1       0.474   9.649  20.500  0.00  0.00    +0.000 A 
ATOM      8  C   UNL     1       0.629   9.900  19.125  0.00  0.00    +0.000 A 
ATOM      9  C   UNL     1       1.386   9.014  18.352  0.00  0.00    +0.000 A 
ATOM     10  C   UNL     1       1.977   7.881  18.934  0.00  0.00    +0.000 A 
BRANCH   7  11
ATOM     11  O   UNL     1      -0.265  10.557  21.221  0.00  0.00    +0.000 OA
ATOM     12  C   UNL     1      -0.556  10.205  22.570  0.00  0.00    +0.000 C 
ENDBRANCH   7  11
BRANCH   8  13
ATOM     13  O   UNL     1       0.021  11.027  18.632  0.00  0.00    +0.000 OA
ATOM     14  C   UNL     1      -1.250  10.871  18.010  0.00  0.00    +0.000 C 
ENDBRANCH   8  13
BRANCH  10  15
ATOM     15  C   UNL     1       2.706   6.980  18.009  0.00  0.00    +0.000 C 
ATOM     16  O   UNL     1       2.276   5.894  17.664  0.00  0.00    +0.000 OA
BRANCH  15  17
ATOM     17  O   UNL     1       3.910   7.456  17.627  0.00  0.00    +0.000 OA
ATOM     18  H   UNL     1       4.316   6.969  16.881  0.00  0.00    +0.000 HD
ENDBRANCH  15  17
ENDBRANCH  10  15
ENDBRANCH   3   5
BRANCH   1  19
ATOM     19  C   UNL     1       2.582   4.194  21.803  0.00  0.00    +0.000 C 
BRANCH  19  20
ATOM     20  S   UNL     1       2.723   2.671  20.824  0.00  0.00    +0.000 S 
BRANCH  20  30
ATOM     21  C   UNL     1       3.272   2.735  18.121  0.00  0.00    +0.000 A 
ATOM     22  C   UNL     1       4.035   3.147  17.023  0.00  0.00    +0.000 A 
ATOM     23  C   UNL     1       5.125   3.996  17.200  0.00  0.00    +0.000 A 
ATOM     24  C   UNL     1       5.901   4.417  16.102  0.00  0.00    +0.000 A 
ATOM     25  C   UNL     1       7.000   5.256  16.277  0.00  0.00    +0.000 A 
ATOM     26  C   UNL     1       7.318   5.676  17.565  0.00  0.00    +0.000 A 
ATOM     27  C   UNL     1       6.538   5.255  18.658  0.00  0.00    +0.000 A 
ATOM     28  C   UNL     1       5.439   4.415  18.508  0.00  0.00    +0.000 A 
ATOM     29  N   UNL     1       4.713   4.025  19.582  0.00  0.00    +0.000 NA
ATOM     30  C   UNL     1       3.658   3.195  19.387  0.00  0.00    +0.000 A 
BRANCH  21  32
ATOM     31  C   UNL     1       0.807   2.339  18.399  0.00  0.00    +0.000 C 
ATOM     32  C   UNL     1       2.126   1.784  17.879  0.00  0.00    +0.000 C 
ENDBRANCH  21  32
BRANCH  25  33
ATOM     33  O   UNL     1       7.660   5.579  15.127  0.00  0.00    +0.000 OA
ATOM     34  C   UNL     1       7.198   4.985  13.921  0.00  0.00    +0.000 C 
ENDBRANCH  25  33
ENDBRANCH  20  30
ENDBRANCH  19  20
ENDBRANCH   1  19
TORSDOF 10
ENDMDL
MODEL 4
REMARK VINA RESULT:      -7.6      1.971      3.163
REMARK  Name = 
REMARK  14 active torsions:
REMARK  status: ('A' for Active; 'I' for Inactive)
REMARK    1  A    between atoms: C_1  and  C_2
REMARK    2  A    between atoms: C_2  and  C_3
REMARK    3  A    between atoms: C_7  and  O_8
REMARK    4  A    between atoms: O_8  and  C_9
REMARK    5  A    between atoms: C_14  and  S_15
REMARK    6  A    between atoms: S_15  and  C_16
REMARK    7  A    between atoms: C_16  and  C_17
REMARK    8  A    between atoms: N_19  and  C_20
REMARK    9  A    between atoms: C_22  and  O_23
REMARK   10  A    between atoms: O_23  and  C_24
REMARK   11  A    between atoms: C_25  and  O_26
REMARK   12  A    between atoms: O_26  and  C_27
REMARK   13  A    between atoms: C_29  and  C_30
REMARK   14  A    between atoms: C_30  and  O_32
REMARK                            x       y       z     vdW  Elec       q    Type
REMARK                         _______ _______ _______ _____ _____    ______ ____
ROOT
ATOM      1  C   UNL     1       2.022   8.473  18.373  0.00  0.00    +0.000 C 
ATOM      2  O   UNL     1       2.258   8.927  17.255  0.00  0.00    +0.000 OA
ATOM      3  N   UNL     1       2.504   7.244  18.821  0.00  0.00    +0.000 N 
ATOM      4  H   UNL     1       1.970   6.806  19.572  0.00  0.00    +0.000 HD
ENDROOT
BRANCH   3   5
ATOM      5  C   UNL     1       3.393   6.438  18.066  0.00  0.00    +0.000 A 
ATOM      6  C   UNL     1       4.614   6.976  17.639  0.00  0.00    +0.000 A 
ATOM      7  C   UNL     1       5.549   6.197  16.945  0.00  0.00    +0.000 A 
ATOM      8  C   UNL     1       5.248   4.859  16.628  0.00  0.00    +0.000 A 
ATOM      9  C   UNL     1       4.030   4.317  17.050  0.00  0.00    +0.000 A 
ATOM     10  C   UNL     1       3.111   5.096  17.772  0.00  0.00    +0.000 A 
BRANCH   7  11
ATOM     11  O   UNL     1       6.765   6.680  16.523  0.00  0.00    +0.000 OA
ATOM     12  C   UNL     1       7.593   7.265  17.524  0.00  0.00    +0.000 C 
ENDBRANCH   7  11
BRANCH   8  13
ATOM     13  O   UNL     1       6.198   4.166  15.920  0.00  0.00    +0.000 OA
ATOM     14  C   UNL     1       6.047   4.100  14.507  0.00  0.00    +0.000 C 
ENDBRANCH   8  13
BRANCH  10  15
ATOM     15  C   UNL     1       1.828   4.436  18.115  0.00  0.00    +0.000 C 
ATOM     16  O   UNL     1       1.104   3.919  17.283  0.00  0.00    +0.000 OA
BRANCH  15  17
ATOM     17  O   UNL     1       1.517   4.507  19.426  0.00  0.00    +0.000 OA
ATOM     18  H   UNL     1       0.711   4.009  19.676  0.00  0.00    +0.000 HD
ENDBRANCH  15  17
ENDBRANCH  10  15
ENDBRANCH   3   5
BRANCH   1  19
ATOM     19  C   UNL     1       1.154   9.235  19.371  0.00  0.00    +0.000 C 
BRANCH  19  20
ATOM     20  S   UNL     1       1.118  10.992  18.913  0.00  0.00    +0.000 S 
BRANCH  20  30
ATOM     21  C   UNL     1      -1.581  11.540  19.069  0.00  0.00    +0.000 A 
ATOM     22  C   UNL     1      -2.705  12.041  19.734  0.00  0.00    +0.000 A 
ATOM     23  C   UNL     1      -2.590  12.561  21.021  0.00  0.00    +0.000 A 
ATOM     24  C   UNL     1      -3.715  13.068  21.701  0.00  0.00    +0.000 A 
ATOM     25  C   UNL     1      -3.601  13.600  22.984  0.00  0.00    +0.000 A 
ATOM     26  C   UNL     1      -2.348  13.619  23.587  0.00  0.00    +0.000 A 
ATOM     27  C   UNL     1      -1.227  13.109  22.906  0.00  0.00    +0.000 A 
ATOM     28  C   UNL     1      -1.316  12.576  21.623  0.00  0.00    +0.000 A 
ATOM     29  N   UNL     1      -0.217  12.098  20.994  0.00  0.00    +0.000 NA
ATOM     30  C   UNL     1      -0.352  11.599  19.739  0.00  0.00    +0.000 A 
BRANCH  21  32
ATOM     31  C   UNL     1      -2.860   9.984  17.569  0.00  0.00    +0.000 C 
ATOM     32  C   UNL     1      -1.754  11.025  17.661  0.00  0.00    +0.000 C 
ENDBRANCH  21  32
BRANCH  25  33
ATOM     33  O   UNL     1      -4.771  14.057  23.517  0.00  0.00    +0.000 OA
ATOM     34  C   UNL     1      -5.771  13.094  23.821  0.00  0.00    +0.000 C 
ENDBRANCH  25  33
ENDBRANCH  20  30
ENDBRANCH  19  20
ENDBRANCH   1  19
TORSDOF 10
ENDMDL
MODEL 5
REMARK VINA RESULT:      -7.6      5.796      9.952
REMARK  Name = 
REMARK  14 active torsions:
REMARK  status: ('A' for Active; 'I' for Inactive)
REMARK    1  A    between atoms: C_1  and  C_2
REMARK    2  A    between atoms: C_2  and  C_3
REMARK    3  A    between atoms: C_7  and  O_8
REMARK    4  A    between atoms: O_8  and  C_9
REMARK    5  A    between atoms: C_14  and  S_15
REMARK    6  A    between atoms: S_15  and  C_16
REMARK    7  A    between atoms: C_16  and  C_17
REMARK    8  A    between atoms: N_19  and  C_20
REMARK    9  A    between atoms: C_22  and  O_23
REMARK   10  A    between atoms: O_23  and  C_24
REMARK   11  A    between atoms: C_25  and  O_26
REMARK   12  A    between atoms: O_26  and  C_27
REMARK   13  A    between atoms: C_29  and  C_30
REMARK   14  A    between atoms: C_30  and  O_32
REMARK                            x       y       z     vdW  Elec       q    Type
REMARK                         _______ _______ _______ _____ _____    ______ ____
ROOT
ATOM      1  C   UNL     1       7.523   7.718  17.905  0.00  0.00    +0.000 C 
ATOM      2  O   UNL     1       7.918   6.836  18.665  0.00  0.00    +0.000 OA
ATOM      3  N   UNL     1       6.398   7.585  17.094  0.00  0.00    +0.000 N 
ATOM      4  H   UNL     1       6.375   8.183  16.266  0.00  0.00    +0.000 HD
ENDROOT
BRANCH   3   5
ATOM      5  C   UNL     1       5.540   6.456  17.134  0.00  0.00    +0.000 A 
ATOM      6  C   UNL     1       4.290   6.566  17.755  0.00  0.00    +0.000 A 
ATOM      7  C   UNL     1       3.387   5.495  17.764  0.00  0.00    +0.000 A 
ATOM      8  C   UNL     1       3.749   4.269  17.177  0.00  0.00    +0.000 A 
ATOM      9  C   UNL     1       4.996   4.153  16.557  0.00  0.00    +0.000 A 
ATOM     10  C   UNL     1       5.885   5.240  16.525  0.00  0.00    +0.000 A 
BRANCH   7  11
ATOM     11  O   UNL     1       2.144   5.565  18.347  0.00  0.00    +0.000 OA
ATOM     12  C   UNL     1       2.110   5.955  19.716  0.00  0.00    +0.000 C 
ENDBRANCH   7  11
BRANCH   8  13
ATOM     13  O   UNL     1       2.826   3.255  17.250  0.00  0.00    +0.000 OA
ATOM     14  C   UNL     1       3.222   2.050  17.895  0.00  0.00    +0.000 C 
ENDBRANCH   8  13
BRANCH  10  15
ATOM     15  C   UNL     1       7.202   4.986  15.894  0.00  0.00    +0.000 C 
ATOM     16  O   UNL     1       8.056   4.280  16.401  0.00  0.00    +0.000 OA
BRANCH  15  17
ATOM     17  O   UNL     1       7.382   5.649  14.733  0.00  0.00    +0.000 OA
ATOM     18  H   UNL     1       6.568   6.058  14.374  0.00  0.00    +0.000 HD
ENDBRANCH  15  17
ENDBRANCH  10  15
ENDBRANCH   3   5
BRANCH   1  19
ATOM     19  C   UNL     1       8.261   9.049  17.782  0.00  0.00    +0.000 C 
BRANCH  19  20
ATOM     20  S   UNL     1       9.126   9.398  19.340  0.00  0.00    +0.000 S 
BRANCH  20  30
ATOM     21  C   UNL     1       9.472  11.991  20.217  0.00  0.00    +0.000 A 
ATOM     22  C   UNL     1       9.869  13.318  20.026  0.00  0.00    +0.000 A 
ATOM     23  C   UNL     1      10.425  13.722  18.815  0.00  0.00    +0.000 A 
ATOM     24  C   UNL     1      10.828  15.056  18.611  0.00  0.00    +0.000 A 
ATOM     25  C   UNL     1      11.373  15.465  17.395  0.00  0.00    +0.000 A 
ATOM     26  C   UNL     1      11.517  14.525  16.380  0.00  0.00    +0.000 A 
ATOM     27  C   UNL     1      11.116  13.192  16.590  0.00  0.00    +0.000 A 
ATOM     28  C   UNL     1      10.566  12.761  17.793  0.00  0.00    +0.000 A 
ATOM     29  N   UNL     1      10.186  11.473  17.960  0.00  0.00    +0.000 NA
ATOM     30  C   UNL     1       9.643  11.104  19.147  0.00  0.00    +0.000 A 
BRANCH  21  32
ATOM     31  C   UNL     1       8.602  12.832  22.419  0.00  0.00    +0.000 C 
ATOM     32  C   UNL     1       8.839  11.616  21.535  0.00  0.00    +0.000 C 
ENDBRANCH  21  32
BRANCH  25  33
ATOM     33  O   UNL     1      11.714  16.786  17.339  0.00  0.00    +0.000 OA
ATOM     34  C   UNL     1      10.657  17.735  17.386  0.00  0.00    +0.000 C 
ENDBRANCH  25  33
ENDBRANCH  20  30
ENDBRANCH  19  20
ENDBRANCH   1  19
TORSDOF 10
ENDMDL
MODEL 6
REMARK VINA RESULT:      -7.5      0.810      1.024
REMARK  Name = 
REMARK  14 active torsions:
REMARK  status: ('A' for Active; 'I' for Inactive)
REMARK    1  A    between atoms: C_1  and  C_2
REMARK    2  A    between atoms: C_2  and  C_3
REMARK    3  A    between atoms: C_7  and  O_8
REMARK    4  A    between atoms: O_8  and  C_9
REMARK    5  A    between atoms: C_14  and  S_15
REMARK    6  A    between atoms: S_15  and  C_16
REMARK    7  A    between atoms: C_16  and  C_17
REMARK    8  A    between atoms: N_19  and  C_20
REMARK    9  A    between atoms: C_22  and  O_23
REMARK   10  A    between atoms: O_23  and  C_24
REMARK   11  A    between atoms: C_25  and  O_26
REMARK   12  A    between atoms: O_26  and  C_27
REMARK   13  A    between atoms: C_29  and  C_30
REMARK   14  A    between atoms: C_30  and  O_32
REMARK                            x       y       z     vdW  Elec       q    Type
REMARK                         _______ _______ _______ _____ _____    ______ ____
ROOT
ATOM      1  C   UNL     1       2.215   7.576  19.120  0.00  0.00    +0.000 C 
ATOM      2  O   UNL     1       2.064   8.029  17.987  0.00  0.00    +0.000 OA
ATOM      3  N   UNL     1       3.065   6.512  19.417  0.00  0.00    +0.000 N 
ATOM      4  H   UNL     1       2.843   5.991  20.266  0.00  0.00    +0.000 HD
ENDROOT
BRANCH   3   5
ATOM      5  C   UNL     1       3.913   5.906  18.456  0.00  0.00    +0.000 A 
ATOM      6  C   UNL     1       5.071   6.576  18.042  0.00  0.00    +0.000 A 
ATOM      7  C   UNL     1       5.969   5.988  17.142  0.00  0.00    +0.000 A 
ATOM      8  C   UNL     1       5.691   4.718  16.604  0.00  0.00    +0.000 A 
ATOM      9  C   UNL     1       4.535   4.045  17.011  0.00  0.00    +0.000 A 
ATOM     10  C   UNL     1       3.655   4.628  17.938  0.00  0.00    +0.000 A 
BRANCH   7  11
ATOM     11  O   UNL     1       7.125   6.603  16.723  0.00  0.00    +0.000 OA
ATOM     12  C   UNL     1       7.524   7.760  17.452  0.00  0.00    +0.000 C 
ENDBRANCH   7  11
BRANCH   8  13
ATOM     13  O   UNL     1       6.599   4.217  15.705  0.00  0.00    +0.000 OA
ATOM     14  C   UNL     1       6.164   4.032  14.363  0.00  0.00    +0.000 C 
ENDBRANCH   8  13
BRANCH  10  15
ATOM     15  C   UNL     1       2.432   3.851  18.252  0.00  0.00    +0.000 C 
ATOM     16  O   UNL     1       2.168   3.452  19.372  0.00  0.00    +0.000 OA
BRANCH  15  17
ATOM     17  O   UNL     1       1.667   3.586  17.172  0.00  0.00    +0.000 OA
ATOM     18  H   UNL     1       2.164   3.546  16.328  0.00  0.00    +0.000 HD
ENDBRANCH  15  17
ENDBRANCH  10  15
ENDBRANCH   3   5
BRANCH   1  19
ATOM     19  C   UNL     1       1.455   8.154  20.312  0.00  0.00    +0.000 C 
BRANCH  19  20
ATOM     20  S   UNL     1       1.618   9.962  20.305  0.00  0.00    +0.000 S 
BRANCH  20  30
ATOM     21  C   UNL     1      -0.739  11.383  20.490  0.00  0.00    +0.000 A 
ATOM     22  C   UNL     1      -1.987  11.779  19.997  0.00  0.00    +0.000 A 
ATOM     23  C   UNL     1      -2.432  11.326  18.757  0.00  0.00    +0.000 A 
ATOM     24  C   UNL     1      -3.687  11.717  18.250  0.00  0.00    +0.000 A 
ATOM     25  C   UNL     1      -4.139  11.256  17.016  0.00  0.00    +0.000 A 
ATOM     26  C   UNL     1      -3.323  10.398  16.286  0.00  0.00    +0.000 A 
ATOM     27  C   UNL     1      -2.069  10.013  16.794  0.00  0.00    +0.000 A 
ATOM     28  C   UNL     1      -1.597  10.458  18.026  0.00  0.00    +0.000 A 
ATOM     29  N   UNL     1      -0.388  10.063  18.488  0.00  0.00    +0.000 NA
ATOM     30  C   UNL     1       0.023  10.514  19.700  0.00  0.00    +0.000 A 
BRANCH  21  32
ATOM     31  C   UNL     1      -1.007  11.094  22.971  0.00  0.00    +0.000 C 
ATOM     32  C   UNL     1      -0.323  11.872  21.856  0.00  0.00    +0.000 C 
ENDBRANCH  21  32
BRANCH  25  33
ATOM     33  O   UNL     1      -5.374  11.713  16.654  0.00  0.00    +0.000 OA
ATOM     34  C   UNL     1      -6.136  12.389  17.645  0.00  0.00    +0.000 C 
ENDBRANCH  25  33
ENDBRANCH  20  30
ENDBRANCH  19  20
ENDBRANCH   1  19
TORSDOF 10
ENDMDL
MODEL 7
REMARK VINA RESULT:      -7.5      2.954      4.720
REMARK  Name = 
REMARK  14 active torsions:
REMARK  status: ('A' for Active; 'I' for Inactive)
REMARK    1  A    between atoms: C_1  and  C_2
REMARK    2  A    between atoms: C_2  and  C_3
REMARK    3  A    between atoms: C_7  and  O_8
REMARK    4  A    between atoms: O_8  and  C_9
REMARK    5  A    between atoms: C_14  and  S_15
REMARK    6  A    between atoms: S_15  and  C_16
REMARK    7  A    between atoms: C_16  and  C_17
REMARK    8  A    between atoms: N_19  and  C_20
REMARK    9  A    between atoms: C_22  and  O_23
REMARK   10  A    between atoms: O_23  and  C_24
REMARK   11  A    between atoms: C_25  and  O_26
REMARK   12  A    between atoms: O_26  and  C_27
REMARK   13  A    between atoms: C_29  and  C_30
REMARK   14  A    between atoms: C_30  and  O_32
REMARK                            x       y       z     vdW  Elec       q    Type
REMARK                         _______ _______ _______ _____ _____    ______ ____
ROOT
ATOM      1  C   UNL     1       0.845   8.411  21.291  0.00  0.00    +0.000 C 
ATOM      2  O   UNL     1      -0.284   7.929  21.222  0.00  0.00    +0.000 OA
ATOM      3  N   UNL     1       1.981   7.783  20.782  0.00  0.00    +0.000 N 
ATOM      4  H   UNL     1       2.868   8.062  21.204  0.00  0.00    +0.000 HD
ENDROOT
BRANCH   3   5
ATOM      5  C   UNL     1       1.935   6.570  20.050  0.00  0.00    +0.000 A 
ATOM      6  C   UNL     1       1.468   5.408  20.676  0.00  0.00    +0.000 A 
ATOM      7  C   UNL     1       1.347   4.202  19.974  0.00  0.00    +0.000 A 
ATOM      8  C   UNL     1       1.740   4.135  18.624  0.00  0.00    +0.000 A 
ATOM      9  C   UNL     1       2.209   5.291  17.995  0.00  0.00    +0.000 A 
ATOM     10  C   UNL     1       2.299   6.505  18.697  0.00  0.00    +0.000 A 
BRANCH   7  11
ATOM     11  O   UNL     1       0.877   3.043  20.545  0.00  0.00    +0.000 OA
ATOM     12  C   UNL     1       1.615   2.542  21.655  0.00  0.00    +0.000 C 
ENDBRANCH   7  11
BRANCH   8  13
ATOM     13  O   UNL     1       1.623   2.914  18.008  0.00  0.00    +0.000 OA
ATOM     14  C   UNL     1       2.819   2.182  17.765  0.00  0.00    +0.000 C 
ENDBRANCH   8  13
BRANCH  10  15
ATOM     15  C   UNL     1       2.866   7.651  17.947  0.00  0.00    +0.000 C 
ATOM     16  O   UNL     1       3.990   7.645  17.476  0.00  0.00    +0.000 OA
BRANCH  15  17
ATOM     17  O   UNL     1       2.039   8.715  17.878  0.00  0.00    +0.000 OA
ATOM     18  H   UNL     1       1.110   8.517  18.118  0.00  0.00    +0.000 HD
ENDBRANCH  15  17
ENDBRANCH  10  15
ENDBRANCH   3   5
BRANCH   1  19
ATOM     19  C   UNL     1       1.093   9.758  21.965  0.00  0.00    +0.000 C 
BRANCH  19  20
ATOM     20  S   UNL     1       0.926  11.082  20.734  0.00  0.00    +0.000 S 
BRANCH  20  30
ATOM     21  C   UNL     1      -1.453  12.245  19.961  0.00  0.00    +0.000 A 
ATOM     22  C   UNL     1      -2.731  12.745  20.232  0.00  0.00    +0.000 A 
ATOM     23  C   UNL     1      -3.250  12.694  21.524  0.00  0.00    +0.000 A 
ATOM     24  C   UNL     1      -4.535  13.195  21.809  0.00  0.00    +0.000 A 
ATOM     25  C   UNL     1      -5.051  13.156  23.103  0.00  0.00    +0.000 A 
ATOM     26  C   UNL     1      -4.271  12.607  24.115  0.00  0.00    +0.000 A 
ATOM     27  C   UNL     1      -2.988  12.104  23.825  0.00  0.00    +0.000 A 
ATOM     28  C   UNL     1      -2.451  12.135  22.541  0.00  0.00    +0.000 A 
ATOM     29  N   UNL     1      -1.212  11.648  22.297  0.00  0.00    +0.000 NA
ATOM     30  C   UNL     1      -0.725  11.712  21.032  0.00  0.00    +0.000 A 
BRANCH  21  32
ATOM     31  C   UNL     1      -0.295  13.722  18.291  0.00  0.00    +0.000 C 
ATOM     32  C   UNL     1      -0.924  12.361  18.552  0.00  0.00    +0.000 C 
ENDBRANCH  21  32
BRANCH  25  33
ATOM     33  O   UNL     1      -6.305  13.681  23.232  0.00  0.00    +0.000 OA
ATOM     34  C   UNL     1      -7.259  12.920  23.961  0.00  0.00    +0.000 C 
ENDBRANCH  25  33
ENDBRANCH  20  30
ENDBRANCH  19  20
ENDBRANCH   1  19
TORSDOF 10
ENDMDL
MODEL 8
REMARK VINA RESULT:      -7.4      1.447      2.633
REMARK  Name = 
REMARK  14 active torsions:
REMARK  status: ('A' for Active; 'I' for Inactive)
REMARK    1  A    between atoms: C_1  and  C_2
REMARK    2  A    between atoms: C_2  and  C_3
REMARK    3  A    between atoms: C_7  and  O_8
REMARK    4  A    between atoms: O_8  and  C_9
REMARK    5  A    between atoms: C_14  and  S_15
REMARK    6  A    between atoms: S_15  and  C_16
REMARK    7  A    between atoms: C_16  and  C_17
REMARK    8  A    between atoms: N_19  and  C_20
REMARK    9  A    between atoms: C_22  and  O_23
REMARK   10  A    between atoms: O_23  and  C_24
REMARK   11  A    between atoms: C_25  and  O_26
REMARK   12  A    between atoms: O_26  and  C_27
REMARK   13  A    between atoms: C_29  and  C_30
REMARK   14  A    between atoms: C_30  and  O_32
REMARK                            x       y       z     vdW  Elec       q    Type
REMARK                         _______ _______ _______ _____ _____    ______ ____
ROOT
ATOM      1  C   UNL     1       1.993   8.528  18.332  0.00  0.00    +0.000 C 
ATOM      2  O   UNL     1       2.184   8.912  17.180  0.00  0.00    +0.000 OA
ATOM      3  N   UNL     1       2.513   7.339  18.841  0.00  0.00    +0.000 N 
ATOM      4  H   UNL     1       2.012   6.941  19.636  0.00  0.00    +0.000 HD
ENDROOT
BRANCH   3   5
ATOM      5  C   UNL     1       3.393   6.500  18.110  0.00  0.00    +0.000 A 
ATOM      6  C   UNL     1       4.613   7.016  17.656  0.00  0.00    +0.000 A 
ATOM      7  C   UNL     1       5.539   6.207  16.984  0.00  0.00    +0.000 A 
ATOM      8  C   UNL     1       5.229   4.860  16.719  0.00  0.00    +0.000 A 
ATOM      9  C   UNL     1       4.011   4.341  17.168  0.00  0.00    +0.000 A 
ATOM     10  C   UNL     1       3.101   5.150  17.867  0.00  0.00    +0.000 A 
BRANCH   7  11
ATOM     11  O   UNL     1       6.754   6.667  16.536  0.00  0.00    +0.000 OA
ATOM     12  C   UNL     1       7.510   7.450  17.456  0.00  0.00    +0.000 C 
ENDBRANCH   7  11
BRANCH   8  13
ATOM     13  O   UNL     1       6.170   4.136  16.030  0.00  0.00    +0.000 OA
ATOM     14  C   UNL     1       5.983   3.980  14.628  0.00  0.00    +0.000 C 
ENDBRANCH   8  13
BRANCH  10  15
ATOM     15  C   UNL     1       1.817   4.510  18.244  0.00  0.00    +0.000 C 
ATOM     16  O   UNL     1       1.446   4.395  19.398  0.00  0.00    +0.000 OA
BRANCH  15  17
ATOM     17  O   UNL     1       1.126   4.025  17.191  0.00  0.00    +0.000 OA
ATOM     18  H   UNL     1       0.333   4.550  16.955  0.00  0.00    +0.000 HD
ENDBRANCH  15  17
ENDBRANCH  10  15
ENDBRANCH   3   5
BRANCH   1  19
ATOM     19  C   UNL     1       1.144   9.338  19.308  0.00  0.00    +0.000 C 
BRANCH  19  20
ATOM     20  S   UNL     1       1.045  11.056  18.731  0.00  0.00    +0.000 S 
BRANCH  20  30
ATOM     21  C   UNL     1      -1.689  10.962  18.373  0.00  0.00    +0.000 A 
ATOM     22  C   UNL     1      -2.992  11.360  18.688  0.00  0.00    +0.000 A 
ATOM     23  C   UNL     1      -3.222  12.270  19.717  0.00  0.00    +0.000 A 
ATOM     24  C   UNL     1      -4.530  12.680  20.043  0.00  0.00    +0.000 A 
ATOM     25  C   UNL     1      -4.763  13.599  21.064  0.00  0.00    +0.000 A 
ATOM     26  C   UNL     1      -3.673  14.108  21.763  0.00  0.00    +0.000 A 
ATOM     27  C   UNL     1      -2.368  13.693  21.436  0.00  0.00    +0.000 A 
ATOM     28  C   UNL     1      -2.111  12.779  20.419  0.00  0.00    +0.000 A 
ATOM     29  N   UNL     1      -0.843  12.406  20.126  0.00  0.00    +0.000 NA
ATOM     30  C   UNL     1      -0.643  11.521  19.117  0.00  0.00    +0.000 A 
BRANCH  21  32
ATOM     31  C   UNL     1      -2.486  10.254  16.098  0.00  0.00    +0.000 C 
ATOM     32  C   UNL     1      -1.492  10.003  17.224  0.00  0.00    +0.000 C 
ENDBRANCH  21  32
BRANCH  25  33
ATOM     33  O   UNL     1      -6.077  13.906  21.266  0.00  0.00    +0.000 OA
ATOM     34  C   UNL     1      -7.024  12.857  21.114  0.00  0.00    +0.000 C 
ENDBRANCH  25  33
ENDBRANCH  20  30
ENDBRANCH  19  20
ENDBRANCH   1  19
TORSDOF 10
ENDMDL
MODEL 9
REMARK VINA RESULT:      -7.4      2.224      3.614
REMARK  Name = 
REMARK  14 active torsions:
REMARK  status: ('A' for Active; 'I' for Inactive)
REMARK    1  A    between atoms: C_1  and  C_2
REMARK    2  A    between atoms: C_2  and  C_3
REMARK    3  A    between atoms: C_7  and  O_8
REMARK    4  A    between atoms: O_8  and  C_9
REMARK    5  A    between atoms: C_14  and  S_15
REMARK    6  A    between atoms: S_15  and  C_16
REMARK    7  A    between atoms: C_16  and  C_17
REMARK    8  A    between atoms: N_19  and  C_20
REMARK    9  A    between atoms: C_22  and  O_23
REMARK   10  A    between atoms: O_23  and  C_24
REMARK   11  A    between atoms: C_25  and  O_26
REMARK   12  A    between atoms: O_26  and  C_27
REMARK   13  A    between atoms: C_29  and  C_30
REMARK   14  A    between atoms: C_30  and  O_32
REMARK                            x       y       z     vdW  Elec       q    Type
REMARK                         _______ _______ _______ _____ _____    ______ ____
ROOT
ATOM      1  C   UNL     1       0.726   8.519  21.290  0.00  0.00    +0.000 C 
ATOM      2  O   UNL     1      -0.398   8.037  21.160  0.00  0.00    +0.000 OA
ATOM      3  N   UNL     1       1.889   7.884  20.861  0.00  0.00    +0.000 N 
ATOM      4  H   UNL     1       2.749   8.168  21.332  0.00  0.00    +0.000 HD
ENDROOT
BRANCH   3   5
ATOM      5  C   UNL     1       1.886   6.659  20.147  0.00  0.00    +0.000 A 
ATOM      6  C   UNL     1       1.466   5.489  20.792  0.00  0.00    +0.000 A 
ATOM      7  C   UNL     1       1.388   4.269  20.107  0.00  0.00    +0.000 A 
ATOM      8  C   UNL     1       1.777   4.198  18.757  0.00  0.00    +0.000 A 
ATOM      9  C   UNL     1       2.199   5.362  18.108  0.00  0.00    +0.000 A 
ATOM     10  C   UNL     1       2.246   6.588  18.793  0.00  0.00    +0.000 A 
BRANCH   7  11
ATOM     11  O   UNL     1       0.965   3.101  20.696  0.00  0.00    +0.000 OA
ATOM     12  C   UNL     1       1.829   2.542  21.681  0.00  0.00    +0.000 C 
ENDBRANCH   7  11
BRANCH   8  13
ATOM     13  O   UNL     1       1.703   2.965  18.158  0.00  0.00    +0.000 OA
ATOM     14  C   UNL     1       2.928   2.313  17.842  0.00  0.00    +0.000 C 
ENDBRANCH   8  13
BRANCH  10  15
ATOM     15  C   UNL     1       2.766   7.744  18.023  0.00  0.00    +0.000 C 
ATOM     16  O   UNL     1       2.219   8.832  18.009  0.00  0.00    +0.000 OA
BRANCH  15  17
ATOM     17  O   UNL     1       3.872   7.461  17.303  0.00  0.00    +0.000 OA
ATOM     18  H   UNL     1       4.713   7.623  17.779  0.00  0.00    +0.000 HD
ENDBRANCH  15  17
ENDBRANCH  10  15
ENDBRANCH   3   5
BRANCH   1  19
ATOM     19  C   UNL     1       0.934   9.877  21.957  0.00  0.00    +0.000 C 
BRANCH  19  20
ATOM     20  S   UNL     1       1.128  11.149  20.676  0.00  0.00    +0.000 S 
BRANCH  20  30
ATOM     21  C   UNL     1      -1.373  12.263  21.009  0.00  0.00    +0.000 A 
ATOM     22  C   UNL     1      -2.691  12.490  20.598  0.00  0.00    +0.000 A 
ATOM     23  C   UNL     1      -3.154  11.968  19.393  0.00  0.00    +0.000 A 
ATOM     24  C   UNL     1      -4.478  12.191  18.968  0.00  0.00    +0.000 A 
ATOM     25  C   UNL     1      -4.948  11.659  17.769  0.00  0.00    +0.000 A 
ATOM     26  C   UNL     1      -4.079  10.902  16.991  0.00  0.00    +0.000 A 
ATOM     27  C   UNL     1      -2.755  10.685  17.417  0.00  0.00    +0.000 A 
ATOM     28  C   UNL     1      -2.265  11.203  18.612  0.00  0.00    +0.000 A 
ATOM     29  N   UNL     1      -0.988  10.971  18.996  0.00  0.00    +0.000 NA
ATOM     30  C   UNL     1      -0.559  11.486  20.175  0.00  0.00    +0.000 A 
BRANCH  21  32
ATOM     31  C   UNL     1      -0.572  14.294  22.252  0.00  0.00    +0.000 C 
ATOM     32  C   UNL     1      -0.934  12.818  22.342  0.00  0.00    +0.000 C 
ENDBRANCH  21  32
BRANCH  25  33
ATOM     33  O   UNL     1      -6.252  11.952  17.487  0.00  0.00    +0.000 OA
ATOM     34  C   UNL     1      -6.545  13.274  17.055  0.00  0.00    +0.000 C 
ENDBRANCH  25  33
ENDBRANCH  20  30
ENDBRANCH  19  20
ENDBRANCH   1  19
TORSDOF 10
ENDMDL
