MODEL 1
REMARK VINA RESULT:      -7.4      0.000      0.000
REMARK  Name = 
REMARK  3 active torsions:
REMARK  status: ('A' for Active; 'I' for Inactive)
REMARK    1  A    between atoms: C_1  and  N_2
REMARK    2  A    between atoms: C_6  and  C_7
REMARK    3  A    between atoms: N_16  and  C_17
REMARK                            x       y       z     vdW  Elec       q    Type
REMARK                         _______ _______ _______ _____ _____    ______ ____
ROOT
ATOM      1  C   UNL     1       2.734   6.605  19.066  0.00  0.00    +0.000 C 
ATOM      2  O   UNL     1       3.637   6.605  18.234  0.00  0.00    +0.000 OA
ATOM      3  N   UNL     1       2.074   7.790  19.417  0.00  0.00    +0.000 N 
ATOM      4  C   UNL     1       2.254   8.969  18.583  0.00  0.00    +0.000 C 
ATOM      5  C   UNL     1       0.911   9.671  18.385  0.00  0.00    +0.000 C 
ATOM      6  C   UNL     1       0.209  10.003  19.722  0.00  0.00    +0.000 C 
ATOM      7  C   UNL     1       0.143   8.736  20.600  0.00  0.00    +0.000 C 
ATOM      8  C   UNL     1       1.498   8.050  20.735  0.00  0.00    +0.000 C 
ATOM      9  C   UNL     1       0.896  11.141  20.503  0.00  0.00    +0.000 C 
ATOM     10  N   UNL     1       0.909  12.390  19.752  0.00  0.00    +0.000 N 
ATOM     11  C   UNL     1      -0.342  12.827  19.287  0.00  0.00    +0.000 C 
ATOM     12  O   UNL     1      -0.664  13.996  19.088  0.00  0.00    +0.000 OA
ATOM     13  C   UNL     1      -1.279  11.672  18.867  0.00  0.00    +0.000 C 
ATOM     14  O   UNL     1      -1.156  10.408  19.500  0.00  0.00    +0.000 OA
ENDROOT
BRANCH   1  20
ATOM     15  C   UNL     1       1.380   4.261  17.589  0.00  0.00    +0.000 C 
ATOM     16  N   UNL     1       1.664   4.318  19.010  0.00  0.00    +0.000 N 
ATOM     17  C   UNL     1       1.377   3.299  19.885  0.00  0.00    +0.000 A 
ATOM     18  C   UNL     1       1.716   3.714  21.149  0.00  0.00    +0.000 A 
ATOM     19  C   UNL     1       2.215   5.030  21.030  0.00  0.00    +0.000 A 
ATOM     20  C   UNL     1       2.261   5.369  19.682  0.00  0.00    +0.000 A 
ENDBRANCH   1  20
BRANCH  10  21
ATOM     21  C   UNL     1       2.116  13.145  19.571  0.00  0.00    +0.000 A 
ATOM     22  C   UNL     1       2.784  13.792  20.603  0.00  0.00    +0.000 A 
ATOM     23  N   UNL     1       3.874  14.584  20.446  0.00  0.00    +0.000 NA
ATOM     24  C   UNL     1       4.313  14.738  19.196  0.00  0.00    +0.000 A 
ATOM     25  N   UNL     1       3.774  14.178  18.108  0.00  0.00    +0.000 NA
ATOM     26  C   UNL     1       2.690  13.398  18.330  0.00  0.00    +0.000 A 
ENDBRANCH  10  21
TORSDOF 2
ENDMDL
MODEL 2
REMARK VINA RESULT:      -7.3      1.024      1.638
REMARK  Name = 
REMARK  3 active torsions:
REMARK  status: ('A' for Active; 'I' for Inactive)
REMARK    1  A    between atoms: C_1  and  N_2
REMARK    2  A    between atoms: C_6  and  C_7
REMARK    3  A    between atoms: N_16  and  C_17
REMARK                            x       y       z     vdW  Elec       q    Type
REMARK                         _______ _______ _______ _____ _____    ______ ____
ROOT
ATOM      1  C   UNL     1       3.064   6.868  18.031  0.00  0.00    +0.000 C 
ATOM      2  O   UNL     1       3.799   7.105  17.076  0.00  0.00    +0.000 OA
ATOM      3  N   UNL     1       2.365   7.895  18.678  0.00  0.00    +0.000 N 
ATOM      4  C   UNL     1       2.277   9.199  18.036  0.00  0.00    +0.000 C 
ATOM      5  C   UNL     1       0.858   9.749  18.178  0.00  0.00    +0.000 C 
ATOM      6  C   UNL     1       0.377   9.788  19.647  0.00  0.00    +0.000 C 
ATOM      7  C   UNL     1       0.595   8.405  20.299  0.00  0.00    +0.000 C 
ATOM      8  C   UNL     1       2.013   7.882  20.096  0.00  0.00    +0.000 C 
ATOM      9  C   UNL     1       1.079  10.873  20.487  0.00  0.00    +0.000 C 
ATOM     10  N   UNL     1       0.835  12.212  19.965  0.00  0.00    +0.000 N 
ATOM     11  C   UNL     1      -0.516  12.553  19.788  0.00  0.00    +0.000 C 
ATOM     12  O   UNL     1      -0.980  13.689  19.843  0.00  0.00    +0.000 OA
ATOM     13  C   UNL     1      -1.396  11.366  19.337  0.00  0.00    +0.000 C 
ATOM     14  O   UNL     1      -1.038  10.047  19.720  0.00  0.00    +0.000 OA
ENDROOT
BRANCH   1  20
ATOM     15  C   UNL     1       5.141   5.067  19.429  0.00  0.00    +0.000 C 
ATOM     16  N   UNL     1       3.767   4.708  19.134  0.00  0.00    +0.000 N 
ATOM     17  C   UNL     1       3.208   3.500  19.472  0.00  0.00    +0.000 A 
ATOM     18  C   UNL     1       1.923   3.474  18.986  0.00  0.00    +0.000 A 
ATOM     19  C   UNL     1       1.708   4.705  18.327  0.00  0.00    +0.000 A 
ATOM     20  C   UNL     1       2.833   5.505  18.498  0.00  0.00    +0.000 A 
ENDBRANCH   1  20
BRANCH  10  21
ATOM     21  C   UNL     1       1.910  13.131  19.721  0.00  0.00    +0.000 A 
ATOM     22  C   UNL     1       2.437  13.385  18.461  0.00  0.00    +0.000 A 
ATOM     23  N   UNL     1       3.510  14.178  18.213  0.00  0.00    +0.000 NA
ATOM     24  C   UNL     1       4.082  14.740  19.279  0.00  0.00    +0.000 A 
ATOM     25  N   UNL     1       3.684  14.589  20.546  0.00  0.00    +0.000 NA
ATOM     26  C   UNL     1       2.609  13.788  20.728  0.00  0.00    +0.000 A 
ENDBRANCH  10  21
TORSDOF 2
ENDMDL
MODEL 3
REMARK VINA RESULT:      -6.6      3.554      5.597
REMARK  Name = 
REMARK  3 active torsions:
REMARK  status: ('A' for Active; 'I' for Inactive)
REMARK    1  A    between atoms: C_1  and  N_2
REMARK    2  A    between atoms: C_6  and  C_7
REMARK    3  A    between atoms: N_16  and  C_17
REMARK                            x       y       z     vdW  Elec       q    Type
REMARK                         _______ _______ _______ _____ _____    ______ ____
ROOT
ATOM      1  C   UNL     1       1.046   8.838  20.759  0.00  0.00    +0.000 C 
ATOM      2  O   UNL     1       1.250   8.433  21.900  0.00  0.00    +0.000 OA
ATOM      3  N   UNL     1       0.166   9.901  20.515  0.00  0.00    +0.000 N 
ATOM      4  C   UNL     1      -0.279  10.717  21.636  0.00  0.00    +0.000 C 
ATOM      5  C   UNL     1      -0.260  12.193  21.238  0.00  0.00    +0.000 C 
ATOM      6  C   UNL     1      -1.071  12.475  19.952  0.00  0.00    +0.000 C 
ATOM      7  C   UNL     1      -0.624  11.506  18.836  0.00  0.00    +0.000 C 
ATOM      8  C   UNL     1      -0.621  10.052  19.293  0.00  0.00    +0.000 C 
ATOM      9  C   UNL     1      -2.595  12.360  20.158  0.00  0.00    +0.000 C 
ATOM     10  N   UNL     1      -3.088  13.315  21.143  0.00  0.00    +0.000 N 
ATOM     11  C   UNL     1      -2.744  14.656  20.906  0.00  0.00    +0.000 C 
ATOM     12  O   UNL     1      -3.395  15.635  21.261  0.00  0.00    +0.000 OA
ATOM     13  C   UNL     1      -1.341  14.830  20.282  0.00  0.00    +0.000 C 
ATOM     14  O   UNL     1      -0.811  13.803  19.458  0.00  0.00    +0.000 OA
ENDROOT
BRANCH   1  20
ATOM     15  C   UNL     1       1.933   5.901  20.446  0.00  0.00    +0.000 C 
ATOM     16  N   UNL     1       2.138   6.958  19.475  0.00  0.00    +0.000 N 
ATOM     17  C   UNL     1       2.747   6.766  18.259  0.00  0.00    +0.000 A 
ATOM     18  C   UNL     1       2.832   7.983  17.627  0.00  0.00    +0.000 A 
ATOM     19  C   UNL     1       2.262   8.938  18.497  0.00  0.00    +0.000 A 
ATOM     20  C   UNL     1       1.753   8.280  19.611  0.00  0.00    +0.000 A 
ENDBRANCH   1  20
BRANCH  10  21
ATOM     21  C   UNL     1      -3.924  12.904  22.234  0.00  0.00    +0.000 A 
ATOM     22  C   UNL     1      -5.313  12.929  22.193  0.00  0.00    +0.000 A 
ATOM     23  N   UNL     1      -6.126  12.633  23.238  0.00  0.00    +0.000 NA
ATOM     24  C   UNL     1      -5.519  12.299  24.378  0.00  0.00    +0.000 A 
ATOM     25  N   UNL     1      -4.196  12.231  24.563  0.00  0.00    +0.000 NA
ATOM     26  C   UNL     1      -3.440  12.536  23.484  0.00  0.00    +0.000 A 
ENDBRANCH  10  21
TORSDOF 2
ENDMDL
MODEL 4
REMARK VINA RESULT:      -6.5      4.413      6.884
REMARK  Name = 
REMARK  3 active torsions:
REMARK  status: ('A' for Active; 'I' for Inactive)
REMARK    1  A    between atoms: C_1  and  N_2
REMARK    2  A    between atoms: C_6  and  C_7
REMARK    3  A    between atoms: N_16  and  C_17
REMARK                            x       y       z     vdW  Elec       q    Type
REMARK                         _______ _______ _______ _____ _____    ______ ____
ROOT
ATOM      1  C   UNL     1       0.087  10.631  19.771  0.00  0.00    +0.000 C 
ATOM      2  O   UNL     1       0.461  11.411  20.642  0.00  0.00    +0.000 OA
ATOM      3  N   UNL     1      -1.239  10.632  19.319  0.00  0.00    +0.000 N 
ATOM      4  C   UNL     1      -2.100  11.754  19.667  0.00  0.00    +0.000 C 
ATOM      5  C   UNL     1      -2.928  12.166  18.450  0.00  0.00    +0.000 C 
ATOM      6  C   UNL     1      -3.722  10.988  17.842  0.00  0.00    +0.000 C 
ATOM      7  C   UNL     1      -2.772   9.796  17.594  0.00  0.00    +0.000 C 
ATOM      8  C   UNL     1      -1.940   9.450  18.824  0.00  0.00    +0.000 C 
ATOM      9  C   UNL     1      -4.904  10.534  18.722  0.00  0.00    +0.000 C 
ATOM     10  N   UNL     1      -5.881  11.598  18.918  0.00  0.00    +0.000 N 
ATOM     11  C   UNL     1      -6.369  12.191  17.743  0.00  0.00    +0.000 C 
ATOM     12  O   UNL     1      -7.474  12.711  17.609  0.00  0.00    +0.000 OA
ATOM     13  C   UNL     1      -5.311  12.299  16.622  0.00  0.00    +0.000 C 
ATOM     14  O   UNL     1      -4.265  11.341  16.555  0.00  0.00    +0.000 OA
ENDROOT
BRANCH   1  20
ATOM     15  C   UNL     1       1.241   8.058  21.019  0.00  0.00    +0.000 C 
ATOM     16  N   UNL     1       1.518   8.552  19.684  0.00  0.00    +0.000 N 
ATOM     17  C   UNL     1       2.331   7.904  18.786  0.00  0.00    +0.000 A 
ATOM     18  C   UNL     1       2.421   8.680  17.656  0.00  0.00    +0.000 A 
ATOM     19  C   UNL     1       1.644   9.836  17.887  0.00  0.00    +0.000 A 
ATOM     20  C   UNL     1       1.013   9.710  19.120  0.00  0.00    +0.000 A 
ENDBRANCH   1  20
BRANCH  10  21
ATOM     21  C   UNL     1      -6.352  11.953  20.226  0.00  0.00    +0.000 A 
ATOM     22  C   UNL     1      -5.780  12.948  21.009  0.00  0.00    +0.000 A 
ATOM     23  N   UNL     1      -6.146  13.242  22.281  0.00  0.00    +0.000 NA
ATOM     24  C   UNL     1      -7.132  12.504  22.794  0.00  0.00    +0.000 A 
ATOM     25  N   UNL     1      -7.776  11.518  22.159  0.00  0.00    +0.000 NA
ATOM     26  C   UNL     1      -7.365  11.273  20.894  0.00  0.00    +0.000 A 
ENDBRANCH  10  21
TORSDOF 2
ENDMDL
MODEL 5
REMARK VINA RESULT:      -6.3      3.708      7.660
REMARK  Name = 
REMARK  3 active torsions:
REMARK  status: ('A' for Active; 'I' for Inactive)
REMARK    1  A    between atoms: C_1  and  N_2
REMARK    2  A    between atoms: C_6  and  C_7
REMARK    3  A    between atoms: N_16  and  C_17
REMARK                            x       y       z     vdW  Elec       q    Type
REMARK                         _______ _______ _______ _____ _____    ______ ____
ROOT
ATOM      1  C   UNL     1      -4.593  11.699  17.191  0.00  0.00    +0.000 C 
ATOM      2  O   UNL     1      -4.403  11.009  16.193  0.00  0.00    +0.000 OA
ATOM      3  N   UNL     1      -3.580  11.895  18.139  0.00  0.00    +0.000 N 
ATOM      4  C   UNL     1      -2.214  11.526  17.794  0.00  0.00    +0.000 C 
ATOM      5  C   UNL     1      -1.250  12.609  18.280  0.00  0.00    +0.000 C 
ATOM      6  C   UNL     1      -1.410  12.918  19.787  0.00  0.00    +0.000 C 
ATOM      7  C   UNL     1      -2.895  13.197  20.102  0.00  0.00    +0.000 C 
ATOM      8  C   UNL     1      -3.819  12.110  19.564  0.00  0.00    +0.000 C 
ATOM      9  C   UNL     1      -0.890  11.788  20.697  0.00  0.00    +0.000 C 
ATOM     10  N   UNL     1       0.534  11.540  20.502  0.00  0.00    +0.000 N 
ATOM     11  C   UNL     1       1.364  12.666  20.627  0.00  0.00    +0.000 C 
ATOM     12  O   UNL     1       2.539  12.652  20.985  0.00  0.00    +0.000 OA
ATOM     13  C   UNL     1       0.718  13.967  20.101  0.00  0.00    +0.000 C 
ATOM     14  O   UNL     1      -0.693  14.114  20.146  0.00  0.00    +0.000 OA
ENDROOT
BRANCH   1  20
ATOM     15  C   UNL     1      -6.934  10.690  18.927  0.00  0.00    +0.000 C 
ATOM     16  N   UNL     1      -6.896  11.943  18.197  0.00  0.00    +0.000 N 
ATOM     17  C   UNL     1      -7.916  12.862  18.211  0.00  0.00    +0.000 A 
ATOM     18  C   UNL     1      -7.576  13.890  17.365  0.00  0.00    +0.000 A 
ATOM     19  C   UNL     1      -6.313  13.572  16.818  0.00  0.00    +0.000 A 
ATOM     20  C   UNL     1      -5.855  12.398  17.407  0.00  0.00    +0.000 A 
ENDBRANCH   1  20
BRANCH  10  21
ATOM     21  C   UNL     1       1.040  10.218  20.270  0.00  0.00    +0.000 A 
ATOM     22  C   UNL     1       1.458   9.758  19.027  0.00  0.00    +0.000 A 
ATOM     23  N   UNL     1       1.855   8.489  18.762  0.00  0.00    +0.000 NA
ATOM     24  C   UNL     1       1.832   7.640  19.790  0.00  0.00    +0.000 A 
ATOM     25  N   UNL     1       1.458   7.940  21.038  0.00  0.00    +0.000 NA
ATOM     26  C   UNL     1       1.073   9.221  21.239  0.00  0.00    +0.000 A 
ENDBRANCH  10  21
TORSDOF 2
ENDMDL
MODEL 6
REMARK VINA RESULT:      -6.3      6.448      9.793
REMARK  Name = 
REMARK  3 active torsions:
REMARK  status: ('A' for Active; 'I' for Inactive)
REMARK    1  A    between atoms: C_1  and  N_2
REMARK    2  A    between atoms: C_6  and  C_7
REMARK    3  A    between atoms: N_16  and  C_17
REMARK                            x       y       z     vdW  Elec       q    Type
REMARK                         _______ _______ _______ _____ _____    ______ ____
ROOT
ATOM      1  C   UNL     1       3.060  15.163  18.432  0.00  0.00    +0.000 C 
ATOM      2  O   UNL     1       2.629  14.189  17.821  0.00  0.00    +0.000 OA
ATOM      3  N   UNL     1       4.429  15.306  18.692  0.00  0.00    +0.000 N 
ATOM      4  C   UNL     1       5.372  14.453  17.983  0.00  0.00    +0.000 C 
ATOM      5  C   UNL     1       6.576  15.280  17.531  0.00  0.00    +0.000 C 
ATOM      6  C   UNL     1       7.243  16.048  18.695  0.00  0.00    +0.000 C 
ATOM      7  C   UNL     1       6.173  16.848  19.468  0.00  0.00    +0.000 C 
ATOM      8  C   UNL     1       4.976  15.990  19.862  0.00  0.00    +0.000 C 
ATOM      9  C   UNL     1       8.008  15.130  19.669  0.00  0.00    +0.000 C 
ATOM     10  N   UNL     1       9.091  14.412  19.008  0.00  0.00    +0.000 N 
ATOM     11  C   UNL     1      10.003  15.214  18.303  0.00  0.00    +0.000 C 
ATOM     12  O   UNL     1      11.184  14.946  18.100  0.00  0.00    +0.000 OA
ATOM     13  C   UNL     1       9.348  16.438  17.624  0.00  0.00    +0.000 C 
ATOM     14  O   UNL     1       8.187  17.017  18.200  0.00  0.00    +0.000 OA
ENDROOT
BRANCH   1  20
ATOM     15  C   UNL     1       1.377  15.201  21.016  0.00  0.00    +0.000 C 
ATOM     16  N   UNL     1       1.438  16.260  20.027  0.00  0.00    +0.000 N 
ATOM     17  C   UNL     1       0.753  17.445  20.138  0.00  0.00    +0.000 A 
ATOM     18  C   UNL     1       0.987  18.181  19.002  0.00  0.00    +0.000 A 
ATOM     19  C   UNL     1       1.834  17.407  18.178  0.00  0.00    +0.000 A 
ATOM     20  C   UNL     1       2.182  16.246  18.861  0.00  0.00    +0.000 A 
ENDBRANCH   1  20
BRANCH  10  21
ATOM     21  C   UNL     1       9.240  12.991  19.139  0.00  0.00    +0.000 A 
ATOM     22  C   UNL     1       9.109  12.100  18.081  0.00  0.00    +0.000 A 
ATOM     23  N   UNL     1       9.155  10.749  18.193  0.00  0.00    +0.000 NA
ATOM     24  C   UNL     1       9.339  10.268  19.423  0.00  0.00    +0.000 A 
ATOM     25  N   UNL     1       9.483  11.002  20.532  0.00  0.00    +0.000 NA
ATOM     26  C   UNL     1       9.428  12.342  20.355  0.00  0.00    +0.000 A 
ENDBRANCH  10  21
TORSDOF 2
ENDMDL
MODEL 7
REMARK VINA RESULT:      -6.2      3.287      5.221
REMARK  Name = 
REMARK  3 active torsions:
REMARK  status: ('A' for Active; 'I' for Inactive)
REMARK    1  A    between atoms: C_1  and  N_2
REMARK    2  A    between atoms: C_6  and  C_7
REMARK    3  A    between atoms: N_16  and  C_17
REMARK                            x       y       z     vdW  Elec       q    Type
REMARK                         _______ _______ _______ _____ _____    ______ ____
ROOT
ATOM      1  C   UNL     1       0.177  10.822  18.581  0.00  0.00    +0.000 C 
ATOM      2  O   UNL     1      -0.896  10.767  17.987  0.00  0.00    +0.000 OA
ATOM      3  N   UNL     1       0.647  12.030  19.115  0.00  0.00    +0.000 N 
ATOM      4  C   UNL     1      -0.271  13.155  19.225  0.00  0.00    +0.000 C 
ATOM      5  C   UNL     1      -0.076  13.849  20.572  0.00  0.00    +0.000 C 
ATOM      6  C   UNL     1       1.391  14.266  20.822  0.00  0.00    +0.000 C 
ATOM      7  C   UNL     1       2.320  13.056  20.588  0.00  0.00    +0.000 C 
ATOM      8  C   UNL     1       2.061  12.374  19.249  0.00  0.00    +0.000 C 
ATOM      9  C   UNL     1       1.846  15.447  19.942  0.00  0.00    +0.000 C 
ATOM     10  N   UNL     1       1.056  16.648  20.185  0.00  0.00    +0.000 N 
ATOM     11  C   UNL     1       0.985  17.060  21.525  0.00  0.00    +0.000 C 
ATOM     12  O   UNL     1       0.827  18.216  21.911  0.00  0.00    +0.000 OA
ATOM     13  C   UNL     1       0.952  15.886  22.529  0.00  0.00    +0.000 C 
ATOM     14  O   UNL     1       1.589  14.662  22.193  0.00  0.00    +0.000 OA
ENDROOT
BRANCH   1  20
ATOM     15  C   UNL     1       0.585   9.433  21.304  0.00  0.00    +0.000 C 
ATOM     16  N   UNL     1       1.152   9.006  20.040  0.00  0.00    +0.000 N 
ATOM     17  C   UNL     1       1.941   7.891  19.898  0.00  0.00    +0.000 A 
ATOM     18  C   UNL     1       2.356   7.825  18.590  0.00  0.00    +0.000 A 
ATOM     19  C   UNL     1       1.804   8.944  17.927  0.00  0.00    +0.000 A 
ATOM     20  C   UNL     1       0.984   9.630  18.817  0.00  0.00    +0.000 A 
ENDBRANCH   1  20
BRANCH  10  21
ATOM     21  C   UNL     1       0.458  17.384  19.109  0.00  0.00    +0.000 A 
ATOM     22  C   UNL     1      -0.913  17.561  18.962  0.00  0.00    +0.000 A 
ATOM     23  N   UNL     1      -1.508  18.174  17.909  0.00  0.00    +0.000 NA
ATOM     24  C   UNL     1      -0.693  18.630  16.957  0.00  0.00    +0.000 A 
ATOM     25  N   UNL     1       0.641  18.534  16.964  0.00  0.00    +0.000 NA
ATOM     26  C   UNL     1       1.175  17.913  18.041  0.00  0.00    +0.000 A 
ENDBRANCH  10  21
TORSDOF 2
ENDMDL
MODEL 8
REMARK VINA RESULT:      -6.2      6.555      9.800
REMARK  Name = 
REMARK  3 active torsions:
REMARK  status: ('A' for Active; 'I' for Inactive)
REMARK    1  A    between atoms: C_1  and  N_2
REMARK    2  A    between atoms: C_6  and  C_7
REMARK    3  A    between atoms: N_16  and  C_17
REMARK                            x       y       z     vdW  Elec       q    Type
REMARK                         _______ _______ _______ _____ _____    ______ ____
ROOT
ATOM      1  C   UNL     1       3.002  15.043  18.435  0.00  0.00    +0.000 C 
ATOM      2  O   UNL     1       2.593  14.064  17.816  0.00  0.00    +0.000 OA
ATOM      3  N   UNL     1       4.366  15.206  18.710  0.00  0.00    +0.000 N 
ATOM      4  C   UNL     1       5.330  14.371  18.007  0.00  0.00    +0.000 C 
ATOM      5  C   UNL     1       6.525  15.218  17.571  0.00  0.00    +0.000 C 
ATOM      6  C   UNL     1       7.168  15.993  18.745  0.00  0.00    +0.000 C 
ATOM      7  C   UNL     1       6.077  16.773  19.509  0.00  0.00    +0.000 C 
ATOM      8  C   UNL     1       4.890  15.894  19.887  0.00  0.00    +0.000 C 
ATOM      9  C   UNL     1       7.937  15.083  19.723  0.00  0.00    +0.000 C 
ATOM     10  N   UNL     1       9.038  14.384  19.071  0.00  0.00    +0.000 N 
ATOM     11  C   UNL     1       9.945  15.203  18.378  0.00  0.00    +0.000 C 
ATOM     12  O   UNL     1      11.132  14.954  18.187  0.00  0.00    +0.000 OA
ATOM     13  C   UNL     1       9.278  16.419  17.697  0.00  0.00    +0.000 C 
ATOM     14  O   UNL     1       8.102  16.978  18.262  0.00  0.00    +0.000 OA
ENDROOT
BRANCH   1  20
ATOM     15  C   UNL     1       2.297  17.557  16.795  0.00  0.00    +0.000 C 
ATOM     16  N   UNL     1       1.783  17.230  18.111  0.00  0.00    +0.000 N 
ATOM     17  C   UNL     1       0.881  18.012  18.791  0.00  0.00    +0.000 A 
ATOM     18  C   UNL     1       0.667  17.441  20.022  0.00  0.00    +0.000 A 
ATOM     19  C   UNL     1       1.474  16.284  20.087  0.00  0.00    +0.000 A 
ATOM     20  C   UNL     1       2.103  16.111  18.858  0.00  0.00    +0.000 A 
ENDBRANCH   1  20
BRANCH  10  21
ATOM     21  C   UNL     1       9.208  12.965  19.199  0.00  0.00    +0.000 A 
ATOM     22  C   UNL     1       9.185  12.085  18.124  0.00  0.00    +0.000 A 
ATOM     23  N   UNL     1       9.252  10.734  18.224  0.00  0.00    +0.000 NA
ATOM     24  C   UNL     1       9.345  10.242  19.461  0.00  0.00    +0.000 A 
ATOM     25  N   UNL     1       9.381  10.965  20.585  0.00  0.00    +0.000 NA
ATOM     26  C   UNL     1       9.311  12.305  20.419  0.00  0.00    +0.000 A 
ENDBRANCH  10  21
TORSDOF 2
ENDMDL
MODEL 9
REMARK VINA RESULT:      -6.1      3.534      8.507
REMARK  Name = 
REMARK  3 active torsions:
REMARK  status: ('A' for Active; 'I' for Inactive)
REMARK    1  A    between atoms: C_1  and  N_2
REMARK    2  A    between atoms: C_6  and  C_7
REMARK    3  A    between atoms: N_16  and  C_17
REMARK                            x       y       z     vdW  Elec       q    Type
REMARK                         _______ _______ _______ _____ _____    ______ ____
ROOT
ATOM      1  C   UNL     1       6.755  15.274  20.085  0.00  0.00    +0.000 C 
ATOM      2  O   UNL     1       7.069  14.878  21.204  0.00  0.00    +0.000 OA
ATOM      3  N   UNL     1       5.494  14.992  19.545  0.00  0.00    +0.000 N 
ATOM      4  C   UNL     1       4.450  14.484  20.424  0.00  0.00    +0.000 C 
ATOM      5  C   UNL     1       3.125  15.176  20.104  0.00  0.00    +0.000 C 
ATOM      6  C   UNL     1       2.738  15.062  18.612  0.00  0.00    +0.000 C 
ATOM      7  C   UNL     1       3.924  15.517  17.734  0.00  0.00    +0.000 C 
ATOM      8  C   UNL     1       5.229  14.829  18.117  0.00  0.00    +0.000 C 
ATOM      9  C   UNL     1       2.305  13.641  18.202  0.00  0.00    +0.000 C 
ATOM     10  N   UNL     1       1.132  13.191  18.942  0.00  0.00    +0.000 N 
ATOM     11  C   UNL     1       0.024  14.053  18.894  0.00  0.00    +0.000 C 
ATOM     12  O   UNL     1      -1.152  13.713  18.992  0.00  0.00    +0.000 OA
ATOM     13  C   UNL     1       0.409  15.550  18.872  0.00  0.00    +0.000 C 
ATOM     14  O   UNL     1       1.644  15.944  18.294  0.00  0.00    +0.000 OA
ENDROOT
BRANCH   1  20
ATOM     15  C   UNL     1       9.094  14.261  18.350  0.00  0.00    +0.000 C 
ATOM     16  N   UNL     1       8.691  15.645  18.506  0.00  0.00    +0.000 N 
ATOM     17  C   UNL     1       9.305  16.693  17.866  0.00  0.00    +0.000 A 
ATOM     18  C   UNL     1       8.715  17.858  18.292  0.00  0.00    +0.000 A 
ATOM     19  C   UNL     1       7.719  17.497  19.226  0.00  0.00    +0.000 A 
ATOM     20  C   UNL     1       7.650  16.109  19.291  0.00  0.00    +0.000 A 
ENDBRANCH   1  20
BRANCH  10  21
ATOM     21  C   UNL     1       1.104  11.921  19.608  0.00  0.00    +0.000 A 
ATOM     22  C   UNL     1       1.064  10.702  18.943  0.00  0.00    +0.000 A 
ATOM     23  N   UNL     1       0.947   9.492  19.545  0.00  0.00    +0.000 NA
ATOM     24  C   UNL     1       0.863   9.505  20.877  0.00  0.00    +0.000 A 
ATOM     25  N   UNL     1       0.890  10.598  21.647  0.00  0.00    +0.000 NA
ATOM     26  C   UNL     1       1.009  11.773  20.987  0.00  0.00    +0.000 A 
ENDBRANCH  10  21
TORSDOF 2
ENDMDL
