MODEL 1
REMARK VINA RESULT:      -7.6      0.000      0.000
REMARK  Name = 
REMARK  8 active torsions:
REMARK  status: ('A' for Active; 'I' for Inactive)
REMARK    1  A    between atoms: C_1  and  O_2
REMARK    2  A    between atoms: O_2  and  C_3
REMARK    3  A    between atoms: C_9  and  O_10
REMARK    4  A    between atoms: O_10  and  C_11
REMARK    5  A    between atoms: C_12  and  C_13
REMARK    6  A    between atoms: C_16  and  O_17
REMARK    7  A    between atoms: O_17  and  C_18
REMARK    8  A    between atoms: C_19  and  O_20
REMARK                            x       y       z     vdW  Elec       q    Type
REMARK                         _______ _______ _______ _____ _____    ______ ____
ROOT
ATOM      1  C   UNL     1       6.717   5.081  15.187  0.00  0.00    +0.000 A 
ATOM      2  C   UNL     1       6.401   3.725  15.300  0.00  0.00    +0.000 A 
ATOM      3  C   UNL     1       5.286   3.323  16.035  0.00  0.00    +0.000 A 
ATOM      4  C   UNL     1       4.487   4.277  16.670  0.00  0.00    +0.000 A 
ATOM      5  C   UNL     1       3.313   3.861  17.451  0.00  0.00    +0.000 A 
ATOM      6  O   UNL     1       3.031   2.669  17.509  0.00  0.00    +0.000 OA
ATOM      7  C   UNL     1       2.537   4.942  18.137  0.00  0.00    +0.000 A 
ATOM      8  C   UNL     1       2.979   6.205  17.965  0.00  0.00    +0.000 A 
ATOM      9  O   UNL     1       4.060   6.594  17.193  0.00  0.00    +0.000 OA
ATOM     10  C   UNL     1       4.798   5.626  16.570  0.00  0.00    +0.000 A 
ATOM     11  C   UNL     1       5.907   6.030  15.822  0.00  0.00    +0.000 A 
ENDROOT
BRANCH   8  12
ATOM     12  C   UNL     1       2.317   7.343  18.621  0.00  0.00    +0.000 A 
ATOM     13  C   UNL     1       1.824   8.412  17.858  0.00  0.00    +0.000 A 
ATOM     14  C   UNL     1       1.211   9.508  18.477  0.00  0.00    +0.000 A 
ATOM     15  C   UNL     1       1.086   9.550  19.864  0.00  0.00    +0.000 A 
ATOM     16  C   UNL     1       1.570   8.472  20.615  0.00  0.00    +0.000 A 
ATOM     17  C   UNL     1       2.179   7.375  20.012  0.00  0.00    +0.000 A 
BRANCH  15  18
ATOM     18  O   UNL     1       0.525  10.567  20.595  0.00  0.00    +0.000 OA
ATOM     19  C   UNL     1      -0.802  10.938  20.236  0.00  0.00    +0.000 C 
ENDBRANCH  15  18
BRANCH  16  20
ATOM     20  O   UNL     1       1.455   8.477  21.980  0.00  0.00    +0.000 OA
ATOM     21  H   UNL     1       1.763   7.595  22.262  0.00  0.00    +0.000 HD
ENDBRANCH  16  20
ENDBRANCH   8  12
BRANCH   1  23
ATOM     22  C   UNL     1       7.841   5.264  13.106  0.00  0.00    +0.000 C 
ATOM     23  O   UNL     1       7.780   5.589  14.492  0.00  0.00    +0.000 OA
ENDBRANCH   1  23
BRANCH   7  24
ATOM     24  O   UNL     1       1.415   4.704  18.922  0.00  0.00    +0.000 OA
ATOM     25  C   UNL     1       1.560   3.893  20.079  0.00  0.00    +0.000 C 
ENDBRANCH   7  24
TORSDOF 5
ENDMDL
MODEL 2
REMARK VINA RESULT:      -7.5      0.685      1.418
REMARK  Name = 
REMARK  8 active torsions:
REMARK  status: ('A' for Active; 'I' for Inactive)
REMARK    1  A    between atoms: C_1  and  O_2
REMARK    2  A    between atoms: O_2  and  C_3
REMARK    3  A    between atoms: C_9  and  O_10
REMARK    4  A    between atoms: O_10  and  C_11
REMARK    5  A    between atoms: C_12  and  C_13
REMARK    6  A    between atoms: C_16  and  O_17
REMARK    7  A    between atoms: O_17  and  C_18
REMARK    8  A    between atoms: C_19  and  O_20
REMARK                            x       y       z     vdW  Elec       q    Type
REMARK                         _______ _______ _______ _____ _____    ______ ____
ROOT
ATOM      1  C   UNL     1       6.688   5.067  15.287  0.00  0.00    +0.000 A 
ATOM      2  C   UNL     1       6.340   3.716  15.359  0.00  0.00    +0.000 A 
ATOM      3  C   UNL     1       5.206   3.319  16.066  0.00  0.00    +0.000 A 
ATOM      4  C   UNL     1       4.418   4.274  16.714  0.00  0.00    +0.000 A 
ATOM      5  C   UNL     1       3.224   3.863  17.466  0.00  0.00    +0.000 A 
ATOM      6  O   UNL     1       2.915   2.676  17.488  0.00  0.00    +0.000 OA
ATOM      7  C   UNL     1       2.460   4.942  18.169  0.00  0.00    +0.000 A 
ATOM      8  C   UNL     1       2.931   6.199  18.038  0.00  0.00    +0.000 A 
ATOM      9  O   UNL     1       4.033   6.584  17.293  0.00  0.00    +0.000 OA
ATOM     10  C   UNL     1       4.759   5.617  16.655  0.00  0.00    +0.000 A 
ATOM     11  C   UNL     1       5.888   6.017  15.935  0.00  0.00    +0.000 A 
ENDROOT
BRANCH   8  12
ATOM     12  C   UNL     1       2.284   7.333  18.715  0.00  0.00    +0.000 A 
ATOM     13  C   UNL     1       2.093   7.315  20.104  0.00  0.00    +0.000 A 
ATOM     14  C   UNL     1       1.460   8.382  20.752  0.00  0.00    +0.000 A 
ATOM     15  C   UNL     1       1.007   9.478  20.019  0.00  0.00    +0.000 A 
ATOM     16  C   UNL     1       1.215   9.492  18.634  0.00  0.00    +0.000 A 
ATOM     17  C   UNL     1       1.846   8.438  17.978  0.00  0.00    +0.000 A 
BRANCH  15  18
ATOM     18  O   UNL     1       0.359  10.576  20.524  0.00  0.00    +0.000 OA
ATOM     19  C   UNL     1      -0.172  10.442  21.839  0.00  0.00    +0.000 C 
ENDBRANCH  15  18
BRANCH  16  20
ATOM     20  O   UNL     1       0.791  10.557  17.885  0.00  0.00    +0.000 OA
ATOM     21  H   UNL     1       0.264  10.164  17.164  0.00  0.00    +0.000 HD
ENDBRANCH  16  20
ENDBRANCH   8  12
BRANCH   1  23
ATOM     22  C   UNL     1       7.829   5.310  13.222  0.00  0.00    +0.000 C 
ATOM     23  O   UNL     1       7.771   5.570  14.621  0.00  0.00    +0.000 OA
ENDBRANCH   1  23
BRANCH   7  24
ATOM     24  O   UNL     1       1.321   4.708  18.931  0.00  0.00    +0.000 OA
ATOM     25  C   UNL     1       1.432   3.865  20.069  0.00  0.00    +0.000 C 
ENDBRANCH   7  24
TORSDOF 5
ENDMDL
MODEL 3
REMARK VINA RESULT:      -7.1      3.001      4.859
REMARK  Name = 
REMARK  8 active torsions:
REMARK  status: ('A' for Active; 'I' for Inactive)
REMARK    1  A    between atoms: C_1  and  O_2
REMARK    2  A    between atoms: O_2  and  C_3
REMARK    3  A    between atoms: C_9  and  O_10
REMARK    4  A    between atoms: O_10  and  C_11
REMARK    5  A    between atoms: C_12  and  C_13
REMARK    6  A    between atoms: C_16  and  O_17
REMARK    7  A    between atoms: O_17  and  C_18
REMARK    8  A    between atoms: C_19  and  O_20
REMARK                            x       y       z     vdW  Elec       q    Type
REMARK                         _______ _______ _______ _____ _____    ______ ____
ROOT
ATOM      1  C   UNL     1       6.412   3.672  12.379  0.00  0.00    +0.000 A 
ATOM      2  C   UNL     1       7.408   4.641  12.522  0.00  0.00    +0.000 A 
ATOM      3  C   UNL     1       7.576   5.301  13.739  0.00  0.00    +0.000 A 
ATOM      4  C   UNL     1       6.740   5.000  14.817  0.00  0.00    +0.000 A 
ATOM      5  C   UNL     1       6.908   5.694  16.102  0.00  0.00    +0.000 A 
ATOM      6  O   UNL     1       7.810   6.516  16.220  0.00  0.00    +0.000 OA
ATOM      7  C   UNL     1       5.942   5.346  17.193  0.00  0.00    +0.000 A 
ATOM      8  C   UNL     1       5.011   4.415  16.900  0.00  0.00    +0.000 A 
ATOM      9  O   UNL     1       4.886   3.734  15.702  0.00  0.00    +0.000 OA
ATOM     10  C   UNL     1       5.743   4.045  14.682  0.00  0.00    +0.000 A 
ATOM     11  C   UNL     1       5.583   3.374  13.467  0.00  0.00    +0.000 A 
ENDROOT
BRANCH   8  12
ATOM     12  C   UNL     1       3.988   4.021  17.881  0.00  0.00    +0.000 A 
ATOM     13  C   UNL     1       3.673   2.668  18.070  0.00  0.00    +0.000 A 
ATOM     14  C   UNL     1       2.686   2.286  18.988  0.00  0.00    +0.000 A 
ATOM     15  C   UNL     1       2.002   3.252  19.724  0.00  0.00    +0.000 A 
ATOM     16  C   UNL     1       2.336   4.599  19.537  0.00  0.00    +0.000 A 
ATOM     17  C   UNL     1       3.316   4.991  18.630  0.00  0.00    +0.000 A 
BRANCH  15  18
ATOM     18  O   UNL     1       1.007   3.017  20.638  0.00  0.00    +0.000 OA
ATOM     19  C   UNL     1       1.426   2.538  21.912  0.00  0.00    +0.000 C 
ENDBRANCH  15  18
BRANCH  16  20
ATOM     20  O   UNL     1       1.690   5.573  20.251  0.00  0.00    +0.000 OA
ATOM     21  H   UNL     1       1.870   5.362  21.187  0.00  0.00    +0.000 HD
ENDBRANCH  16  20
ENDBRANCH   8  12
BRANCH   1  23
ATOM     22  C   UNL     1       5.948   1.563  11.398  0.00  0.00    +0.000 C 
ATOM     23  O   UNL     1       6.159   2.963  11.237  0.00  0.00    +0.000 OA
ENDBRANCH   1  23
BRANCH   7  24
ATOM     24  O   UNL     1       5.964   5.928  18.455  0.00  0.00    +0.000 OA
ATOM     25  C   UNL     1       7.003   5.559  19.350  0.00  0.00    +0.000 C 
ENDBRANCH   7  24
TORSDOF 5
ENDMDL
MODEL 4
REMARK VINA RESULT:      -7.1      3.980      5.181
REMARK  Name = 
REMARK  8 active torsions:
REMARK  status: ('A' for Active; 'I' for Inactive)
REMARK    1  A    between atoms: C_1  and  O_2
REMARK    2  A    between atoms: O_2  and  C_3
REMARK    3  A    between atoms: C_9  and  O_10
REMARK    4  A    between atoms: O_10  and  C_11
REMARK    5  A    between atoms: C_12  and  C_13
REMARK    6  A    between atoms: C_16  and  O_17
REMARK    7  A    between atoms: O_17  and  C_18
REMARK    8  A    between atoms: C_19  and  O_20
REMARK                            x       y       z     vdW  Elec       q    Type
REMARK                         _______ _______ _______ _____ _____    ______ ____
ROOT
ATOM      1  C   UNL     1       6.733   3.698  12.363  0.00  0.00    +0.000 A 
ATOM      2  C   UNL     1       7.592   4.787  12.525  0.00  0.00    +0.000 A 
ATOM      3  C   UNL     1       7.671   5.443  13.754  0.00  0.00    +0.000 A 
ATOM      4  C   UNL     1       6.881   5.016  14.824  0.00  0.00    +0.000 A 
ATOM      5  C   UNL     1       6.955   5.705  16.121  0.00  0.00    +0.000 A 
ATOM      6  O   UNL     1       7.741   6.637  16.255  0.00  0.00    +0.000 OA
ATOM      7  C   UNL     1       6.043   5.215  17.202  0.00  0.00    +0.000 A 
ATOM      8  C   UNL     1       5.242   4.174  16.892  0.00  0.00    +0.000 A 
ATOM      9  O   UNL     1       5.209   3.503  15.682  0.00  0.00    +0.000 OA
ATOM     10  C   UNL     1       6.018   3.941  14.670  0.00  0.00    +0.000 A 
ATOM     11  C   UNL     1       5.950   3.275  13.444  0.00  0.00    +0.000 A 
ENDROOT
BRANCH   8  12
ATOM     12  C   UNL     1       4.279   3.633  17.863  0.00  0.00    +0.000 A 
ATOM     13  C   UNL     1       2.901   3.724  17.620  0.00  0.00    +0.000 A 
ATOM     14  C   UNL     1       1.979   3.229  18.550  0.00  0.00    +0.000 A 
ATOM     15  C   UNL     1       2.422   2.640  19.733  0.00  0.00    +0.000 A 
ATOM     16  C   UNL     1       3.800   2.542  19.958  0.00  0.00    +0.000 A 
ATOM     17  C   UNL     1       4.728   3.028  19.041  0.00  0.00    +0.000 A 
BRANCH  15  18
ATOM     18  O   UNL     1       1.629   2.133  20.730  0.00  0.00    +0.000 OA
ATOM     19  C   UNL     1       1.261   3.042  21.763  0.00  0.00    +0.000 C 
ENDBRANCH  15  18
BRANCH  16  20
ATOM     20  O   UNL     1       4.271   1.961  21.106  0.00  0.00    +0.000 OA
ATOM     21  H   UNL     1       5.182   1.682  20.893  0.00  0.00    +0.000 HD
ENDBRANCH  16  20
ENDBRANCH   8  12
BRANCH   1  23
ATOM     22  C   UNL     1       7.036   1.632  11.237  0.00  0.00    +0.000 C 
ATOM     23  O   UNL     1       6.576   2.981  11.209  0.00  0.00    +0.000 OA
ENDBRANCH   1  23
BRANCH   7  24
ATOM     24  O   UNL     1       5.986   5.773  18.474  0.00  0.00    +0.000 OA
ATOM     25  C   UNL     1       7.103   5.603  19.335  0.00  0.00    +0.000 C 
ENDBRANCH   7  24
TORSDOF 5
ENDMDL
MODEL 5
REMARK VINA RESULT:      -7.1      1.272      1.763
REMARK  Name = 
REMARK  8 active torsions:
REMARK  status: ('A' for Active; 'I' for Inactive)
REMARK    1  A    between atoms: C_1  and  O_2
REMARK    2  A    between atoms: O_2  and  C_3
REMARK    3  A    between atoms: C_9  and  O_10
REMARK    4  A    between atoms: O_10  and  C_11
REMARK    5  A    between atoms: C_12  and  C_13
REMARK    6  A    between atoms: C_16  and  O_17
REMARK    7  A    between atoms: O_17  and  C_18
REMARK    8  A    between atoms: C_19  and  O_20
REMARK                            x       y       z     vdW  Elec       q    Type
REMARK                         _______ _______ _______ _____ _____    ______ ____
ROOT
ATOM      1  C   UNL     1       6.013   5.278  15.498  0.00  0.00    +0.000 A 
ATOM      2  C   UNL     1       6.059   4.002  16.065  0.00  0.00    +0.000 A 
ATOM      3  C   UNL     1       5.258   3.692  17.164  0.00  0.00    +0.000 A 
ATOM      4  C   UNL     1       4.412   4.663  17.707  0.00  0.00    +0.000 A 
ATOM      5  C   UNL     1       3.569   4.345  18.868  0.00  0.00    +0.000 A 
ATOM      6  O   UNL     1       3.597   3.210  19.330  0.00  0.00    +0.000 OA
ATOM      7  C   UNL     1       2.725   5.454  19.417  0.00  0.00    +0.000 A 
ATOM      8  C   UNL     1       2.807   6.644  18.787  0.00  0.00    +0.000 A 
ATOM      9  O   UNL     1       3.571   6.924  17.668  0.00  0.00    +0.000 OA
ATOM     10  C   UNL     1       4.365   5.935  17.156  0.00  0.00    +0.000 A 
ATOM     11  C   UNL     1       5.157   6.241  16.046  0.00  0.00    +0.000 A 
ENDROOT
BRANCH   8  12
ATOM     12  C   UNL     1       2.052   7.814  19.260  0.00  0.00    +0.000 A 
ATOM     13  C   UNL     1       1.711   7.937  20.615  0.00  0.00    +0.000 A 
ATOM     14  C   UNL     1       0.975   9.038  21.069  0.00  0.00    +0.000 A 
ATOM     15  C   UNL     1       0.569  10.026  20.175  0.00  0.00    +0.000 A 
ATOM     16  C   UNL     1       0.926   9.900  18.827  0.00  0.00    +0.000 A 
ATOM     17  C   UNL     1       1.660   8.812  18.363  0.00  0.00    +0.000 A 
BRANCH  15  18
ATOM     18  O   UNL     1      -0.167  11.142  20.484  0.00  0.00    +0.000 OA
ATOM     19  C   UNL     1      -0.391  11.383  21.869  0.00  0.00    +0.000 C 
ENDBRANCH  15  18
BRANCH  16  20
ATOM     20  O   UNL     1       0.551  10.859  17.924  0.00  0.00    +0.000 OA
ATOM     21  H   UNL     1      -0.412  10.740  17.816  0.00  0.00    +0.000 HD
ENDBRANCH  16  20
ENDBRANCH   8  12
BRANCH   1  23
ATOM     22  C   UNL     1       7.154   4.676  13.508  0.00  0.00    +0.000 C 
ATOM     23  O   UNL     1       6.748   5.691  14.422  0.00  0.00    +0.000 OA
ENDBRANCH   1  23
BRANCH   7  24
ATOM     24  O   UNL     1       1.889   5.312  20.518  0.00  0.00    +0.000 OA
ATOM     25  C   UNL     1       0.907   4.286  20.492  0.00  0.00    +0.000 C 
ENDBRANCH   7  24
TORSDOF 5
ENDMDL
MODEL 6
REMARK VINA RESULT:      -7.1      3.251      4.899
REMARK  Name = 
REMARK  8 active torsions:
REMARK  status: ('A' for Active; 'I' for Inactive)
REMARK    1  A    between atoms: C_1  and  O_2
REMARK    2  A    between atoms: O_2  and  C_3
REMARK    3  A    between atoms: C_9  and  O_10
REMARK    4  A    between atoms: O_10  and  C_11
REMARK    5  A    between atoms: C_12  and  C_13
REMARK    6  A    between atoms: C_16  and  O_17
REMARK    7  A    between atoms: O_17  and  C_18
REMARK    8  A    between atoms: C_19  and  O_20
REMARK                            x       y       z     vdW  Elec       q    Type
REMARK                         _______ _______ _______ _____ _____    ______ ____
ROOT
ATOM      1  C   UNL     1       6.169   3.745  12.523  0.00  0.00    +0.000 A 
ATOM      2  C   UNL     1       7.250   4.620  12.659  0.00  0.00    +0.000 A 
ATOM      3  C   UNL     1       7.495   5.251  13.879  0.00  0.00    +0.000 A 
ATOM      4  C   UNL     1       6.651   5.016  14.967  0.00  0.00    +0.000 A 
ATOM      5  C   UNL     1       6.900   5.680  16.255  0.00  0.00    +0.000 A 
ATOM      6  O   UNL     1       7.874   6.417  16.365  0.00  0.00    +0.000 OA
ATOM      7  C   UNL     1       5.923   5.410  17.357  0.00  0.00    +0.000 A 
ATOM      8  C   UNL     1       4.907   4.569  17.072  0.00  0.00    +0.000 A 
ATOM      9  O   UNL     1       4.704   3.913  15.870  0.00  0.00    +0.000 OA
ATOM     10  C   UNL     1       5.571   4.155  14.840  0.00  0.00    +0.000 A 
ATOM     11  C   UNL     1       5.334   3.512  13.623  0.00  0.00    +0.000 A 
ENDROOT
BRANCH   8  12
ATOM     12  C   UNL     1       3.868   4.259  18.066  0.00  0.00    +0.000 A 
ATOM     13  C   UNL     1       3.514   5.205  19.039  0.00  0.00    +0.000 A 
ATOM     14  C   UNL     1       2.540   4.909  20.000  0.00  0.00    +0.000 A 
ATOM     15  C   UNL     1       1.912   3.665  20.002  0.00  0.00    +0.000 A 
ATOM     16  C   UNL     1       2.264   2.734  19.018  0.00  0.00    +0.000 A 
ATOM     17  C   UNL     1       3.228   3.016  18.055  0.00  0.00    +0.000 A 
BRANCH  15  18
ATOM     18  O   UNL     1       0.958   3.243  20.894  0.00  0.00    +0.000 OA
ATOM     19  C   UNL     1       1.439   2.595  22.067  0.00  0.00    +0.000 C 
ENDBRANCH  15  18
BRANCH  16  20
ATOM     20  O   UNL     1       1.659   1.505  18.986  0.00  0.00    +0.000 OA
ATOM     21  H   UNL     1       1.679   1.190  19.909  0.00  0.00    +0.000 HD
ENDBRANCH  16  20
ENDBRANCH   8  12
BRANCH   1  23
ATOM     22  C   UNL     1       4.445   2.916  11.121  0.00  0.00    +0.000 C 
ATOM     23  O   UNL     1       5.837   3.072  11.381  0.00  0.00    +0.000 OA
ENDBRANCH   1  23
BRANCH   7  24
ATOM     24  O   UNL     1       6.015   5.976  18.624  0.00  0.00    +0.000 OA
ATOM     25  C   UNL     1       7.101   5.594  19.456  0.00  0.00    +0.000 C 
ENDBRANCH   7  24
TORSDOF 5
ENDMDL
MODEL 7
REMARK VINA RESULT:      -7.0      1.441      7.159
REMARK  Name = 
REMARK  8 active torsions:
REMARK  status: ('A' for Active; 'I' for Inactive)
REMARK    1  A    between atoms: C_1  and  O_2
REMARK    2  A    between atoms: O_2  and  C_3
REMARK    3  A    between atoms: C_9  and  O_10
REMARK    4  A    between atoms: O_10  and  C_11
REMARK    5  A    between atoms: C_12  and  C_13
REMARK    6  A    between atoms: C_16  and  O_17
REMARK    7  A    between atoms: O_17  and  C_18
REMARK    8  A    between atoms: C_19  and  O_20
REMARK                            x       y       z     vdW  Elec       q    Type
REMARK                         _______ _______ _______ _____ _____    ______ ____
ROOT
ATOM      1  C   UNL     1       0.835   9.243  20.004  0.00  0.00    +0.000 A 
ATOM      2  C   UNL     1       0.473   8.468  21.108  0.00  0.00    +0.000 A 
ATOM      3  C   UNL     1       1.021   7.198  21.284  0.00  0.00    +0.000 A 
ATOM      4  C   UNL     1       1.929   6.694  20.350  0.00  0.00    +0.000 A 
ATOM      5  C   UNL     1       2.508   5.354  20.526  0.00  0.00    +0.000 A 
ATOM      6  O   UNL     1       2.205   4.702  21.520  0.00  0.00    +0.000 OA
ATOM      7  C   UNL     1       3.438   4.870  19.456  0.00  0.00    +0.000 A 
ATOM      8  C   UNL     1       3.670   5.715  18.430  0.00  0.00    +0.000 A 
ATOM      9  O   UNL     1       3.155   6.992  18.293  0.00  0.00    +0.000 OA
ATOM     10  C   UNL     1       2.289   7.453  19.246  0.00  0.00    +0.000 A 
ATOM     11  C   UNL     1       1.751   8.731  19.076  0.00  0.00    +0.000 A 
ENDROOT
BRANCH   8  12
ATOM     12  C   UNL     1       4.537   5.333  17.305  0.00  0.00    +0.000 A 
ATOM     13  C   UNL     1       4.148   4.310  16.428  0.00  0.00    +0.000 A 
ATOM     14  C   UNL     1       4.977   3.927  15.367  0.00  0.00    +0.000 A 
ATOM     15  C   UNL     1       6.204   4.559  15.172  0.00  0.00    +0.000 A 
ATOM     16  C   UNL     1       6.575   5.588  16.045  0.00  0.00    +0.000 A 
ATOM     17  C   UNL     1       5.759   5.980  17.103  0.00  0.00    +0.000 A 
BRANCH  15  18
ATOM     18  O   UNL     1       7.114   4.270  14.187  0.00  0.00    +0.000 OA
ATOM     19  C   UNL     1       6.576   3.825  12.946  0.00  0.00    +0.000 C 
ENDBRANCH  15  18
BRANCH  16  20
ATOM     20  O   UNL     1       7.770   6.236  15.877  0.00  0.00    +0.000 OA
ATOM     21  H   UNL     1       7.918   6.245  14.912  0.00  0.00    +0.000 HD
ENDBRANCH  16  20
ENDBRANCH   8  12
BRANCH   1  23
ATOM     22  C   UNL     1      -0.759  10.930  20.493  0.00  0.00    +0.000 C 
ATOM     23  O   UNL     1       0.366  10.499  19.732  0.00  0.00    +0.000 OA
ENDBRANCH   1  23
BRANCH   7  24
ATOM     24  O   UNL     1       4.050   3.622  19.475  0.00  0.00    +0.000 OA
ATOM     25  C   UNL     1       3.233   2.468  19.344  0.00  0.00    +0.000 C 
ENDBRANCH   7  24
TORSDOF 5
ENDMDL
MODEL 8
REMARK VINA RESULT:      -7.0      1.567      6.998
REMARK  Name = 
REMARK  8 active torsions:
REMARK  status: ('A' for Active; 'I' for Inactive)
REMARK    1  A    between atoms: C_1  and  O_2
REMARK    2  A    between atoms: O_2  and  C_3
REMARK    3  A    between atoms: C_9  and  O_10
REMARK    4  A    between atoms: O_10  and  C_11
REMARK    5  A    between atoms: C_12  and  C_13
REMARK    6  A    between atoms: C_16  and  O_17
REMARK    7  A    between atoms: O_17  and  C_18
REMARK    8  A    between atoms: C_19  and  O_20
REMARK                            x       y       z     vdW  Elec       q    Type
REMARK                         _______ _______ _______ _____ _____    ______ ____
ROOT
ATOM      1  C   UNL     1       0.804   9.210  20.250  0.00  0.00    +0.000 A 
ATOM      2  C   UNL     1       0.300   8.313  21.195  0.00  0.00    +0.000 A 
ATOM      3  C   UNL     1       0.824   7.024  21.290  0.00  0.00    +0.000 A 
ATOM      4  C   UNL     1       1.851   6.623  20.431  0.00  0.00    +0.000 A 
ATOM      5  C   UNL     1       2.406   5.265  20.521  0.00  0.00    +0.000 A 
ATOM      6  O   UNL     1       1.975   4.503  21.380  0.00  0.00    +0.000 OA
ATOM      7  C   UNL     1       3.472   4.901  19.535  0.00  0.00    +0.000 A 
ATOM      8  C   UNL     1       3.837   5.859  18.658  0.00  0.00    +0.000 A 
ATOM      9  O   UNL     1       3.341   7.150  18.607  0.00  0.00    +0.000 OA
ATOM     10  C   UNL     1       2.353   7.505  19.484  0.00  0.00    +0.000 A 
ATOM     11  C   UNL     1       1.838   8.801  19.399  0.00  0.00    +0.000 A 
ENDROOT
BRANCH   8  12
ATOM     12  C   UNL     1       4.848   5.603  17.621  0.00  0.00    +0.000 A 
ATOM     13  C   UNL     1       4.606   5.970  16.290  0.00  0.00    +0.000 A 
ATOM     14  C   UNL     1       5.555   5.711  15.294  0.00  0.00    +0.000 A 
ATOM     15  C   UNL     1       6.755   5.080  15.616  0.00  0.00    +0.000 A 
ATOM     16  C   UNL     1       6.992   4.730  16.951  0.00  0.00    +0.000 A 
ATOM     17  C   UNL     1       6.058   4.984  17.951  0.00  0.00    +0.000 A 
BRANCH  15  18
ATOM     18  O   UNL     1       7.758   4.753  14.739  0.00  0.00    +0.000 OA
ATOM     19  C   UNL     1       7.431   4.832  13.355  0.00  0.00    +0.000 C 
ENDBRANCH  15  18
BRANCH  16  20
ATOM     20  O   UNL     1       8.164   4.116  17.304  0.00  0.00    +0.000 OA
ATOM     21  H   UNL     1       7.893   3.302  17.770  0.00  0.00    +0.000 HD
ENDBRANCH  16  20
ENDBRANCH   8  12
BRANCH   1  23
ATOM     22  C   UNL     1       0.846  11.165  18.907  0.00  0.00    +0.000 C 
ATOM     23  O   UNL     1       0.371  10.495  20.071  0.00  0.00    +0.000 OA
ENDBRANCH   1  23
BRANCH   7  24
ATOM     24  O   UNL     1       4.081   3.652  19.486  0.00  0.00    +0.000 OA
ATOM     25  C   UNL     1       3.365   2.576  18.896  0.00  0.00    +0.000 C 
ENDBRANCH   7  24
TORSDOF 5
ENDMDL
MODEL 9
REMARK VINA RESULT:      -6.9      3.171      4.950
REMARK  Name = 
REMARK  8 active torsions:
REMARK  status: ('A' for Active; 'I' for Inactive)
REMARK    1  A    between atoms: C_1  and  O_2
REMARK    2  A    between atoms: O_2  and  C_3
REMARK    3  A    between atoms: C_9  and  O_10
REMARK    4  A    between atoms: O_10  and  C_11
REMARK    5  A    between atoms: C_12  and  C_13
REMARK    6  A    between atoms: C_16  and  O_17
REMARK    7  A    between atoms: O_17  and  C_18
REMARK    8  A    between atoms: C_19  and  O_20
REMARK                            x       y       z     vdW  Elec       q    Type
REMARK                         _______ _______ _______ _____ _____    ______ ____
ROOT
ATOM      1  C   UNL     1       5.766   3.455  12.484  0.00  0.00    +0.000 A 
ATOM      2  C   UNL     1       6.858   4.321  12.382  0.00  0.00    +0.000 A 
ATOM      3  C   UNL     1       7.297   5.033  13.498  0.00  0.00    +0.000 A 
ATOM      4  C   UNL     1       6.637   4.889  14.721  0.00  0.00    +0.000 A 
ATOM      5  C   UNL     1       7.090   5.640  15.900  0.00  0.00    +0.000 A 
ATOM      6  O   UNL     1       8.072   6.368  15.800  0.00  0.00    +0.000 OA
ATOM      7  C   UNL     1       6.302   5.465  17.161  0.00  0.00    +0.000 A 
ATOM      8  C   UNL     1       5.250   4.621  17.103  0.00  0.00    +0.000 A 
ATOM      9  O   UNL     1       4.855   3.884  16.000  0.00  0.00    +0.000 OA
ATOM     10  C   UNL     1       5.547   4.038  14.831  0.00  0.00    +0.000 A 
ATOM     11  C   UNL     1       5.116   3.314  13.716  0.00  0.00    +0.000 A 
ENDROOT
BRANCH   8  12
ATOM     12  C   UNL     1       4.383   4.398  18.270  0.00  0.00    +0.000 A 
ATOM     13  C   UNL     1       3.268   5.220  18.490  0.00  0.00    +0.000 A 
ATOM     14  C   UNL     1       2.449   5.027  19.609  0.00  0.00    +0.000 A 
ATOM     15  C   UNL     1       2.736   4.014  20.521  0.00  0.00    +0.000 A 
ATOM     16  C   UNL     1       3.843   3.191  20.284  0.00  0.00    +0.000 A 
ATOM     17  C   UNL     1       4.664   3.370  19.174  0.00  0.00    +0.000 A 
BRANCH  15  18
ATOM     18  O   UNL     1       2.029   3.729  21.662  0.00  0.00    +0.000 OA
ATOM     19  C   UNL     1       1.240   2.544  21.632  0.00  0.00    +0.000 C 
ENDBRANCH  15  18
BRANCH  16  20
ATOM     20  O   UNL     1       4.149   2.180  21.156  0.00  0.00    +0.000 OA
ATOM     21  H   UNL     1       4.509   1.465  20.598  0.00  0.00    +0.000 HD
ENDBRANCH  16  20
ENDBRANCH   8  12
BRANCH   1  23
ATOM     22  C   UNL     1       3.901   2.974  11.100  0.00  0.00    +0.000 C 
ATOM     23  O   UNL     1       5.253   2.707  11.461  0.00  0.00    +0.000 OA
ENDBRANCH   1  23
BRANCH   7  24
ATOM     24  O   UNL     1       6.597   6.118  18.352  0.00  0.00    +0.000 OA
ATOM     25  C   UNL     1       7.690   5.646  19.127  0.00  0.00    +0.000 C 
ENDBRANCH   7  24
TORSDOF 5
ENDMDL
