MODEL 1
REMARK VINA RESULT:      -8.3      0.000      0.000
REMARK  Name = 
REMARK  5 active torsions:
REMARK  status: ('A' for Active; 'I' for Inactive)
REMARK    1  A    between atoms: C_1  and  C_2
REMARK    2  A    between atoms: C_6  and  C_7
REMARK    3  A    between atoms: C_15  and  O_16
REMARK    4  A    between atoms: C_17  and  C_18
REMARK    5  A    between atoms: C_18  and  C_19
REMARK                            x       y       z     vdW  Elec       q    Type
REMARK                         _______ _______ _______ _____ _____    ______ ____
ROOT
ATOM      1  C   UNL     1      -0.084   8.859  21.746  0.00  0.00    +0.000 C 
ATOM      2  C   UNL     1       0.786   8.627  20.529  0.00  0.00    +0.000 A 
ATOM      3  N   UNL     1       1.531   7.555  20.559  0.00  0.00    +0.000 NA
ATOM      4  C   UNL     1       2.354   7.339  19.496  0.00  0.00    +0.000 A 
ATOM      5  N   UNL     1       3.201   6.362  19.253  0.00  0.00    +0.000 NA
ATOM      6  C   UNL     1       3.753   6.692  18.035  0.00  0.00    +0.000 A 
ATOM      7  N   UNL     1       3.302   7.844  17.520  0.00  0.00    +0.000 NA
ATOM      8  N   UNL     1       2.401   8.233  18.443  0.00  0.00    +0.000 N 
ATOM      9  C   UNL     1       1.619   9.383  18.406  0.00  0.00    +0.000 A 
ATOM     10  C   UNL     1       0.758   9.655  19.408  0.00  0.00    +0.000 A 
ENDROOT
BRANCH   6  11
ATOM     11  C   UNL     1       4.718   5.852  17.331  0.00  0.00    +0.000 A 
ATOM     12  C   UNL     1       4.389   4.556  16.917  0.00  0.00    +0.000 A 
ATOM     13  C   UNL     1       5.314   3.791  16.193  0.00  0.00    +0.000 A 
ATOM     14  C   UNL     1       6.567   4.316  15.880  0.00  0.00    +0.000 A 
ATOM     15  C   UNL     1       6.911   5.596  16.302  0.00  0.00    +0.000 A 
ATOM     16  C   UNL     1       5.993   6.356  17.024  0.00  0.00    +0.000 A 
ENDBRANCH   6  11
BRANCH   9  17
ATOM     17  O   UNL     1       1.782  10.244  17.329  0.00  0.00    +0.000 OA
ATOM     18  H   UNL     1       1.119   9.963  16.662  0.00  0.00    +0.000 HD
ENDBRANCH   9  17
BRANCH  10  19
ATOM     19  C   UNL     1      -0.012  10.943  19.500  0.00  0.00    +0.000 C 
BRANCH  19  20
ATOM     20  C   UNL     1      -1.386  10.957  18.861  0.00  0.00    +0.000 A 
ATOM     21  C   UNL     1      -1.763   9.963  17.946  0.00  0.00    +0.000 A 
ATOM     22  C   UNL     1      -3.067   9.908  17.448  0.00  0.00    +0.000 A 
ATOM     23  C   UNL     1      -4.015  10.841  17.857  0.00  0.00    +0.000 A 
ATOM     24  C   UNL     1      -3.650  11.850  18.748  0.00  0.00    +0.000 A 
ATOM     25  C   UNL     1      -2.344  11.910  19.240  0.00  0.00    +0.000 A 
ENDBRANCH  19  20
ENDBRANCH  10  19
TORSDOF 4
ENDMDL
MODEL 2
REMARK VINA RESULT:      -8.1      0.659      1.352
REMARK  Name = 
REMARK  5 active torsions:
REMARK  status: ('A' for Active; 'I' for Inactive)
REMARK    1  A    between atoms: C_1  and  C_2
REMARK    2  A    between atoms: C_6  and  C_7
REMARK    3  A    between atoms: C_15  and  O_16
REMARK    4  A    between atoms: C_17  and  C_18
REMARK    5  A    between atoms: C_18  and  C_19
REMARK                            x       y       z     vdW  Elec       q    Type
REMARK                         _______ _______ _______ _____ _____    ______ ____
ROOT
ATOM      1  C   UNL     1      -0.021   8.558  21.562  0.00  0.00    +0.000 C 
ATOM      2  C   UNL     1       0.917   8.384  20.387  0.00  0.00    +0.000 A 
ATOM      3  N   UNL     1       1.698   7.339  20.434  0.00  0.00    +0.000 NA
ATOM      4  C   UNL     1       2.581   7.175  19.412  0.00  0.00    +0.000 A 
ATOM      5  N   UNL     1       3.475   6.233  19.192  0.00  0.00    +0.000 NA
ATOM      6  C   UNL     1       4.076   6.609  18.012  0.00  0.00    +0.000 A 
ATOM      7  N   UNL     1       3.610   7.756  17.497  0.00  0.00    +0.000 NA
ATOM      8  N   UNL     1       2.650   8.093  18.381  0.00  0.00    +0.000 N 
ATOM      9  C   UNL     1       1.830   9.215  18.326  0.00  0.00    +0.000 A 
ATOM     10  C   UNL     1       0.910   9.435  19.287  0.00  0.00    +0.000 A 
ENDROOT
BRANCH   6  11
ATOM     11  C   UNL     1       5.105   5.819  17.342  0.00  0.00    +0.000 A 
ATOM     12  C   UNL     1       6.271   5.428  18.007  0.00  0.00    +0.000 A 
ATOM     13  C   UNL     1       7.218   4.622  17.359  0.00  0.00    +0.000 A 
ATOM     14  C   UNL     1       7.001   4.204  16.047  0.00  0.00    +0.000 A 
ATOM     15  C   UNL     1       5.853   4.601  15.369  0.00  0.00    +0.000 A 
ATOM     16  C   UNL     1       4.914   5.405  16.012  0.00  0.00    +0.000 A 
ENDBRANCH   6  11
BRANCH   9  17
ATOM     17  O   UNL     1       2.017  10.105  17.277  0.00  0.00    +0.000 OA
ATOM     18  H   UNL     1       2.953  10.397  17.341  0.00  0.00    +0.000 HD
ENDBRANCH   9  17
BRANCH  10  19
ATOM     19  C   UNL     1       0.090  10.693  19.365  0.00  0.00    +0.000 C 
BRANCH  19  20
ATOM     20  C   UNL     1      -1.242  10.678  18.643  0.00  0.00    +0.000 A 
ATOM     21  C   UNL     1      -2.263  11.569  19.003  0.00  0.00    +0.000 A 
ATOM     22  C   UNL     1      -3.446  11.636  18.263  0.00  0.00    +0.000 A 
ATOM     23  C   UNL     1      -3.627  10.818  17.151  0.00  0.00    +0.000 A 
ATOM     24  C   UNL     1      -2.631   9.910  16.794  0.00  0.00    +0.000 A 
ATOM     25  C   UNL     1      -1.451   9.837  17.540  0.00  0.00    +0.000 A 
ENDBRANCH  19  20
ENDBRANCH  10  19
TORSDOF 4
ENDMDL
MODEL 3
REMARK VINA RESULT:      -8.1      0.599      1.478
REMARK  Name = 
REMARK  5 active torsions:
REMARK  status: ('A' for Active; 'I' for Inactive)
REMARK    1  A    between atoms: C_1  and  C_2
REMARK    2  A    between atoms: C_6  and  C_7
REMARK    3  A    between atoms: C_15  and  O_16
REMARK    4  A    between atoms: C_17  and  C_18
REMARK    5  A    between atoms: C_18  and  C_19
REMARK                            x       y       z     vdW  Elec       q    Type
REMARK                         _______ _______ _______ _____ _____    ______ ____
ROOT
ATOM      1  C   UNL     1       0.101   9.096  22.073  0.00  0.00    +0.000 C 
ATOM      2  C   UNL     1       0.831   8.820  20.775  0.00  0.00    +0.000 A 
ATOM      3  N   UNL     1       1.502   7.700  20.729  0.00  0.00    +0.000 NA
ATOM      4  C   UNL     1       2.200   7.440  19.590  0.00  0.00    +0.000 A 
ATOM      5  N   UNL     1       2.953   6.412  19.261  0.00  0.00    +0.000 NA
ATOM      6  C   UNL     1       3.404   6.717  17.996  0.00  0.00    +0.000 A 
ATOM      7  N   UNL     1       2.983   7.902  17.532  0.00  0.00    +0.000 NA
ATOM      8  N   UNL     1       2.205   8.340  18.540  0.00  0.00    +0.000 N 
ATOM      9  C   UNL     1       1.501   9.540  18.584  0.00  0.00    +0.000 A 
ATOM     10  C   UNL     1       0.763   9.859  19.666  0.00  0.00    +0.000 A 
ENDROOT
BRANCH   6  11
ATOM     11  C   UNL     1       4.237   5.821  17.198  0.00  0.00    +0.000 A 
ATOM     12  C   UNL     1       5.206   6.318  16.320  0.00  0.00    +0.000 A 
ATOM     13  C   UNL     1       6.031   5.437  15.607  0.00  0.00    +0.000 A 
ATOM     14  C   UNL     1       5.891   4.059  15.769  0.00  0.00    +0.000 A 
ATOM     15  C   UNL     1       4.918   3.553  16.625  0.00  0.00    +0.000 A 
ATOM     16  C   UNL     1       4.096   4.429  17.332  0.00  0.00    +0.000 A 
ENDBRANCH   6  11
BRANCH   9  17
ATOM     17  O   UNL     1       1.617  10.399  17.500  0.00  0.00    +0.000 OA
ATOM     18  H   UNL     1       1.837  11.278  17.880  0.00  0.00    +0.000 HD
ENDBRANCH   9  17
BRANCH  10  19
ATOM     19  C   UNL     1       0.094  11.194  19.838  0.00  0.00    +0.000 C 
BRANCH  19  20
ATOM     20  C   UNL     1      -1.361  11.279  19.424  0.00  0.00    +0.000 A 
ATOM     21  C   UNL     1      -2.226  12.203  20.029  0.00  0.00    +0.000 A 
ATOM     22  C   UNL     1      -3.535  12.363  19.568  0.00  0.00    +0.000 A 
ATOM     23  C   UNL     1      -4.000  11.607  18.496  0.00  0.00    +0.000 A 
ATOM     24  C   UNL     1      -3.161  10.667  17.900  0.00  0.00    +0.000 A 
ATOM     25  C   UNL     1      -1.854  10.500  18.366  0.00  0.00    +0.000 A 
ENDBRANCH  19  20
ENDBRANCH  10  19
TORSDOF 4
ENDMDL
MODEL 4
REMARK VINA RESULT:      -7.9      5.663      8.029
REMARK  Name = 
REMARK  5 active torsions:
REMARK  status: ('A' for Active; 'I' for Inactive)
REMARK    1  A    between atoms: C_1  and  C_2
REMARK    2  A    between atoms: C_6  and  C_7
REMARK    3  A    between atoms: C_15  and  O_16
REMARK    4  A    between atoms: C_17  and  C_18
REMARK    5  A    between atoms: C_18  and  C_19
REMARK                            x       y       z     vdW  Elec       q    Type
REMARK                         _______ _______ _______ _____ _____    ______ ____
ROOT
ATOM      1  C   UNL     1       5.099   5.502  15.853  0.00  0.00    +0.000 C 
ATOM      2  C   UNL     1       6.030   6.151  16.854  0.00  0.00    +0.000 A 
ATOM      3  N   UNL     1       6.473   7.336  16.532  0.00  0.00    +0.000 NA
ATOM      4  C   UNL     1       7.343   7.932  17.393  0.00  0.00    +0.000 A 
ATOM      5  N   UNL     1       7.942   9.102  17.335  0.00  0.00    +0.000 NA
ATOM      6  C   UNL     1       8.709   9.144  18.478  0.00  0.00    +0.000 A 
ATOM      7  N   UNL     1       8.630   8.040  19.235  0.00  0.00    +0.000 NA
ATOM      8  N   UNL     1       7.745   7.290  18.549  0.00  0.00    +0.000 N 
ATOM      9  C   UNL     1       7.287   6.023  18.897  0.00  0.00    +0.000 A 
ATOM     10  C   UNL     1       6.403   5.377  18.110  0.00  0.00    +0.000 A 
ENDROOT
BRANCH   6  11
ATOM     11  C   UNL     1       9.513  10.298  18.870  0.00  0.00    +0.000 A 
ATOM     12  C   UNL     1       9.593  10.710  20.204  0.00  0.00    +0.000 A 
ATOM     13  C   UNL     1      10.417  11.787  20.562  0.00  0.00    +0.000 A 
ATOM     14  C   UNL     1      11.163  12.453  19.590  0.00  0.00    +0.000 A 
ATOM     15  C   UNL     1      11.077  12.063  18.257  0.00  0.00    +0.000 A 
ATOM     16  C   UNL     1      10.256  10.995  17.901  0.00  0.00    +0.000 A 
ENDBRANCH   6  11
BRANCH   9  17
ATOM     17  O   UNL     1       7.797   5.443  20.051  0.00  0.00    +0.000 OA
ATOM     18  H   UNL     1       8.107   6.190  20.608  0.00  0.00    +0.000 HD
ENDBRANCH   9  17
BRANCH  10  19
ATOM     19  C   UNL     1       5.975   3.957  18.351  0.00  0.00    +0.000 C 
BRANCH  19  20
ATOM     20  C   UNL     1       4.500   3.730  18.615  0.00  0.00    +0.000 A 
ATOM     21  C   UNL     1       3.783   4.584  19.465  0.00  0.00    +0.000 A 
ATOM     22  C   UNL     1       2.401   4.446  19.615  0.00  0.00    +0.000 A 
ATOM     23  C   UNL     1       1.714   3.456  18.920  0.00  0.00    +0.000 A 
ATOM     24  C   UNL     1       2.416   2.583  18.090  0.00  0.00    +0.000 A 
ATOM     25  C   UNL     1       3.799   2.715  17.946  0.00  0.00    +0.000 A 
ENDBRANCH  19  20
ENDBRANCH  10  19
TORSDOF 4
ENDMDL
MODEL 5
REMARK VINA RESULT:      -7.8      5.743      8.018
REMARK  Name = 
REMARK  5 active torsions:
REMARK  status: ('A' for Active; 'I' for Inactive)
REMARK    1  A    between atoms: C_1  and  C_2
REMARK    2  A    between atoms: C_6  and  C_7
REMARK    3  A    between atoms: C_15  and  O_16
REMARK    4  A    between atoms: C_17  and  C_18
REMARK    5  A    between atoms: C_18  and  C_19
REMARK                            x       y       z     vdW  Elec       q    Type
REMARK                         _______ _______ _______ _____ _____    ______ ____
ROOT
ATOM      1  C   UNL     1       5.078   5.551  15.930  0.00  0.00    +0.000 C 
ATOM      2  C   UNL     1       6.027   6.197  16.916  0.00  0.00    +0.000 A 
ATOM      3  N   UNL     1       6.472   7.380  16.585  0.00  0.00    +0.000 NA
ATOM      4  C   UNL     1       7.357   7.972  17.432  0.00  0.00    +0.000 A 
ATOM      5  N   UNL     1       7.962   9.139  17.362  0.00  0.00    +0.000 NA
ATOM      6  C   UNL     1       8.746   9.179  18.493  0.00  0.00    +0.000 A 
ATOM      7  N   UNL     1       8.672   8.078  19.254  0.00  0.00    +0.000 NA
ATOM      8  N   UNL     1       7.774   7.330  18.583  0.00  0.00    +0.000 N 
ATOM      9  C   UNL     1       7.314   6.067  18.940  0.00  0.00    +0.000 A 
ATOM     10  C   UNL     1       6.415   5.424  18.168  0.00  0.00    +0.000 A 
ENDROOT
BRANCH   6  11
ATOM     11  C   UNL     1       9.562  10.330  18.870  0.00  0.00    +0.000 A 
ATOM     12  C   UNL     1       9.654  10.753  20.201  0.00  0.00    +0.000 A 
ATOM     13  C   UNL     1      10.488  11.825  20.545  0.00  0.00    +0.000 A 
ATOM     14  C   UNL     1      11.234  12.477  19.563  0.00  0.00    +0.000 A 
ATOM     15  C   UNL     1      11.137  12.076  18.234  0.00  0.00    +0.000 A 
ATOM     16  C   UNL     1      10.305  11.013  17.891  0.00  0.00    +0.000 A 
ENDBRANCH   6  11
BRANCH   9  17
ATOM     17  O   UNL     1       7.838   5.487  20.088  0.00  0.00    +0.000 OA
ATOM     18  H   UNL     1       8.740   5.863  20.187  0.00  0.00    +0.000 HD
ENDBRANCH   9  17
BRANCH  10  19
ATOM     19  C   UNL     1       5.983   4.007  18.419  0.00  0.00    +0.000 C 
BRANCH  19  20
ATOM     20  C   UNL     1       4.524   3.795  18.768  0.00  0.00    +0.000 A 
ATOM     21  C   UNL     1       3.836   2.659  18.319  0.00  0.00    +0.000 A 
ATOM     22  C   UNL     1       2.527   2.405  18.737  0.00  0.00    +0.000 A 
ATOM     23  C   UNL     1       1.887   3.279  19.611  0.00  0.00    +0.000 A 
ATOM     24  C   UNL     1       2.548   4.426  20.047  0.00  0.00    +0.000 A 
ATOM     25  C   UNL     1       3.854   4.685  19.622  0.00  0.00    +0.000 A 
ENDBRANCH  19  20
ENDBRANCH  10  19
TORSDOF 4
ENDMDL
MODEL 6
REMARK VINA RESULT:      -7.8      2.178      8.193
REMARK  Name = 
REMARK  5 active torsions:
REMARK  status: ('A' for Active; 'I' for Inactive)
REMARK    1  A    between atoms: C_1  and  C_2
REMARK    2  A    between atoms: C_6  and  C_7
REMARK    3  A    between atoms: C_15  and  O_16
REMARK    4  A    between atoms: C_17  and  C_18
REMARK    5  A    between atoms: C_18  and  C_19
REMARK                            x       y       z     vdW  Elec       q    Type
REMARK                         _______ _______ _______ _____ _____    ______ ____
ROOT
ATOM      1  C   UNL     1       2.741   4.308  20.286  0.00  0.00    +0.000 C 
ATOM      2  C   UNL     1       2.342   5.755  20.090  0.00  0.00    +0.000 A 
ATOM      3  N   UNL     1       1.495   6.233  20.961  0.00  0.00    +0.000 NA
ATOM      4  C   UNL     1       1.087   7.521  20.790  0.00  0.00    +0.000 A 
ATOM      5  N   UNL     1       0.257   8.258  21.497  0.00  0.00    +0.000 NA
ATOM      6  C   UNL     1       0.230   9.464  20.832  0.00  0.00    +0.000 A 
ATOM      7  N   UNL     1       0.991   9.502  19.729  0.00  0.00    +0.000 NA
ATOM      8  N   UNL     1       1.545   8.274  19.726  0.00  0.00    +0.000 N 
ATOM      9  C   UNL     1       2.440   7.771  18.787  0.00  0.00    +0.000 A 
ATOM     10  C   UNL     1       2.912   6.513  18.900  0.00  0.00    +0.000 A 
ENDROOT
BRANCH   6  11
ATOM     11  C   UNL     1      -0.524  10.625  21.296  0.00  0.00    +0.000 A 
ATOM     12  C   UNL     1      -0.995  11.592  20.401  0.00  0.00    +0.000 A 
ATOM     13  C   UNL     1      -1.764  12.668  20.864  0.00  0.00    +0.000 A 
ATOM     14  C   UNL     1      -2.067  12.781  22.221  0.00  0.00    +0.000 A 
ATOM     15  C   UNL     1      -1.590  11.835  23.122  0.00  0.00    +0.000 A 
ATOM     16  C   UNL     1      -0.822  10.767  22.662  0.00  0.00    +0.000 A 
ENDBRANCH   6  11
BRANCH   9  17
ATOM     17  O   UNL     1       2.794   8.590  17.724  0.00  0.00    +0.000 OA
ATOM     18  H   UNL     1       3.379   9.281  18.105  0.00  0.00    +0.000 HD
ENDBRANCH   9  17
BRANCH  10  19
ATOM     19  C   UNL     1       3.769   5.861  17.851  0.00  0.00    +0.000 C 
BRANCH  19  20
ATOM     20  C   UNL     1       5.267   6.029  18.000  0.00  0.00    +0.000 A 
ATOM     21  C   UNL     1       5.977   6.908  17.169  0.00  0.00    +0.000 A 
ATOM     22  C   UNL     1       7.336   7.151  17.382  0.00  0.00    +0.000 A 
ATOM     23  C   UNL     1       8.007   6.524  18.428  0.00  0.00    +0.000 A 
ATOM     24  C   UNL     1       7.321   5.629  19.249  0.00  0.00    +0.000 A 
ATOM     25  C   UNL     1       5.964   5.379  19.030  0.00  0.00    +0.000 A 
ENDBRANCH  19  20
ENDBRANCH  10  19
TORSDOF 4
ENDMDL
MODEL 7
REMARK VINA RESULT:      -7.7      2.181      8.166
REMARK  Name = 
REMARK  5 active torsions:
REMARK  status: ('A' for Active; 'I' for Inactive)
REMARK    1  A    between atoms: C_1  and  C_2
REMARK    2  A    between atoms: C_6  and  C_7
REMARK    3  A    between atoms: C_15  and  O_16
REMARK    4  A    between atoms: C_17  and  C_18
REMARK    5  A    between atoms: C_18  and  C_19
REMARK                            x       y       z     vdW  Elec       q    Type
REMARK                         _______ _______ _______ _____ _____    ______ ____
ROOT
ATOM      1  C   UNL     1       2.683   4.536  20.312  0.00  0.00    +0.000 C 
ATOM      2  C   UNL     1       2.274   5.974  20.078  0.00  0.00    +0.000 A 
ATOM      3  N   UNL     1       1.454   6.482  20.958  0.00  0.00    +0.000 NA
ATOM      4  C   UNL     1       1.037   7.762  20.755  0.00  0.00    +0.000 A 
ATOM      5  N   UNL     1       0.228   8.523  21.461  0.00  0.00    +0.000 NA
ATOM      6  C   UNL     1       0.176   9.704  20.755  0.00  0.00    +0.000 A 
ATOM      7  N   UNL     1       0.902   9.704  19.627  0.00  0.00    +0.000 NA
ATOM      8  N   UNL     1       1.459   8.477  19.650  0.00  0.00    +0.000 N 
ATOM      9  C   UNL     1       2.324   7.942  18.701  0.00  0.00    +0.000 A 
ATOM     10  C   UNL     1       2.804   6.690  18.844  0.00  0.00    +0.000 A 
ENDROOT
BRANCH   6  11
ATOM     11  C   UNL     1      -0.566  10.880  21.201  0.00  0.00    +0.000 A 
ATOM     12  C   UNL     1      -0.820  11.109  22.557  0.00  0.00    +0.000 A 
ATOM     13  C   UNL     1      -1.485  12.274  22.963  0.00  0.00    +0.000 A 
ATOM     14  C   UNL     1      -1.897  13.213  22.018  0.00  0.00    +0.000 A 
ATOM     15  C   UNL     1      -1.665  12.987  20.665  0.00  0.00    +0.000 A 
ATOM     16  C   UNL     1      -1.007  11.827  20.261  0.00  0.00    +0.000 A 
ENDBRANCH   6  11
BRANCH   9  17
ATOM     17  O   UNL     1       2.642   8.724  17.599  0.00  0.00    +0.000 OA
ATOM     18  H   UNL     1       1.791   9.102  17.288  0.00  0.00    +0.000 HD
ENDBRANCH   9  17
BRANCH  10  19
ATOM     19  C   UNL     1       3.628   6.002  17.792  0.00  0.00    +0.000 C 
BRANCH  19  20
ATOM     20  C   UNL     1       5.133   6.109  17.933  0.00  0.00    +0.000 A 
ATOM     21  C   UNL     1       5.866   7.006  17.143  0.00  0.00    +0.000 A 
ATOM     22  C   UNL     1       7.234   7.190  17.354  0.00  0.00    +0.000 A 
ATOM     23  C   UNL     1       7.892   6.484  18.358  0.00  0.00    +0.000 A 
ATOM     24  C   UNL     1       7.182   5.571  19.137  0.00  0.00    +0.000 A 
ATOM     25  C   UNL     1       5.815   5.380  18.920  0.00  0.00    +0.000 A 
ENDBRANCH  19  20
ENDBRANCH  10  19
TORSDOF 4
ENDMDL
MODEL 8
REMARK VINA RESULT:      -7.7      2.591      8.201
REMARK  Name = 
REMARK  5 active torsions:
REMARK  status: ('A' for Active; 'I' for Inactive)
REMARK    1  A    between atoms: C_1  and  C_2
REMARK    2  A    between atoms: C_6  and  C_7
REMARK    3  A    between atoms: C_15  and  O_16
REMARK    4  A    between atoms: C_17  and  C_18
REMARK    5  A    between atoms: C_18  and  C_19
REMARK                            x       y       z     vdW  Elec       q    Type
REMARK                         _______ _______ _______ _____ _____    ______ ____
ROOT
ATOM      1  C   UNL     1       2.406   3.866  20.082  0.00  0.00    +0.000 C 
ATOM      2  C   UNL     1       2.217   5.359  19.923  0.00  0.00    +0.000 A 
ATOM      3  N   UNL     1       1.565   5.955  20.885  0.00  0.00    +0.000 NA
ATOM      4  C   UNL     1       1.345   7.291  20.754  0.00  0.00    +0.000 A 
ATOM      5  N   UNL     1       0.730   8.142  21.548  0.00  0.00    +0.000 NA
ATOM      6  C   UNL     1       0.811   9.344  20.881  0.00  0.00    +0.000 A 
ATOM      7  N   UNL     1       1.430   9.274  19.694  0.00  0.00    +0.000 NA
ATOM      8  N   UNL     1       1.783   7.975  19.635  0.00  0.00    +0.000 N 
ATOM      9  C   UNL     1       2.468   7.348  18.599  0.00  0.00    +0.000 A 
ATOM     10  C   UNL     1       2.749   6.031  18.666  0.00  0.00    +0.000 A 
ENDROOT
BRANCH   6  11
ATOM     11  C   UNL     1       0.308  10.603  21.422  0.00  0.00    +0.000 A 
ATOM     12  C   UNL     1       0.702  11.834  20.886  0.00  0.00    +0.000 A 
ATOM     13  C   UNL     1       0.162  13.027  21.386  0.00  0.00    +0.000 A 
ATOM     14  C   UNL     1      -0.773  12.994  22.420  0.00  0.00    +0.000 A 
ATOM     15  C   UNL     1      -1.159  11.777  22.972  0.00  0.00    +0.000 A 
ATOM     16  C   UNL     1      -0.620  10.592  22.478  0.00  0.00    +0.000 A 
ENDBRANCH   6  11
BRANCH   9  17
ATOM     17  O   UNL     1       2.815   8.114  17.494  0.00  0.00    +0.000 OA
ATOM     18  H   UNL     1       3.573   8.668  17.782  0.00  0.00    +0.000 HD
ENDBRANCH   9  17
BRANCH  10  19
ATOM     19  C   UNL     1       3.361   5.265  17.527  0.00  0.00    +0.000 C 
BRANCH  19  20
ATOM     20  C   UNL     1       4.872   5.144  17.526  0.00  0.00    +0.000 A 
ATOM     21  C   UNL     1       5.618   5.451  18.673  0.00  0.00    +0.000 A 
ATOM     22  C   UNL     1       6.996   5.228  18.710  0.00  0.00    +0.000 A 
ATOM     23  C   UNL     1       7.651   4.694  17.604  0.00  0.00    +0.000 A 
ATOM     24  C   UNL     1       6.928   4.406  16.447  0.00  0.00    +0.000 A 
ATOM     25  C   UNL     1       5.551   4.637  16.407  0.00  0.00    +0.000 A 
ENDBRANCH  19  20
ENDBRANCH  10  19
TORSDOF 4
ENDMDL
MODEL 9
REMARK VINA RESULT:      -7.6      5.946      8.157
REMARK  Name = 
REMARK  5 active torsions:
REMARK  status: ('A' for Active; 'I' for Inactive)
REMARK    1  A    between atoms: C_1  and  C_2
REMARK    2  A    between atoms: C_6  and  C_7
REMARK    3  A    between atoms: C_15  and  O_16
REMARK    4  A    between atoms: C_17  and  C_18
REMARK    5  A    between atoms: C_18  and  C_19
REMARK                            x       y       z     vdW  Elec       q    Type
REMARK                         _______ _______ _______ _____ _____    ______ ____
ROOT
ATOM      1  C   UNL     1       5.047   5.906  15.916  0.00  0.00    +0.000 C 
ATOM      2  C   UNL     1       6.058   6.471  16.890  0.00  0.00    +0.000 A 
ATOM      3  N   UNL     1       6.447   7.696  16.659  0.00  0.00    +0.000 NA
ATOM      4  C   UNL     1       7.385   8.219  17.495  0.00  0.00    +0.000 A 
ATOM      5  N   UNL     1       7.955   9.406  17.509  0.00  0.00    +0.000 NA
ATOM      6  C   UNL     1       8.828   9.347  18.572  0.00  0.00    +0.000 A 
ATOM      7  N   UNL     1       8.841   8.166  19.209  0.00  0.00    +0.000 NA
ATOM      8  N   UNL     1       7.908   7.469  18.531  0.00  0.00    +0.000 N 
ATOM      9  C   UNL     1       7.509   6.160  18.780  0.00  0.00    +0.000 A 
ATOM     10  C   UNL     1       6.564   5.578  18.013  0.00  0.00    +0.000 A 
ENDROOT
BRANCH   6  11
ATOM     11  C   UNL     1       9.645  10.474  19.010  0.00  0.00    +0.000 A 
ATOM     12  C   UNL     1      10.400  11.223  18.101  0.00  0.00    +0.000 A 
ATOM     13  C   UNL     1      11.132  12.335  18.538  0.00  0.00    +0.000 A 
ATOM     14  C   UNL     1      11.112  12.704  19.883  0.00  0.00    +0.000 A 
ATOM     15  C   UNL     1      10.379  11.956  20.799  0.00  0.00    +0.000 A 
ATOM     16  C   UNL     1       9.654  10.848  20.365  0.00  0.00    +0.000 A 
ENDBRANCH   6  11
BRANCH   9  17
ATOM     17  O   UNL     1       8.137   5.474  19.811  0.00  0.00    +0.000 OA
ATOM     18  H   UNL     1       8.894   5.007  19.395  0.00  0.00    +0.000 HD
ENDBRANCH   9  17
BRANCH  10  19
ATOM     19  C   UNL     1       6.186   4.128  18.137  0.00  0.00    +0.000 C 
BRANCH  19  20
ATOM     20  C   UNL     1       4.731   3.831  18.435  0.00  0.00    +0.000 A 
ATOM     21  C   UNL     1       4.046   2.825  17.739  0.00  0.00    +0.000 A 
ATOM     22  C   UNL     1       2.742   2.472  18.094  0.00  0.00    +0.000 A 
ATOM     23  C   UNL     1       2.102   3.114  19.149  0.00  0.00    +0.000 A 
ATOM     24  C   UNL     1       2.760   4.134  19.836  0.00  0.00    +0.000 A 
ATOM     25  C   UNL     1       4.061   4.494  19.476  0.00  0.00    +0.000 A 
ENDBRANCH  19  20
ENDBRANCH  10  19
TORSDOF 4
ENDMDL
