MODEL 1
REMARK VINA RESULT:      -7.1      0.000      0.000
REMARK  Name = 
REMARK  8 active torsions:
REMARK  status: ('A' for Active; 'I' for Inactive)
REMARK    1  A    between atoms: C_1  and  C_2
REMARK    2  A    between atoms: C_5  and  O_6
REMARK    3  A    between atoms: O_6  and  C_7
REMARK    4  A    between atoms: C_12  and  N_13
REMARK    5  A    between atoms: C_14  and  C_16
REMARK    6  A    between atoms: C_16  and  C_17
REMARK    7  A    between atoms: C_17  and  C_18
REMARK    8  A    between atoms: C_18  and  N_19
REMARK                            x       y       z     vdW  Elec       q    Type
REMARK                         _______ _______ _______ _____ _____    ______ ____
ROOT
ATOM      1  C   UNL     1       3.612   5.542  19.625  0.00  0.00    +0.000 C 
ATOM      2  C   UNL     1       2.773   4.413  20.242  0.00  0.00    +0.000 C 
ATOM      3  C   UNL     1       2.546   3.296  19.233  0.00  0.00    +0.000 C 
ATOM      4  O   UNL     1       3.802   2.757  18.829  0.00  0.00    +0.000 OA
ATOM      5  C   UNL     1       4.602   3.717  18.139  0.00  0.00    +0.000 C 
ATOM      6  C   UNL     1       4.902   4.950  19.003  0.00  0.00    +0.000 C 
ENDROOT
BRANCH   6   7
ATOM      7  N   UNL     1       5.687   5.949  18.267  0.00  0.00    +0.000 N 
ATOM      8  C   UNL     1       7.065   5.943  18.320  0.00  0.00    +0.000 C 
ATOM      9  O   UNL     1       7.706   5.085  18.922  0.00  0.00    +0.000 OA
ATOM     10  H   UNL     1       5.230   6.826  18.047  0.00  0.00    +0.000 HD
BRANCH   8  11
ATOM     11  C   UNL     1       7.739   7.027  17.504  0.00  0.00    +0.000 C 
BRANCH  11  12
ATOM     12  C   UNL     1       8.276   8.139  18.408  0.00  0.00    +0.000 C 
BRANCH  12  13
ATOM     13  C   UNL     1       8.117   9.532  17.795  0.00  0.00    +0.000 C 
BRANCH  13  14
ATOM     14  N   UNL     1       8.955  10.518  18.451  0.00  0.00    +0.000 N 
ATOM     15  C   UNL     1       9.536  10.407  19.680  0.00  0.00    +0.000 A 
ATOM     16  C   UNL     1      10.197  11.602  19.864  0.00  0.00    +0.000 A 
ATOM     17  N   UNL     1      10.022  12.428  18.786  0.00  0.00    +0.000 NA
ATOM     18  C   UNL     1       9.264  11.751  17.951  0.00  0.00    +0.000 A 
ENDBRANCH  13  14
ENDBRANCH  12  13
ENDBRANCH  11  12
ENDBRANCH   8  11
ENDBRANCH   6   7
BRANCH   1  19
ATOM     19  O   UNL     1       2.857   6.220  18.600  0.00  0.00    +0.000 OA
BRANCH  19  24
ATOM     20  C   UNL     1       0.377  11.226  19.330  0.00  0.00    +0.000 C 
ATOM     21  C   UNL     1       1.050   9.891  19.207  0.00  0.00    +0.000 A 
ATOM     22  C   UNL     1       1.146   9.041  20.304  0.00  0.00    +0.000 A 
ATOM     23  C   UNL     1       1.760   7.797  20.151  0.00  0.00    +0.000 A 
ATOM     24  C   UNL     1       2.263   7.413  18.913  0.00  0.00    +0.000 A 
ATOM     25  C   UNL     1       2.143   8.340  17.881  0.00  0.00    +0.000 A 
ATOM     26  N   UNL     1       1.555   9.560  17.997  0.00  0.00    +0.000 NA
ENDBRANCH  19  24
ENDBRANCH   1  19
TORSDOF 7
ENDMDL
MODEL 2
REMARK VINA RESULT:      -7.0      1.920      2.780
REMARK  Name = 
REMARK  8 active torsions:
REMARK  status: ('A' for Active; 'I' for Inactive)
REMARK    1  A    between atoms: C_1  and  C_2
REMARK    2  A    between atoms: C_5  and  O_6
REMARK    3  A    between atoms: O_6  and  C_7
REMARK    4  A    between atoms: C_12  and  N_13
REMARK    5  A    between atoms: C_14  and  C_16
REMARK    6  A    between atoms: C_16  and  C_17
REMARK    7  A    between atoms: C_17  and  C_18
REMARK    8  A    between atoms: C_18  and  N_19
REMARK                            x       y       z     vdW  Elec       q    Type
REMARK                         _______ _______ _______ _____ _____    ______ ____
ROOT
ATOM      1  C   UNL     1       5.409   5.473  17.528  0.00  0.00    +0.000 C 
ATOM      2  C   UNL     1       5.108   3.983  17.311  0.00  0.00    +0.000 C 
ATOM      3  C   UNL     1       5.171   3.630  15.832  0.00  0.00    +0.000 C 
ATOM      4  O   UNL     1       6.478   3.905  15.332  0.00  0.00    +0.000 OA
ATOM      5  C   UNL     1       6.793   5.296  15.390  0.00  0.00    +0.000 C 
ATOM      6  C   UNL     1       6.739   5.843  16.824  0.00  0.00    +0.000 C 
ENDROOT
BRANCH   6   7
ATOM      7  N   UNL     1       7.021   7.283  16.864  0.00  0.00    +0.000 N 
ATOM      8  C   UNL     1       7.793   7.823  17.872  0.00  0.00    +0.000 C 
ATOM      9  O   UNL     1       8.329   7.140  18.741  0.00  0.00    +0.000 OA
ATOM     10  H   UNL     1       6.365   7.897  16.396  0.00  0.00    +0.000 HD
BRANCH   8  11
ATOM     11  C   UNL     1       8.007   9.320  17.778  0.00  0.00    +0.000 C 
BRANCH  11  12
ATOM     12  C   UNL     1       9.032   9.792  18.813  0.00  0.00    +0.000 C 
BRANCH  12  13
ATOM     13  C   UNL     1       9.777  11.056  18.376  0.00  0.00    +0.000 C 
BRANCH  13  14
ATOM     14  N   UNL     1       9.294  12.241  19.060  0.00  0.00    +0.000 N 
ATOM     15  C   UNL     1       9.214  12.429  20.408  0.00  0.00    +0.000 A 
ATOM     16  C   UNL     1       8.669  13.687  20.554  0.00  0.00    +0.000 A 
ATOM     17  N   UNL     1       8.413  14.252  19.334  0.00  0.00    +0.000 NA
ATOM     18  C   UNL     1       8.794  13.356  18.450  0.00  0.00    +0.000 A 
ENDBRANCH  13  14
ENDBRANCH  12  13
ENDBRANCH  11  12
ENDBRANCH   8  11
ENDBRANCH   6   7
BRANCH   1  19
ATOM     19  O   UNL     1       4.343   6.281  16.987  0.00  0.00    +0.000 OA
BRANCH  19  24
ATOM     20  C   UNL     1       0.969   8.405  20.967  0.00  0.00    +0.000 C 
ATOM     21  C   UNL     1       1.832   7.880  19.859  0.00  0.00    +0.000 A 
ATOM     22  C   UNL     1       1.998   8.607  18.684  0.00  0.00    +0.000 A 
ATOM     23  C   UNL     1       2.825   8.100  17.679  0.00  0.00    +0.000 A 
ATOM     24  C   UNL     1       3.479   6.886  17.859  0.00  0.00    +0.000 A 
ATOM     25  C   UNL     1       3.233   6.220  19.056  0.00  0.00    +0.000 A 
ATOM     26  N   UNL     1       2.431   6.683  20.052  0.00  0.00    +0.000 NA
ENDBRANCH  19  24
ENDBRANCH   1  19
TORSDOF 7
ENDMDL
MODEL 3
REMARK VINA RESULT:      -7.0      1.119      1.162
REMARK  Name = 
REMARK  8 active torsions:
REMARK  status: ('A' for Active; 'I' for Inactive)
REMARK    1  A    between atoms: C_1  and  C_2
REMARK    2  A    between atoms: C_5  and  O_6
REMARK    3  A    between atoms: O_6  and  C_7
REMARK    4  A    between atoms: C_12  and  N_13
REMARK    5  A    between atoms: C_14  and  C_16
REMARK    6  A    between atoms: C_16  and  C_17
REMARK    7  A    between atoms: C_17  and  C_18
REMARK    8  A    between atoms: C_18  and  N_19
REMARK                            x       y       z     vdW  Elec       q    Type
REMARK                         _______ _______ _______ _____ _____    ______ ____
ROOT
ATOM      1  C   UNL     1       4.056   5.724  18.764  0.00  0.00    +0.000 C 
ATOM      2  C   UNL     1       3.337   4.405  19.083  0.00  0.00    +0.000 C 
ATOM      3  C   UNL     1       3.151   3.573  17.822  0.00  0.00    +0.000 C 
ATOM      4  O   UNL     1       4.425   3.268  17.260  0.00  0.00    +0.000 OA
ATOM      5  C   UNL     1       5.114   4.441  16.827  0.00  0.00    +0.000 C 
ATOM      6  C   UNL     1       5.358   5.429  17.977  0.00  0.00    +0.000 C 
ENDROOT
BRANCH   6   7
ATOM      7  N   UNL     1       6.028   6.649  17.509  0.00  0.00    +0.000 N 
ATOM      8  C   UNL     1       7.294   6.972  17.950  0.00  0.00    +0.000 C 
ATOM      9  O   UNL     1       7.947   6.246  18.695  0.00  0.00    +0.000 OA
ATOM     10  H   UNL     1       5.438   7.404  17.183  0.00  0.00    +0.000 HD
BRANCH   8  11
ATOM     11  C   UNL     1       7.861   8.255  17.376  0.00  0.00    +0.000 C 
BRANCH  11  12
ATOM     12  C   UNL     1       8.467   9.127  18.478  0.00  0.00    +0.000 C 
BRANCH  12  13
ATOM     13  C   UNL     1       8.647  10.585  18.050  0.00  0.00    +0.000 C 
BRANCH  13  14
ATOM     14  N   UNL     1       9.920  11.130  18.485  0.00  0.00    +0.000 N 
ATOM     15  C   UNL     1      10.458  11.049  19.735  0.00  0.00    +0.000 A 
ATOM     16  C   UNL     1      11.648  11.738  19.649  0.00  0.00    +0.000 A 
ATOM     17  N   UNL     1      11.834  12.235  18.387  0.00  0.00    +0.000 NA
ATOM     18  C   UNL     1      10.774  11.859  17.707  0.00  0.00    +0.000 A 
ENDBRANCH  13  14
ENDBRANCH  12  13
ENDBRANCH  11  12
ENDBRANCH   8  11
ENDBRANCH   6   7
BRANCH   1  19
ATOM     19  O   UNL     1       3.204   6.577  17.971  0.00  0.00    +0.000 OA
BRANCH  19  24
ATOM     20  C   UNL     1      -0.073  10.629  20.111  0.00  0.00    +0.000 C 
ATOM     21  C   UNL     1       0.825   9.538  19.608  0.00  0.00    +0.000 A 
ATOM     22  C   UNL     1       1.289   8.548  20.468  0.00  0.00    +0.000 A 
ATOM     23  C   UNL     1       2.107   7.535  19.964  0.00  0.00    +0.000 A 
ATOM     24  C   UNL     1       2.446   7.516  18.615  0.00  0.00    +0.000 A 
ATOM     25  C   UNL     1       1.954   8.562  17.839  0.00  0.00    +0.000 A 
ATOM     26  N   UNL     1       1.160   9.565  18.298  0.00  0.00    +0.000 NA
ENDBRANCH  19  24
ENDBRANCH   1  19
TORSDOF 7
ENDMDL
MODEL 4
REMARK VINA RESULT:      -7.0      3.536      4.768
REMARK  Name = 
REMARK  8 active torsions:
REMARK  status: ('A' for Active; 'I' for Inactive)
REMARK    1  A    between atoms: C_1  and  C_2
REMARK    2  A    between atoms: C_5  and  O_6
REMARK    3  A    between atoms: O_6  and  C_7
REMARK    4  A    between atoms: C_12  and  N_13
REMARK    5  A    between atoms: C_14  and  C_16
REMARK    6  A    between atoms: C_16  and  C_17
REMARK    7  A    between atoms: C_17  and  C_18
REMARK    8  A    between atoms: C_18  and  N_19
REMARK                            x       y       z     vdW  Elec       q    Type
REMARK                         _______ _______ _______ _____ _____    ______ ____
ROOT
ATOM      1  C   UNL     1       3.331   5.157  19.867  0.00  0.00    +0.000 C 
ATOM      2  C   UNL     1       2.241   4.582  20.784  0.00  0.00    +0.000 C 
ATOM      3  C   UNL     1       1.584   3.367  20.146  0.00  0.00    +0.000 C 
ATOM      4  O   UNL     1       2.566   2.357  19.923  0.00  0.00    +0.000 OA
ATOM      5  C   UNL     1       3.559   2.772  18.985  0.00  0.00    +0.000 C 
ATOM      6  C   UNL     1       4.309   4.029  19.451  0.00  0.00    +0.000 C 
ENDROOT
BRANCH   6   7
ATOM      7  N   UNL     1       5.296   4.470  18.458  0.00  0.00    +0.000 N 
ATOM      8  C   UNL     1       6.479   5.059  18.853  0.00  0.00    +0.000 C 
ATOM      9  O   UNL     1       6.798   5.192  20.032  0.00  0.00    +0.000 OA
ATOM     10  H   UNL     1       4.954   4.681  17.529  0.00  0.00    +0.000 HD
BRANCH   8  11
ATOM     11  C   UNL     1       7.403   5.455  17.719  0.00  0.00    +0.000 C 
BRANCH  11  12
ATOM     12  C   UNL     1       7.100   4.641  16.458  0.00  0.00    +0.000 C 
BRANCH  12  13
ATOM     13  C   UNL     1       6.612   5.508  15.295  0.00  0.00    +0.000 C 
BRANCH  13  14
ATOM     14  N   UNL     1       6.636   4.794  14.032  0.00  0.00    +0.000 N 
ATOM     15  C   UNL     1       5.840   3.747  13.671  0.00  0.00    +0.000 A 
ATOM     16  C   UNL     1       6.264   3.404  12.405  0.00  0.00    +0.000 A 
ATOM     17  N   UNL     1       7.296   4.209  12.002  0.00  0.00    +0.000 NA
ATOM     18  C   UNL     1       7.504   5.035  13.005  0.00  0.00    +0.000 A 
ENDBRANCH  13  14
ENDBRANCH  12  13
ENDBRANCH  11  12
ENDBRANCH   8  11
ENDBRANCH   6   7
BRANCH   1  19
ATOM     19  O   UNL     1       2.736   5.731  18.685  0.00  0.00    +0.000 OA
BRANCH  19  24
ATOM     20  C   UNL     1       0.960  11.018  19.479  0.00  0.00    +0.000 C 
ATOM     21  C   UNL     1       1.417   9.618  19.197  0.00  0.00    +0.000 A 
ATOM     22  C   UNL     1       1.821   9.247  17.918  0.00  0.00    +0.000 A 
ATOM     23  C   UNL     1       2.260   7.941  17.693  0.00  0.00    +0.000 A 
ATOM     24  C   UNL     1       2.300   7.027  18.741  0.00  0.00    +0.000 A 
ATOM     25  C   UNL     1       1.854   7.483  19.978  0.00  0.00    +0.000 A 
ATOM     26  N   UNL     1       1.416   8.745  20.230  0.00  0.00    +0.000 NA
ENDBRANCH  19  24
ENDBRANCH   1  19
TORSDOF 7
ENDMDL
MODEL 5
REMARK VINA RESULT:      -6.8      1.424      1.678
REMARK  Name = 
REMARK  8 active torsions:
REMARK  status: ('A' for Active; 'I' for Inactive)
REMARK    1  A    between atoms: C_1  and  C_2
REMARK    2  A    between atoms: C_5  and  O_6
REMARK    3  A    between atoms: O_6  and  C_7
REMARK    4  A    between atoms: C_12  and  N_13
REMARK    5  A    between atoms: C_14  and  C_16
REMARK    6  A    between atoms: C_16  and  C_17
REMARK    7  A    between atoms: C_17  and  C_18
REMARK    8  A    between atoms: C_18  and  N_19
REMARK                            x       y       z     vdW  Elec       q    Type
REMARK                         _______ _______ _______ _____ _____    ______ ____
ROOT
ATOM      1  C   UNL     1       4.328   5.828  18.419  0.00  0.00    +0.000 C 
ATOM      2  C   UNL     1       3.716   4.426  18.560  0.00  0.00    +0.000 C 
ATOM      3  C   UNL     1       3.635   3.734  17.207  0.00  0.00    +0.000 C 
ATOM      4  O   UNL     1       4.944   3.603  16.659  0.00  0.00    +0.000 OA
ATOM      5  C   UNL     1       5.542   4.871  16.387  0.00  0.00    +0.000 C 
ATOM      6  C   UNL     1       5.670   5.735  17.650  0.00  0.00    +0.000 C 
ENDROOT
BRANCH   6   7
ATOM      7  N   UNL     1       6.245   7.052  17.349  0.00  0.00    +0.000 N 
ATOM      8  C   UNL     1       7.447   7.440  17.902  0.00  0.00    +0.000 C 
ATOM      9  O   UNL     1       8.123   6.702  18.615  0.00  0.00    +0.000 OA
ATOM     10  H   UNL     1       5.604   7.780  17.060  0.00  0.00    +0.000 HD
BRANCH   8  11
ATOM     11  C   UNL     1       7.919   8.821  17.495  0.00  0.00    +0.000 C 
BRANCH  11  12
ATOM     12  C   UNL     1       8.643   9.515  18.651  0.00  0.00    +0.000 C 
BRANCH  12  13
ATOM     13  C   UNL     1       9.616  10.598  18.179  0.00  0.00    +0.000 C 
BRANCH  13  14
ATOM     14  N   UNL     1       9.124  11.935  18.455  0.00  0.00    +0.000 N 
ATOM     15  C   UNL     1       9.180  12.594  19.648  0.00  0.00    +0.000 A 
ATOM     16  C   UNL     1       8.563  13.803  19.409  0.00  0.00    +0.000 A 
ATOM     17  N   UNL     1       8.133  13.883  18.111  0.00  0.00    +0.000 NA
ATOM     18  C   UNL     1       8.479  12.740  17.560  0.00  0.00    +0.000 A 
ENDBRANCH  13  14
ENDBRANCH  12  13
ENDBRANCH  11  12
ENDBRANCH   8  11
ENDBRANCH   6   7
BRANCH   1  19
ATOM     19  O   UNL     1       3.427   6.694  17.699  0.00  0.00    +0.000 OA
BRANCH  19  24
ATOM     20  C   UNL     1       0.051  10.471  20.165  0.00  0.00    +0.000 C 
ATOM     21  C   UNL     1       0.971   9.444  19.575  0.00  0.00    +0.000 A 
ATOM     22  C   UNL     1       1.373   8.340  20.319  0.00  0.00    +0.000 A 
ATOM     23  C   UNL     1       2.214   7.392  19.733  0.00  0.00    +0.000 A 
ATOM     24  C   UNL     1       2.636   7.550  18.417  0.00  0.00    +0.000 A 
ATOM     25  C   UNL     1       2.202   8.698  17.761  0.00  0.00    +0.000 A 
ATOM     26  N   UNL     1       1.387   9.643  18.303  0.00  0.00    +0.000 NA
ENDBRANCH  19  24
ENDBRANCH   1  19
TORSDOF 7
ENDMDL
MODEL 6
REMARK VINA RESULT:      -6.8      1.931      2.900
REMARK  Name = 
REMARK  8 active torsions:
REMARK  status: ('A' for Active; 'I' for Inactive)
REMARK    1  A    between atoms: C_1  and  C_2
REMARK    2  A    between atoms: C_5  and  O_6
REMARK    3  A    between atoms: O_6  and  C_7
REMARK    4  A    between atoms: C_12  and  N_13
REMARK    5  A    between atoms: C_14  and  C_16
REMARK    6  A    between atoms: C_16  and  C_17
REMARK    7  A    between atoms: C_17  and  C_18
REMARK    8  A    between atoms: C_18  and  N_19
REMARK                            x       y       z     vdW  Elec       q    Type
REMARK                         _______ _______ _______ _____ _____    ______ ____
ROOT
ATOM      1  C   UNL     1       5.679   5.145  17.150  0.00  0.00    +0.000 C 
ATOM      2  C   UNL     1       5.427   3.689  16.731  0.00  0.00    +0.000 C 
ATOM      3  C   UNL     1       5.416   3.558  15.215  0.00  0.00    +0.000 C 
ATOM      4  O   UNL     1       6.678   3.966  14.693  0.00  0.00    +0.000 OA
ATOM      5  C   UNL     1       6.939   5.348  14.939  0.00  0.00    +0.000 C 
ATOM      6  C   UNL     1       6.948   5.678  16.438  0.00  0.00    +0.000 C 
ENDROOT
BRANCH   6   7
ATOM      7  N   UNL     1       7.173   7.109  16.675  0.00  0.00    +0.000 N 
ATOM      8  C   UNL     1       7.755   7.548  17.847  0.00  0.00    +0.000 C 
ATOM      9  O   UNL     1       8.164   6.782  18.716  0.00  0.00    +0.000 OA
ATOM     10  H   UNL     1       6.583   7.760  16.173  0.00  0.00    +0.000 HD
BRANCH   8  11
ATOM     11  C   UNL     1       7.932   9.049  17.948  0.00  0.00    +0.000 C 
BRANCH  11  12
ATOM     12  C   UNL     1       9.176   9.399  18.768  0.00  0.00    +0.000 C 
BRANCH  12  13
ATOM     13  C   UNL     1       9.095  10.788  19.407  0.00  0.00    +0.000 C 
BRANCH  13  14
ATOM     14  N   UNL     1       9.729  11.805  18.589  0.00  0.00    +0.000 N 
ATOM     15  C   UNL     1       9.276  13.072  18.366  0.00  0.00    +0.000 A 
ATOM     16  C   UNL     1      10.201  13.629  17.510  0.00  0.00    +0.000 A 
ATOM     17  N   UNL     1      11.189  12.730  17.208  0.00  0.00    +0.000 NA
ATOM     18  C   UNL     1      10.876  11.636  17.867  0.00  0.00    +0.000 A 
ENDBRANCH  13  14
ENDBRANCH  12  13
ENDBRANCH  11  12
ENDBRANCH   8  11
ENDBRANCH   6   7
BRANCH   1  19
ATOM     19  O   UNL     1       4.551   5.970  16.791  0.00  0.00    +0.000 OA
BRANCH  19  24
ATOM     20  C   UNL     1       1.170   8.447  20.555  0.00  0.00    +0.000 C 
ATOM     21  C   UNL     1       2.097   7.747  19.606  0.00  0.00    +0.000 A 
ATOM     22  C   UNL     1       2.605   6.488  19.910  0.00  0.00    +0.000 A 
ATOM     23  C   UNL     1       3.449   5.854  18.997  0.00  0.00    +0.000 A 
ATOM     24  C   UNL     1       3.770   6.475  17.794  0.00  0.00    +0.000 A 
ATOM     25  C   UNL     1       3.234   7.743  17.590  0.00  0.00    +0.000 A 
ATOM     26  N   UNL     1       2.413   8.390  18.460  0.00  0.00    +0.000 NA
ENDBRANCH  19  24
ENDBRANCH   1  19
TORSDOF 7
ENDMDL
MODEL 7
REMARK VINA RESULT:      -6.8      3.718      4.852
REMARK  Name = 
REMARK  8 active torsions:
REMARK  status: ('A' for Active; 'I' for Inactive)
REMARK    1  A    between atoms: C_1  and  C_2
REMARK    2  A    between atoms: C_5  and  O_6
REMARK    3  A    between atoms: O_6  and  C_7
REMARK    4  A    between atoms: C_12  and  N_13
REMARK    5  A    between atoms: C_14  and  C_16
REMARK    6  A    between atoms: C_16  and  C_17
REMARK    7  A    between atoms: C_17  and  C_18
REMARK    8  A    between atoms: C_18  and  N_19
REMARK                            x       y       z     vdW  Elec       q    Type
REMARK                         _______ _______ _______ _____ _____    ______ ____
ROOT
ATOM      1  C   UNL     1       3.206   4.948  19.978  0.00  0.00    +0.000 C 
ATOM      2  C   UNL     1       2.102   4.541  20.965  0.00  0.00    +0.000 C 
ATOM      3  C   UNL     1       1.242   3.429  20.384  0.00  0.00    +0.000 C 
ATOM      4  O   UNL     1       2.053   2.287  20.118  0.00  0.00    +0.000 OA
ATOM      5  C   UNL     1       3.037   2.550  19.117  0.00  0.00    +0.000 C 
ATOM      6  C   UNL     1       3.985   3.688  19.521  0.00  0.00    +0.000 C 
ENDROOT
BRANCH   6   7
ATOM      7  N   UNL     1       4.964   3.978  18.465  0.00  0.00    +0.000 N 
ATOM      8  C   UNL     1       6.177   4.560  18.768  0.00  0.00    +0.000 C 
ATOM      9  O   UNL     1       6.529   4.810  19.918  0.00  0.00    +0.000 OA
ATOM     10  H   UNL     1       4.608   4.097  17.525  0.00  0.00    +0.000 HD
BRANCH   8  11
ATOM     11  C   UNL     1       7.087   4.791  17.579  0.00  0.00    +0.000 C 
BRANCH  11  12
ATOM     12  C   UNL     1       6.303   4.715  16.267  0.00  0.00    +0.000 C 
BRANCH  12  13
ATOM     13  C   UNL     1       7.045   5.359  15.093  0.00  0.00    +0.000 C 
BRANCH  13  14
ATOM     14  N   UNL     1       6.809   4.657  13.845  0.00  0.00    +0.000 N 
ATOM     15  C   UNL     1       5.824   3.748  13.594  0.00  0.00    +0.000 A 
ATOM     16  C   UNL     1       6.038   3.351  12.291  0.00  0.00    +0.000 A 
ATOM     17  N   UNL     1       7.126   3.989  11.759  0.00  0.00    +0.000 NA
ATOM     18  C   UNL     1       7.576   4.767  12.720  0.00  0.00    +0.000 A 
ENDBRANCH  13  14
ENDBRANCH  12  13
ENDBRANCH  11  12
ENDBRANCH   8  11
ENDBRANCH   6   7
BRANCH   1  19
ATOM     19  O   UNL     1       2.629   5.594  18.824  0.00  0.00    +0.000 OA
BRANCH  19  24
ATOM     20  C   UNL     1       1.254  11.056  18.680  0.00  0.00    +0.000 C 
ATOM     21  C   UNL     1       1.623   9.606  18.791  0.00  0.00    +0.000 A 
ATOM     22  C   UNL     1       1.390   8.902  19.968  0.00  0.00    +0.000 A 
ATOM     23  C   UNL     1       1.726   7.549  20.031  0.00  0.00    +0.000 A 
ATOM     24  C   UNL     1       2.281   6.914  18.926  0.00  0.00    +0.000 A 
ATOM     25  C   UNL     1       2.500   7.705  17.802  0.00  0.00    +0.000 A 
ATOM     26  N   UNL     1       2.188   9.025  17.707  0.00  0.00    +0.000 NA
ENDBRANCH  19  24
ENDBRANCH   1  19
TORSDOF 7
ENDMDL
MODEL 8
REMARK VINA RESULT:      -6.7      3.892      7.007
REMARK  Name = 
REMARK  8 active torsions:
REMARK  status: ('A' for Active; 'I' for Inactive)
REMARK    1  A    between atoms: C_1  and  C_2
REMARK    2  A    between atoms: C_5  and  O_6
REMARK    3  A    between atoms: O_6  and  C_7
REMARK    4  A    between atoms: C_12  and  N_13
REMARK    5  A    between atoms: C_14  and  C_16
REMARK    6  A    between atoms: C_16  and  C_17
REMARK    7  A    between atoms: C_17  and  C_18
REMARK    8  A    between atoms: C_18  and  N_19
REMARK                            x       y       z     vdW  Elec       q    Type
REMARK                         _______ _______ _______ _____ _____    ______ ____
ROOT
ATOM      1  C   UNL     1       2.891   3.685  19.230  0.00  0.00    +0.000 C 
ATOM      2  C   UNL     1       2.512   2.343  19.872  0.00  0.00    +0.000 C 
ATOM      3  C   UNL     1       2.829   2.348  21.361  0.00  0.00    +0.000 C 
ATOM      4  O   UNL     1       2.087   3.382  22.003  0.00  0.00    +0.000 OA
ATOM      5  C   UNL     1       2.466   4.679  21.543  0.00  0.00    +0.000 C 
ATOM      6  C   UNL     1       2.249   4.845  20.032  0.00  0.00    +0.000 C 
ENDROOT
BRANCH   6   7
ATOM      7  N   UNL     1       2.684   6.168  19.565  0.00  0.00    +0.000 N 
ATOM      8  C   UNL     1       2.317   6.632  18.319  0.00  0.00    +0.000 C 
ATOM      9  O   UNL     1       1.572   6.008  17.567  0.00  0.00    +0.000 OA
ATOM     10  H   UNL     1       3.524   6.551  19.980  0.00  0.00    +0.000 HD
BRANCH   8  11
ATOM     11  C   UNL     1       2.832   8.015  17.977  0.00  0.00    +0.000 C 
BRANCH  11  12
ATOM     12  C   UNL     1       1.675   9.003  17.808  0.00  0.00    +0.000 C 
BRANCH  12  13
ATOM     13  C   UNL     1       1.129   9.513  19.143  0.00  0.00    +0.000 C 
BRANCH  13  14
ATOM     14  N   UNL     1      -0.131  10.216  18.987  0.00  0.00    +0.000 N 
ATOM     15  C   UNL     1      -0.951  10.189  17.898  0.00  0.00    +0.000 A 
ATOM     16  C   UNL     1      -1.992  11.031  18.222  0.00  0.00    +0.000 A 
ATOM     17  N   UNL     1      -1.816  11.567  19.470  0.00  0.00    +0.000 NA
ATOM     18  C   UNL     1      -0.682  11.063  19.906  0.00  0.00    +0.000 A 
ENDBRANCH  13  14
ENDBRANCH  12  13
ENDBRANCH  11  12
ENDBRANCH   8  11
ENDBRANCH   6   7
BRANCH   1  19
ATOM     19  O   UNL     1       4.325   3.847  19.225  0.00  0.00    +0.000 OA
BRANCH  19  24
ATOM     20  C   UNL     1       7.368   4.887  14.599  0.00  0.00    +0.000 C 
ATOM     21  C   UNL     1       6.498   4.621  15.791  0.00  0.00    +0.000 A 
ATOM     22  C   UNL     1       5.175   4.223  15.630  0.00  0.00    +0.000 A 
ATOM     23  C   UNL     1       4.397   3.964  16.760  0.00  0.00    +0.000 A 
ATOM     24  C   UNL     1       4.946   4.097  18.031  0.00  0.00    +0.000 A 
ATOM     25  C   UNL     1       6.269   4.524  18.093  0.00  0.00    +0.000 A 
ATOM     26  N   UNL     1       7.053   4.789  17.014  0.00  0.00    +0.000 NA
ENDBRANCH  19  24
ENDBRANCH   1  19
TORSDOF 7
ENDMDL
MODEL 9
REMARK VINA RESULT:      -6.6      4.966      7.994
REMARK  Name = 
REMARK  8 active torsions:
REMARK  status: ('A' for Active; 'I' for Inactive)
REMARK    1  A    between atoms: C_1  and  C_2
REMARK    2  A    between atoms: C_5  and  O_6
REMARK    3  A    between atoms: O_6  and  C_7
REMARK    4  A    between atoms: C_12  and  N_13
REMARK    5  A    between atoms: C_14  and  C_16
REMARK    6  A    between atoms: C_16  and  C_17
REMARK    7  A    between atoms: C_17  and  C_18
REMARK    8  A    between atoms: C_18  and  N_19
REMARK                            x       y       z     vdW  Elec       q    Type
REMARK                         _______ _______ _______ _____ _____    ______ ____
ROOT
ATOM      1  C   UNL     1      -0.328  11.703  19.154  0.00  0.00    +0.000 C 
ATOM      2  C   UNL     1      -0.643  13.044  19.834  0.00  0.00    +0.000 C 
ATOM      3  C   UNL     1      -0.942  12.842  21.313  0.00  0.00    +0.000 C 
ATOM      4  O   UNL     1       0.194  12.267  21.954  0.00  0.00    +0.000 OA
ATOM      5  C   UNL     1       0.485  10.960  21.458  0.00  0.00    +0.000 C 
ATOM      6  C   UNL     1       0.778  10.964  19.951  0.00  0.00    +0.000 C 
ENDROOT
BRANCH   6   7
ATOM      7  N   UNL     1       1.032   9.609  19.445  0.00  0.00    +0.000 N 
ATOM      8  C   UNL     1       1.783   9.411  18.305  0.00  0.00    +0.000 C 
ATOM      9  O   UNL     1       2.322  10.329  17.693  0.00  0.00    +0.000 OA
ATOM     10  H   UNL     1       0.370   8.888  19.702  0.00  0.00    +0.000 HD
BRANCH   8  11
ATOM     11  C   UNL     1       1.969   7.960  17.909  0.00  0.00    +0.000 C 
BRANCH  11  12
ATOM     12  C   UNL     1       2.546   7.146  19.070  0.00  0.00    +0.000 C 
BRANCH  12  13
ATOM     13  C   UNL     1       3.469   6.018  18.603  0.00  0.00    +0.000 C 
BRANCH  13  14
ATOM     14  N   UNL     1       2.742   4.792  18.333  0.00  0.00    +0.000 N 
ATOM     15  C   UNL     1       1.703   4.283  19.055  0.00  0.00    +0.000 A 
ATOM     16  C   UNL     1       1.380   3.103  18.421  0.00  0.00    +0.000 A 
ATOM     17  N   UNL     1       2.200   2.887  17.346  0.00  0.00    +0.000 NA
ATOM     18  C   UNL     1       3.016   3.918  17.319  0.00  0.00    +0.000 A 
ENDBRANCH  13  14
ENDBRANCH  12  13
ENDBRANCH  11  12
ENDBRANCH   8  11
ENDBRANCH   6   7
BRANCH   1  19
ATOM     19  O   UNL     1      -1.511  10.879  19.106  0.00  0.00    +0.000 OA
BRANCH  19  24
ATOM     20  C   UNL     1      -4.063  10.111  14.143  0.00  0.00    +0.000 C 
ATOM     21  C   UNL     1      -3.415  10.380  15.469  0.00  0.00    +0.000 A 
ATOM     22  C   UNL     1      -3.969  11.298  16.355  0.00  0.00    +0.000 A 
ATOM     23  C   UNL     1      -3.353  11.511  17.590  0.00  0.00    +0.000 A 
ATOM     24  C   UNL     1      -2.203  10.805  17.928  0.00  0.00    +0.000 A 
ATOM     25  C   UNL     1      -1.710   9.927  16.968  0.00  0.00    +0.000 A 
ATOM     26  N   UNL     1      -2.282   9.700  15.755  0.00  0.00    +0.000 NA
ENDBRANCH  19  24
ENDBRANCH   1  19
TORSDOF 7
ENDMDL
