MODEL 1
REMARK VINA RESULT:      -7.8      0.000      0.000
REMARK  Name = 
REMARK  5 active torsions:
REMARK  status: ('A' for Active; 'I' for Inactive)
REMARK    1  A    between atoms: C_2  and  C_3
REMARK    2  A    between atoms: C_2  and  C_19
REMARK    3  A    between atoms: C_3  and  N_4
REMARK    4  A    between atoms: C_8  and  S_9
REMARK    5  A    between atoms: S_9  and  N_12
REMARK                            x       y       z     vdW  Elec       q    Type
REMARK                         _______ _______ _______ _____ _____    ______ ____
ROOT
ATOM      1  N   UNL     1       1.200   9.107  19.362  0.00  0.00    +0.000 N 
ATOM      2  C   UNL     1       1.701   9.451  18.116  0.00  0.00    +0.000 A 
ATOM      3  C   UNL     1       2.614   8.690  17.506  0.00  0.00    +0.000 A 
ATOM      4  C   UNL     1       2.957   7.409  18.069  0.00  0.00    +0.000 A 
ATOM      5  C   UNL     1       2.467   7.016  19.259  0.00  0.00    +0.000 A 
ATOM      6  C   UNL     1       1.646   7.975  20.058  0.00  0.00    +0.000 A 
ATOM      7  O   UNL     1       1.378   7.773  21.236  0.00  0.00    +0.000 OA
ENDROOT
BRANCH   5   8
ATOM      8  S   UNL     1       2.740   5.386  19.784  0.00  0.00    +0.000 S 
ATOM      9  O   UNL     1       4.187   5.187  19.870  0.00  0.00    +0.000 OA
ATOM     10  O   UNL     1       1.945   5.086  20.952  0.00  0.00    +0.000 OA
BRANCH   8  11
ATOM     11  N   UNL     1       2.257   4.316  18.541  0.00  0.00    +0.000 NA
ATOM     12  C   UNL     1       1.129   3.401  18.804  0.00  0.00    +0.000 C 
ATOM     13  C   UNL     1       1.796   2.044  18.914  0.00  0.00    +0.000 C 
ATOM     14  C   UNL     1       2.895   2.103  17.869  0.00  0.00    +0.000 C 
ATOM     15  C   UNL     1       3.296   3.575  17.794  0.00  0.00    +0.000 C 
ENDBRANCH   8  11
ENDBRANCH   5   8
BRANCH   1  16
ATOM     16  C   UNL     1       0.255  10.024  20.007  0.00  0.00    +0.000 C 
BRANCH  16  18
ATOM     17  O   UNL     1       0.400  12.190  18.899  0.00  0.00    +0.000 OA
ATOM     18  C   UNL     1      -0.244  11.168  19.099  0.00  0.00    +0.000 C 
BRANCH  18  19
ATOM     19  C   UNL     1      -1.588  10.963  18.455  0.00  0.00    +0.000 A 
ATOM     20  C   UNL     1      -1.702  10.056  17.384  0.00  0.00    +0.000 A 
ATOM     21  C   UNL     1      -2.886   9.954  16.650  0.00  0.00    +0.000 A 
ATOM     22  C   UNL     1      -3.985  10.729  16.996  0.00  0.00    +0.000 A 
ATOM     23  C   UNL     1      -3.913  11.575  18.103  0.00  0.00    +0.000 A 
ATOM     24  C   UNL     1      -2.722  11.696  18.837  0.00  0.00    +0.000 A 
ATOM     25 CL   UNL     1      -2.743  12.825  20.144  0.00  0.00    +0.000 Cl
ENDBRANCH  18  19
ENDBRANCH  16  18
ENDBRANCH   1  16
TORSDOF 5
ENDMDL
MODEL 2
REMARK VINA RESULT:      -7.8      3.094      7.624
REMARK  Name = 
REMARK  5 active torsions:
REMARK  status: ('A' for Active; 'I' for Inactive)
REMARK    1  A    between atoms: C_2  and  C_3
REMARK    2  A    between atoms: C_2  and  C_19
REMARK    3  A    between atoms: C_3  and  N_4
REMARK    4  A    between atoms: C_8  and  S_9
REMARK    5  A    between atoms: S_9  and  N_12
REMARK                            x       y       z     vdW  Elec       q    Type
REMARK                         _______ _______ _______ _____ _____    ______ ____
ROOT
ATOM      1  N   UNL     1       1.876   8.032  19.213  0.00  0.00    +0.000 N 
ATOM      2  C   UNL     1       1.795   7.673  20.549  0.00  0.00    +0.000 A 
ATOM      3  C   UNL     1       1.181   8.459  21.439  0.00  0.00    +0.000 A 
ATOM      4  C   UNL     1       0.447   9.610  20.977  0.00  0.00    +0.000 A 
ATOM      5  C   UNL     1       0.467   9.977  19.683  0.00  0.00    +0.000 A 
ATOM      6  C   UNL     1       1.357   9.243  18.734  0.00  0.00    +0.000 A 
ATOM      7  O   UNL     1       1.604   9.673  17.614  0.00  0.00    +0.000 OA
ENDROOT
BRANCH   5   8
ATOM      8  S   UNL     1      -0.600  11.235  19.150  0.00  0.00    +0.000 S 
ATOM      9  O   UNL     1      -1.151  11.882  20.342  0.00  0.00    +0.000 OA
ATOM     10  O   UNL     1       0.047  12.071  18.166  0.00  0.00    +0.000 OA
BRANCH   8  11
ATOM     11  N   UNL     1      -1.966  10.524  18.407  0.00  0.00    +0.000 NA
ATOM     12  C   UNL     1      -1.798   9.911  17.074  0.00  0.00    +0.000 C 
ATOM     13  C   UNL     1      -2.523  10.872  16.151  0.00  0.00    +0.000 C 
ATOM     14  C   UNL     1      -3.718  11.319  16.973  0.00  0.00    +0.000 C 
ATOM     15  C   UNL     1      -3.250  11.258  18.426  0.00  0.00    +0.000 C 
ENDBRANCH   8  11
ENDBRANCH   5   8
BRANCH   1  16
ATOM     16  C   UNL     1       2.626   7.160  18.304  0.00  0.00    +0.000 C 
BRANCH  16  18
ATOM     17  O   UNL     1       4.292   5.961  19.618  0.00  0.00    +0.000 OA
ATOM     18  C   UNL     1       3.248   5.920  18.980  0.00  0.00    +0.000 C 
BRANCH  18  19
ATOM     19  C   UNL     1       2.493   4.628  18.817  0.00  0.00    +0.000 A 
ATOM     20  C   UNL     1       1.449   4.328  19.713  0.00  0.00    +0.000 A 
ATOM     21  C   UNL     1       0.832   3.075  19.705  0.00  0.00    +0.000 A 
ATOM     22  C   UNL     1       1.222   2.117  18.779  0.00  0.00    +0.000 A 
ATOM     23  C   UNL     1       2.200   2.426  17.834  0.00  0.00    +0.000 A 
ATOM     24  C   UNL     1       2.838   3.677  17.844  0.00  0.00    +0.000 A 
ATOM     25 CL   UNL     1       4.076   3.911  16.664  0.00  0.00    +0.000 Cl
ENDBRANCH  18  19
ENDBRANCH  16  18
ENDBRANCH   1  16
TORSDOF 5
ENDMDL
MODEL 3
REMARK VINA RESULT:      -7.7      2.065      2.760
REMARK  Name = 
REMARK  5 active torsions:
REMARK  status: ('A' for Active; 'I' for Inactive)
REMARK    1  A    between atoms: C_2  and  C_3
REMARK    2  A    between atoms: C_2  and  C_19
REMARK    3  A    between atoms: C_3  and  N_4
REMARK    4  A    between atoms: C_8  and  S_9
REMARK    5  A    between atoms: S_9  and  N_12
REMARK                            x       y       z     vdW  Elec       q    Type
REMARK                         _______ _______ _______ _____ _____    ______ ____
ROOT
ATOM      1  N   UNL     1       0.926   9.013  19.931  0.00  0.00    +0.000 N 
ATOM      2  C   UNL     1       1.077   9.821  18.815  0.00  0.00    +0.000 A 
ATOM      3  C   UNL     1       1.941   9.504  17.846  0.00  0.00    +0.000 A 
ATOM      4  C   UNL     1       2.602   8.224  17.878  0.00  0.00    +0.000 A 
ATOM      5  C   UNL     1       2.458   7.390  18.924  0.00  0.00    +0.000 A 
ATOM      6  C   UNL     1       1.691   7.853  20.120  0.00  0.00    +0.000 A 
ATOM      7  O   UNL     1       1.727   7.250  21.186  0.00  0.00    +0.000 OA
ENDROOT
BRANCH   5   8
ATOM      8  S   UNL     1       3.099   5.784  18.812  0.00  0.00    +0.000 S 
ATOM      9  O   UNL     1       3.447   5.543  17.412  0.00  0.00    +0.000 OA
ATOM     10  O   UNL     1       4.122   5.571  19.810  0.00  0.00    +0.000 OA
BRANCH   8  11
ATOM     11  N   UNL     1       1.842   4.664  19.116  0.00  0.00    +0.000 NA
ATOM     12  C   UNL     1       1.894   3.873  20.361  0.00  0.00    +0.000 C 
ATOM     13  C   UNL     1       2.231   2.476  19.876  0.00  0.00    +0.000 C 
ATOM     14  C   UNL     1       1.461   2.358  18.573  0.00  0.00    +0.000 C 
ATOM     15  C   UNL     1       1.395   3.780  18.018  0.00  0.00    +0.000 C 
ENDBRANCH   8  11
ENDBRANCH   5   8
BRANCH   1  16
ATOM     16  C   UNL     1       0.014   9.455  20.990  0.00  0.00    +0.000 C 
BRANCH  16  18
ATOM     17  O   UNL     1       1.252  11.504  21.444  0.00  0.00    +0.000 OA
ATOM     18  C   UNL     1       0.168  10.939  21.384  0.00  0.00    +0.000 C 
BRANCH  18  19
ATOM     19  C   UNL     1      -1.106  11.676  21.698  0.00  0.00    +0.000 A 
ATOM     20  C   UNL     1      -1.616  11.631  23.010  0.00  0.00    +0.000 A 
ATOM     21  C   UNL     1      -2.874  12.159  23.311  0.00  0.00    +0.000 A 
ATOM     22  C   UNL     1      -3.625  12.772  22.316  0.00  0.00    +0.000 A 
ATOM     23  C   UNL     1      -3.099  12.894  21.030  0.00  0.00    +0.000 A 
ATOM     24  C   UNL     1      -1.843  12.352  20.714  0.00  0.00    +0.000 A 
ATOM     25 CL   UNL     1      -1.335  12.513  19.071  0.00  0.00    +0.000 Cl
ENDBRANCH  18  19
ENDBRANCH  16  18
ENDBRANCH   1  16
TORSDOF 5
ENDMDL
MODEL 4
REMARK VINA RESULT:      -7.7      4.476      7.108
REMARK  Name = 
REMARK  5 active torsions:
REMARK  status: ('A' for Active; 'I' for Inactive)
REMARK    1  A    between atoms: C_2  and  C_3
REMARK    2  A    between atoms: C_2  and  C_19
REMARK    3  A    between atoms: C_3  and  N_4
REMARK    4  A    between atoms: C_8  and  S_9
REMARK    5  A    between atoms: S_9  and  N_12
REMARK                            x       y       z     vdW  Elec       q    Type
REMARK                         _______ _______ _______ _____ _____    ______ ____
ROOT
ATOM      1  N   UNL     1       3.016   6.326  19.365  0.00  0.00    +0.000 N 
ATOM      2  C   UNL     1       2.358   7.460  18.913  0.00  0.00    +0.000 A 
ATOM      3  C   UNL     1       2.793   8.128  17.841  0.00  0.00    +0.000 A 
ATOM      4  C   UNL     1       3.856   7.571  17.043  0.00  0.00    +0.000 A 
ATOM      5  C   UNL     1       4.500   6.452  17.422  0.00  0.00    +0.000 A 
ATOM      6  C   UNL     1       4.181   5.847  18.750  0.00  0.00    +0.000 A 
ATOM      7  O   UNL     1       4.890   4.985  19.256  0.00  0.00    +0.000 OA
ENDROOT
BRANCH   5   8
ATOM      8  S   UNL     1       5.617   5.712  16.323  0.00  0.00    +0.000 S 
ATOM      9  O   UNL     1       5.453   4.263  16.435  0.00  0.00    +0.000 OA
ATOM     10  O   UNL     1       5.510   6.305  15.010  0.00  0.00    +0.000 OA
BRANCH   8  11
ATOM     11  N   UNL     1       7.209   5.985  16.884  0.00  0.00    +0.000 NA
ATOM     12  C   UNL     1       7.804   5.001  17.809  0.00  0.00    +0.000 C 
ATOM     13  C   UNL     1       7.835   5.738  19.134  0.00  0.00    +0.000 C 
ATOM     14  C   UNL     1       8.172   7.164  18.738  0.00  0.00    +0.000 C 
ATOM     15  C   UNL     1       7.580   7.342  17.341  0.00  0.00    +0.000 C 
ENDBRANCH   8  11
ENDBRANCH   5   8
BRANCH   1  16
ATOM     16  C   UNL     1       2.529   5.683  20.589  0.00  0.00    +0.000 C 
BRANCH  16  18
ATOM     17  O   UNL     1       0.476   4.380  20.758  0.00  0.00    +0.000 OA
ATOM     18  C   UNL     1       1.627   4.455  20.346  0.00  0.00    +0.000 C 
BRANCH  18  19
ATOM     19  C   UNL     1       2.241   3.326  19.562  0.00  0.00    +0.000 A 
ATOM     20  C   UNL     1       3.082   2.412  20.225  0.00  0.00    +0.000 A 
ATOM     21  C   UNL     1       3.803   1.450  19.512  0.00  0.00    +0.000 A 
ATOM     22  C   UNL     1       3.666   1.363  18.133  0.00  0.00    +0.000 A 
ATOM     23  C   UNL     1       2.776   2.210  17.472  0.00  0.00    +0.000 A 
ATOM     24  C   UNL     1       2.060   3.191  18.177  0.00  0.00    +0.000 A 
ATOM     25 CL   UNL     1       1.042   4.218  17.234  0.00  0.00    +0.000 Cl
ENDBRANCH  18  19
ENDBRANCH  16  18
ENDBRANCH   1  16
TORSDOF 5
ENDMDL
MODEL 5
REMARK VINA RESULT:      -7.6      3.626      7.960
REMARK  Name = 
REMARK  5 active torsions:
REMARK  status: ('A' for Active; 'I' for Inactive)
REMARK    1  A    between atoms: C_2  and  C_3
REMARK    2  A    between atoms: C_2  and  C_19
REMARK    3  A    between atoms: C_3  and  N_4
REMARK    4  A    between atoms: C_8  and  S_9
REMARK    5  A    between atoms: S_9  and  N_12
REMARK                            x       y       z     vdW  Elec       q    Type
REMARK                         _______ _______ _______ _____ _____    ______ ____
ROOT
ATOM      1  N   UNL     1       2.041   7.893  19.246  0.00  0.00    +0.000 N 
ATOM      2  C   UNL     1       1.912   7.534  20.579  0.00  0.00    +0.000 A 
ATOM      3  C   UNL     1       1.233   8.300  21.437  0.00  0.00    +0.000 A 
ATOM      4  C   UNL     1       0.482   9.425  20.939  0.00  0.00    +0.000 A 
ATOM      5  C   UNL     1       0.547   9.790  19.646  0.00  0.00    +0.000 A 
ATOM      6  C   UNL     1       1.504   9.085  18.741  0.00  0.00    +0.000 A 
ATOM      7  O   UNL     1       1.786   9.520  17.631  0.00  0.00    +0.000 OA
ENDROOT
BRANCH   5   8
ATOM      8  S   UNL     1      -0.537  11.010  19.062  0.00  0.00    +0.000 S 
ATOM      9  O   UNL     1      -1.102  10.531  17.800  0.00  0.00    +0.000 OA
ATOM     10  O   UNL     1      -1.453  11.419  20.101  0.00  0.00    +0.000 OA
BRANCH   8  11
ATOM     11  N   UNL     1       0.372  12.384  18.604  0.00  0.00    +0.000 NA
ATOM     12  C   UNL     1       1.553  12.745  19.412  0.00  0.00    +0.000 C 
ATOM     13  C   UNL     1       1.111  14.001  20.139  0.00  0.00    +0.000 C 
ATOM     14  C   UNL     1       0.267  14.728  19.108  0.00  0.00    +0.000 C 
ATOM     15  C   UNL     1      -0.347  13.627  18.246  0.00  0.00    +0.000 C 
ENDBRANCH   8  11
ENDBRANCH   5   8
BRANCH   1  16
ATOM     16  C   UNL     1       2.860   7.045  18.375  0.00  0.00    +0.000 C 
BRANCH  16  18
ATOM     17  O   UNL     1       4.421   5.743  19.720  0.00  0.00    +0.000 OA
ATOM     18  C   UNL     1       3.395   5.765  19.052  0.00  0.00    +0.000 C 
BRANCH  18  19
ATOM     19  C   UNL     1       2.578   4.518  18.850  0.00  0.00    +0.000 A 
ATOM     20  C   UNL     1       1.495   4.263  19.713  0.00  0.00    +0.000 A 
ATOM     21  C   UNL     1       0.812   3.045  19.670  0.00  0.00    +0.000 A 
ATOM     22  C   UNL     1       1.176   2.079  18.741  0.00  0.00    +0.000 A 
ATOM     23  C   UNL     1       2.195   2.348  17.827  0.00  0.00    +0.000 A 
ATOM     24  C   UNL     1       2.898   3.563  17.873  0.00  0.00    +0.000 A 
ATOM     25 CL   UNL     1       4.179   3.745  16.730  0.00  0.00    +0.000 Cl
ENDBRANCH  18  19
ENDBRANCH  16  18
ENDBRANCH   1  16
TORSDOF 5
ENDMDL
MODEL 6
REMARK VINA RESULT:      -7.6      1.302      1.768
REMARK  Name = 
REMARK  5 active torsions:
REMARK  status: ('A' for Active; 'I' for Inactive)
REMARK    1  A    between atoms: C_2  and  C_3
REMARK    2  A    between atoms: C_2  and  C_19
REMARK    3  A    between atoms: C_3  and  N_4
REMARK    4  A    between atoms: C_8  and  S_9
REMARK    5  A    between atoms: S_9  and  N_12
REMARK                            x       y       z     vdW  Elec       q    Type
REMARK                         _______ _______ _______ _____ _____    ______ ____
ROOT
ATOM      1  N   UNL     1       1.447   9.258  19.184  0.00  0.00    +0.000 N 
ATOM      2  C   UNL     1       0.976   9.015  20.465  0.00  0.00    +0.000 A 
ATOM      3  C   UNL     1       1.171   7.833  21.058  0.00  0.00    +0.000 A 
ATOM      4  C   UNL     1       2.025   6.858  20.428  0.00  0.00    +0.000 A 
ATOM      5  C   UNL     1       2.534   7.065  19.201  0.00  0.00    +0.000 A 
ATOM      6  C   UNL     1       2.111   8.276  18.435  0.00  0.00    +0.000 A 
ATOM      7  O   UNL     1       2.342   8.399  17.238  0.00  0.00    +0.000 OA
ENDROOT
BRANCH   5   8
ATOM      8  S   UNL     1       3.721   5.961  18.586  0.00  0.00    +0.000 S 
ATOM      9  O   UNL     1       4.588   6.708  17.674  0.00  0.00    +0.000 OA
ATOM     10  O   UNL     1       4.343   5.228  19.664  0.00  0.00    +0.000 OA
BRANCH   8  11
ATOM     11  N   UNL     1       2.946   4.825  17.570  0.00  0.00    +0.000 NA
ATOM     12  C   UNL     1       1.500   4.594  17.752  0.00  0.00    +0.000 C 
ATOM     13  C   UNL     1       1.440   3.209  18.368  0.00  0.00    +0.000 C 
ATOM     14  C   UNL     1       2.556   2.459  17.664  0.00  0.00    +0.000 C 
ATOM     15  C   UNL     1       3.602   3.521  17.329  0.00  0.00    +0.000 C 
ENDBRANCH   8  11
ENDBRANCH   5   8
BRANCH   1  16
ATOM     16  C   UNL     1       1.137  10.550  18.564  0.00  0.00    +0.000 C 
BRANCH  16  18
ATOM     17  O   UNL     1      -0.054  12.003  20.117  0.00  0.00    +0.000 OA
ATOM     18  C   UNL     1      -0.105  11.255  19.149  0.00  0.00    +0.000 C 
BRANCH  18  19
ATOM     19  C   UNL     1      -1.412  10.974  18.459  0.00  0.00    +0.000 A 
ATOM     20  C   UNL     1      -1.441  10.047  17.399  0.00  0.00    +0.000 A 
ATOM     21  C   UNL     1      -2.590   9.876  16.624  0.00  0.00    +0.000 A 
ATOM     22  C   UNL     1      -3.739  10.600  16.918  0.00  0.00    +0.000 A 
ATOM     23  C   UNL     1      -3.750  11.463  18.014  0.00  0.00    +0.000 A 
ATOM     24  C   UNL     1      -2.595  11.654  18.789  0.00  0.00    +0.000 A 
ATOM     25 CL   UNL     1      -2.722  12.798  20.076  0.00  0.00    +0.000 Cl
ENDBRANCH  18  19
ENDBRANCH  16  18
ENDBRANCH   1  16
TORSDOF 5
ENDMDL
MODEL 7
REMARK VINA RESULT:      -7.5      6.446      8.432
REMARK  Name = 
REMARK  5 active torsions:
REMARK  status: ('A' for Active; 'I' for Inactive)
REMARK    1  A    between atoms: C_2  and  C_3
REMARK    2  A    between atoms: C_2  and  C_19
REMARK    3  A    between atoms: C_3  and  N_4
REMARK    4  A    between atoms: C_8  and  S_9
REMARK    5  A    between atoms: S_9  and  N_12
REMARK                            x       y       z     vdW  Elec       q    Type
REMARK                         _______ _______ _______ _____ _____    ______ ____
ROOT
ATOM      1  N   UNL     1       5.316   5.189  17.159  0.00  0.00    +0.000 N 
ATOM      2  C   UNL     1       6.089   5.919  18.048  0.00  0.00    +0.000 A 
ATOM      3  C   UNL     1       6.106   5.623  19.351  0.00  0.00    +0.000 A 
ATOM      4  C   UNL     1       5.446   4.428  19.814  0.00  0.00    +0.000 A 
ATOM      5  C   UNL     1       4.712   3.669  18.980  0.00  0.00    +0.000 A 
ATOM      6  C   UNL     1       4.488   4.138  17.579  0.00  0.00    +0.000 A 
ATOM      7  O   UNL     1       3.644   3.629  16.852  0.00  0.00    +0.000 OA
ENDROOT
BRANCH   5   8
ATOM      8  S   UNL     1       4.122   2.138  19.538  0.00  0.00    +0.000 S 
ATOM      9  O   UNL     1       3.930   1.284  18.365  0.00  0.00    +0.000 OA
ATOM     10  O   UNL     1       4.945   1.635  20.613  0.00  0.00    +0.000 OA
BRANCH   8  11
ATOM     11  N   UNL     1       2.540   2.345  20.152  0.00  0.00    +0.000 NA
ATOM     12  C   UNL     1       1.404   2.229  19.217  0.00  0.00    +0.000 C 
ATOM     13  C   UNL     1       0.911   3.657  19.083  0.00  0.00    +0.000 C 
ATOM     14  C   UNL     1       1.083   4.224  20.481  0.00  0.00    +0.000 C 
ATOM     15  C   UNL     1       2.275   3.473  21.073  0.00  0.00    +0.000 C 
ENDBRANCH   8  11
ENDBRANCH   5   8
BRANCH   1  16
ATOM     16  C   UNL     1       5.287   5.612  15.755  0.00  0.00    +0.000 C 
BRANCH  16  18
ATOM     17  O   UNL     1       7.694   5.757  15.403  0.00  0.00    +0.000 OA
ATOM     18  C   UNL     1       6.607   5.373  14.992  0.00  0.00    +0.000 C 
BRANCH  18  19
ATOM     19  C   UNL     1       6.493   4.629  13.689  0.00  0.00    +0.000 A 
ATOM     20  C   UNL     1       5.459   3.687  13.528  0.00  0.00    +0.000 A 
ATOM     21  C   UNL     1       5.411   2.856  12.406  0.00  0.00    +0.000 A 
ATOM     22  C   UNL     1       6.371   2.979  11.411  0.00  0.00    +0.000 A 
ATOM     23  C   UNL     1       7.356   3.962  11.518  0.00  0.00    +0.000 A 
ATOM     24  C   UNL     1       7.422   4.790  12.650  0.00  0.00    +0.000 A 
ATOM     25 CL   UNL     1       8.727   5.921  12.691  0.00  0.00    +0.000 Cl
ENDBRANCH  18  19
ENDBRANCH  16  18
ENDBRANCH   1  16
TORSDOF 5
ENDMDL
MODEL 8
REMARK VINA RESULT:      -7.5      3.469      8.015
REMARK  Name = 
REMARK  5 active torsions:
REMARK  status: ('A' for Active; 'I' for Inactive)
REMARK    1  A    between atoms: C_2  and  C_3
REMARK    2  A    between atoms: C_2  and  C_19
REMARK    3  A    between atoms: C_3  and  N_4
REMARK    4  A    between atoms: C_8  and  S_9
REMARK    5  A    between atoms: S_9  and  N_12
REMARK                            x       y       z     vdW  Elec       q    Type
REMARK                         _______ _______ _______ _____ _____    ______ ____
ROOT
ATOM      1  N   UNL     1       3.138   6.333  19.084  0.00  0.00    +0.000 N 
ATOM      2  C   UNL     1       3.376   7.035  17.913  0.00  0.00    +0.000 A 
ATOM      3  C   UNL     1       2.724   8.171  17.646  0.00  0.00    +0.000 A 
ATOM      4  C   UNL     1       1.889   8.763  18.661  0.00  0.00    +0.000 A 
ATOM      5  C   UNL     1       1.658   8.134  19.828  0.00  0.00    +0.000 A 
ATOM      6  C   UNL     1       2.185   6.750  20.023  0.00  0.00    +0.000 A 
ATOM      7  O   UNL     1       1.811   6.040  20.948  0.00  0.00    +0.000 OA
ENDROOT
BRANCH   5   8
ATOM      8  S   UNL     1       0.827   8.985  21.089  0.00  0.00    +0.000 S 
ATOM      9  O   UNL     1      -0.464   8.326  21.289  0.00  0.00    +0.000 OA
ATOM     10  O   UNL     1       1.684   9.157  22.239  0.00  0.00    +0.000 OA
BRANCH   8  11
ATOM     11  N   UNL     1       0.405  10.542  20.522  0.00  0.00    +0.000 NA
ATOM     12  C   UNL     1       0.564  11.688  21.439  0.00  0.00    +0.000 C 
ATOM     13  C   UNL     1      -0.865  12.064  21.782  0.00  0.00    +0.000 C 
ATOM     14  C   UNL     1      -1.613  11.839  20.481  0.00  0.00    +0.000 C 
ATOM     15  C   UNL     1      -0.862  10.710  19.778  0.00  0.00    +0.000 C 
ENDBRANCH   8  11
ENDBRANCH   5   8
BRANCH   1  16
ATOM     16  C   UNL     1       3.834   5.057  19.281  0.00  0.00    +0.000 C 
BRANCH  16  18
ATOM     17  O   UNL     1       6.205   5.263  19.805  0.00  0.00    +0.000 OA
ATOM     18  C   UNL     1       5.341   5.097  18.954  0.00  0.00    +0.000 C 
BRANCH  18  19
ATOM     19  C   UNL     1       5.709   4.917  17.506  0.00  0.00    +0.000 A 
ATOM     20  C   UNL     1       5.094   3.889  16.766  0.00  0.00    +0.000 A 
ATOM     21  C   UNL     1       5.520   3.578  15.473  0.00  0.00    +0.000 A 
ATOM     22  C   UNL     1       6.541   4.314  14.884  0.00  0.00    +0.000 A 
ATOM     23  C   UNL     1       7.106   5.387  15.574  0.00  0.00    +0.000 A 
ATOM     24  C   UNL     1       6.695   5.696  16.881  0.00  0.00    +0.000 A 
ATOM     25 CL   UNL     1       7.519   7.005  17.648  0.00  0.00    +0.000 Cl
ENDBRANCH  18  19
ENDBRANCH  16  18
ENDBRANCH   1  16
TORSDOF 5
ENDMDL
MODEL 9
REMARK VINA RESULT:      -7.5      2.605      3.236
REMARK  Name = 
REMARK  5 active torsions:
REMARK  status: ('A' for Active; 'I' for Inactive)
REMARK    1  A    between atoms: C_2  and  C_3
REMARK    2  A    between atoms: C_2  and  C_19
REMARK    3  A    between atoms: C_3  and  N_4
REMARK    4  A    between atoms: C_8  and  S_9
REMARK    5  A    between atoms: S_9  and  N_12
REMARK                            x       y       z     vdW  Elec       q    Type
REMARK                         _______ _______ _______ _____ _____    ______ ____
ROOT
ATOM      1  N   UNL     1       0.952   8.651  20.009  0.00  0.00    +0.000 N 
ATOM      2  C   UNL     1       1.005   9.573  18.975  0.00  0.00    +0.000 A 
ATOM      3  C   UNL     1       1.891   9.447  17.983  0.00  0.00    +0.000 A 
ATOM      4  C   UNL     1       2.688   8.249  17.895  0.00  0.00    +0.000 A 
ATOM      5  C   UNL     1       2.644   7.310  18.857  0.00  0.00    +0.000 A 
ATOM      6  C   UNL     1       1.841   7.570  20.089  0.00  0.00    +0.000 A 
ATOM      7  O   UNL     1       1.951   6.876  21.092  0.00  0.00    +0.000 OA
ENDROOT
BRANCH   5   8
ATOM      8  S   UNL     1       3.456   5.801  18.594  0.00  0.00    +0.000 S 
ATOM      9  O   UNL     1       3.923   5.785  17.208  0.00  0.00    +0.000 OA
ATOM     10  O   UNL     1       4.425   5.554  19.637  0.00  0.00    +0.000 OA
BRANCH   8  11
ATOM     11  N   UNL     1       2.306   4.537  18.650  0.00  0.00    +0.000 NA
ATOM     12  C   UNL     1       2.273   3.671  19.845  0.00  0.00    +0.000 C 
ATOM     13  C   UNL     1       2.832   2.354  19.341  0.00  0.00    +0.000 C 
ATOM     14  C   UNL     1       2.271   2.246  17.935  0.00  0.00    +0.000 C 
ATOM     15  C   UNL     1       2.122   3.688  17.452  0.00  0.00    +0.000 C 
ENDBRANCH   8  11
ENDBRANCH   5   8
BRANCH   1  16
ATOM     16  C   UNL     1       0.005   8.889  21.103  0.00  0.00    +0.000 C 
BRANCH  16  18
ATOM     17  O   UNL     1       1.506   9.741  22.823  0.00  0.00    +0.000 OA
ATOM     18  C   UNL     1       0.492   9.905  22.157  0.00  0.00    +0.000 C 
BRANCH  18  19
ATOM     19  C   UNL     1      -0.356  11.136  22.332  0.00  0.00    +0.000 A 
ATOM     20  C   UNL     1      -1.514  11.060  23.129  0.00  0.00    +0.000 A 
ATOM     21  C   UNL     1      -2.418  12.123  23.188  0.00  0.00    +0.000 A 
ATOM     22  C   UNL     1      -2.161  13.292  22.483  0.00  0.00    +0.000 A 
ATOM     23  C   UNL     1      -0.978  13.411  21.751  0.00  0.00    +0.000 A 
ATOM     24  C   UNL     1      -0.072  12.342  21.673  0.00  0.00    +0.000 A 
ATOM     25 CL   UNL     1       1.320  12.593  20.683  0.00  0.00    +0.000 Cl
ENDBRANCH  18  19
ENDBRANCH  16  18
ENDBRANCH   1  16
TORSDOF 5
ENDMDL
