MODEL 1
REMARK VINA RESULT:      -8.3      0.000      0.000
REMARK  Name = 
REMARK  7 active torsions:
REMARK  status: ('A' for Active; 'I' for Inactive)
REMARK    1  A    between atoms: C_1  and  C_2
REMARK    2  A    between atoms: C_7  and  C_8
REMARK    3  A    between atoms: N_11  and  C_12
REMARK    4  A    between atoms: C_12  and  C_13
REMARK    5  A    between atoms: C_13  and  N_14
REMARK    6  A    between atoms: C_16  and  C_17
REMARK    7  A    between atoms: C_21  and  O_22
REMARK                            x       y       z     vdW  Elec       q    Type
REMARK                         _______ _______ _______ _____ _____    ______ ____
ROOT
ATOM      1  C   UNL     1       7.568   6.012  18.381  0.00  0.00    +0.000 C 
ENDROOT
BRANCH   1   2
ATOM      2  N   UNL     1       7.920   7.411  18.266  0.00  0.00    +0.000 N 
ATOM      3  C   UNL     1       8.777   8.126  19.045  0.00  0.00    +0.000 A 
ATOM      4  C   UNL     1       8.712   9.398  18.519  0.00  0.00    +0.000 A 
ATOM      5  N   UNL     1       7.827   9.408  17.472  0.00  0.00    +0.000 NA
ATOM      6  N   UNL     1       7.354   8.177  17.318  0.00  0.00    +0.000 NA
BRANCH   4   7
ATOM      7  C   UNL     1       9.431  10.559  18.994  0.00  0.00    +0.000 A 
ATOM      8  C   UNL     1       9.469  10.845  20.369  0.00  0.00    +0.000 A 
ATOM      9  C   UNL     1      10.166  11.961  20.841  0.00  0.00    +0.000 A 
ATOM     10  C   UNL     1      10.822  12.807  19.948  0.00  0.00    +0.000 A 
ATOM     11  C   UNL     1      10.774  12.526  18.586  0.00  0.00    +0.000 A 
ATOM     12  C   UNL     1      10.091  11.417  18.107  0.00  0.00    +0.000 A 
BRANCH  11  13
ATOM     13  O   UNL     1      11.391  13.330  17.671  0.00  0.00    +0.000 OA
ATOM     14  H   UNL     1      12.351  13.241  17.777  0.00  0.00    +0.000 HD
ENDBRANCH  11  13
ENDBRANCH   4   7
ENDBRANCH   1   2
BRANCH   1  15
ATOM     15  C   UNL     1       7.123   5.447  17.027  0.00  0.00    +0.000 C 
BRANCH  15  19
ATOM     16  C   UNL     1       4.299   5.086  18.478  0.00  0.00    +0.000 C 
ATOM     17  C   UNL     1       4.026   5.357  16.993  0.00  0.00    +0.000 C 
ATOM     18  C   UNL     1       4.999   4.456  16.249  0.00  0.00    +0.000 C 
ATOM     19  N   UNL     1       6.176   4.317  17.120  0.00  0.00    +0.000 NA
ATOM     20  C   UNL     1       5.592   4.238  18.481  0.00  0.00    +0.000 C 
BRANCH  16  27
ATOM     21  C   UNL     1       2.151   6.661  19.962  0.00  0.00    +0.000 C 
ATOM     22  C   UNL     1       2.166   5.156  19.922  0.00  0.00    +0.000 A 
ATOM     23  C   UNL     1       1.158   4.471  20.625  0.00  0.00    +0.000 A 
ATOM     24  C   UNL     1       1.092   3.079  20.619  0.00  0.00    +0.000 A 
ATOM     25  C   UNL     1       2.028   2.350  19.899  0.00  0.00    +0.000 A 
ATOM     26  C   UNL     1       3.038   3.014  19.202  0.00  0.00    +0.000 A 
ATOM     27  C   UNL     1       3.141   4.420  19.210  0.00  0.00    +0.000 A 
ENDBRANCH  16  27
ENDBRANCH  15  19
ENDBRANCH   1  15
TORSDOF 6
ENDMDL
MODEL 2
REMARK VINA RESULT:      -8.2      5.239      6.717
REMARK  Name = 
REMARK  7 active torsions:
REMARK  status: ('A' for Active; 'I' for Inactive)
REMARK    1  A    between atoms: C_1  and  C_2
REMARK    2  A    between atoms: C_7  and  C_8
REMARK    3  A    between atoms: N_11  and  C_12
REMARK    4  A    between atoms: C_12  and  C_13
REMARK    5  A    between atoms: C_13  and  N_14
REMARK    6  A    between atoms: C_16  and  C_17
REMARK    7  A    between atoms: C_21  and  O_22
REMARK                            x       y       z     vdW  Elec       q    Type
REMARK                         _______ _______ _______ _____ _____    ______ ____
ROOT
ATOM      1  C   UNL     1       5.606   4.595  19.141  0.00  0.00    +0.000 C 
ENDROOT
BRANCH   1   2
ATOM      2  N   UNL     1       6.118   4.952  17.835  0.00  0.00    +0.000 N 
ATOM      3  C   UNL     1       5.970   4.275  16.664  0.00  0.00    +0.000 A 
ATOM      4  C   UNL     1       6.677   5.034  15.756  0.00  0.00    +0.000 A 
ATOM      5  N   UNL     1       7.227   6.111  16.403  0.00  0.00    +0.000 NA
ATOM      6  N   UNL     1       6.868   6.056  17.679  0.00  0.00    +0.000 NA
BRANCH   4   7
ATOM      7  C   UNL     1       6.850   4.747  14.350  0.00  0.00    +0.000 A 
ATOM      8  C   UNL     1       7.713   5.538  13.574  0.00  0.00    +0.000 A 
ATOM      9  C   UNL     1       7.894   5.266  12.215  0.00  0.00    +0.000 A 
ATOM     10  C   UNL     1       7.209   4.210  11.615  0.00  0.00    +0.000 A 
ATOM     11  C   UNL     1       6.347   3.435  12.384  0.00  0.00    +0.000 A 
ATOM     12  C   UNL     1       6.166   3.692  13.736  0.00  0.00    +0.000 A 
BRANCH  11  13
ATOM     13  O   UNL     1       5.646   2.397  11.840  0.00  0.00    +0.000 OA
ATOM     14  H   UNL     1       5.407   2.628  10.930  0.00  0.00    +0.000 HD
ENDBRANCH  11  13
ENDBRANCH   4   7
ENDBRANCH   1   2
BRANCH   1  15
ATOM     15  C   UNL     1       4.437   3.610  19.019  0.00  0.00    +0.000 C 
BRANCH  15  19
ATOM     16  C   UNL     1       2.842   6.377  19.101  0.00  0.00    +0.000 C 
ATOM     17  C   UNL     1       2.118   5.453  18.111  0.00  0.00    +0.000 C 
ATOM     18  C   UNL     1       2.027   4.115  18.826  0.00  0.00    +0.000 C 
ATOM     19  N   UNL     1       3.203   4.041  19.708  0.00  0.00    +0.000 NA
ATOM     20  C   UNL     1       3.345   5.428  20.212  0.00  0.00    +0.000 C 
BRANCH  16  27
ATOM     21  C   UNL     1       2.276   8.907  17.495  0.00  0.00    +0.000 C 
ATOM     22  C   UNL     1       1.748   8.700  18.889  0.00  0.00    +0.000 A 
ATOM     23  C   UNL     1       0.990   9.738  19.465  0.00  0.00    +0.000 A 
ATOM     24  C   UNL     1       0.450   9.614  20.743  0.00  0.00    +0.000 A 
ATOM     25  C   UNL     1       0.649   8.444  21.463  0.00  0.00    +0.000 A 
ATOM     26  C   UNL     1       1.403   7.408  20.910  0.00  0.00    +0.000 A 
ATOM     27  C   UNL     1       1.980   7.517  19.628  0.00  0.00    +0.000 A 
ENDBRANCH  16  27
ENDBRANCH  15  19
ENDBRANCH   1  15
TORSDOF 6
ENDMDL
MODEL 3
REMARK VINA RESULT:      -8.2      0.960      1.346
REMARK  Name = 
REMARK  7 active torsions:
REMARK  status: ('A' for Active; 'I' for Inactive)
REMARK    1  A    between atoms: C_1  and  C_2
REMARK    2  A    between atoms: C_7  and  C_8
REMARK    3  A    between atoms: N_11  and  C_12
REMARK    4  A    between atoms: C_12  and  C_13
REMARK    5  A    between atoms: C_13  and  N_14
REMARK    6  A    between atoms: C_16  and  C_17
REMARK    7  A    between atoms: C_21  and  O_22
REMARK                            x       y       z     vdW  Elec       q    Type
REMARK                         _______ _______ _______ _____ _____    ______ ____
ROOT
ATOM      1  C   UNL     1       7.681   5.917  18.406  0.00  0.00    +0.000 C 
ENDROOT
BRANCH   1   2
ATOM      2  N   UNL     1       7.983   7.327  18.286  0.00  0.00    +0.000 N 
ATOM      3  C   UNL     1       8.780   8.084  19.088  0.00  0.00    +0.000 A 
ATOM      4  C   UNL     1       8.686   9.347  18.543  0.00  0.00    +0.000 A 
ATOM      5  N   UNL     1       7.843   9.309  17.462  0.00  0.00    +0.000 NA
ATOM      6  N   UNL     1       7.424   8.059  17.308  0.00  0.00    +0.000 NA
BRANCH   4   7
ATOM      7  C   UNL     1       9.340  10.541  19.030  0.00  0.00    +0.000 A 
ATOM      8  C   UNL     1      10.068  11.352  18.144  0.00  0.00    +0.000 A 
ATOM      9  C   UNL     1      10.699  12.513  18.602  0.00  0.00    +0.000 A 
ATOM     10  C   UNL     1      10.618  12.869  19.947  0.00  0.00    +0.000 A 
ATOM     11  C   UNL     1       9.904  12.058  20.824  0.00  0.00    +0.000 A 
ATOM     12  C   UNL     1       9.268  10.907  20.379  0.00  0.00    +0.000 A 
BRANCH  11  13
ATOM     13  O   UNL     1       9.805  12.359  22.152  0.00  0.00    +0.000 OA
ATOM     14  H   UNL     1       8.878  12.555  22.357  0.00  0.00    +0.000 HD
ENDBRANCH  11  13
ENDBRANCH   4   7
ENDBRANCH   1   2
BRANCH   1  15
ATOM     15  C   UNL     1       7.139   5.359  17.086  0.00  0.00    +0.000 C 
BRANCH  15  19
ATOM     16  C   UNL     1       4.284   5.054  18.487  0.00  0.00    +0.000 C 
ATOM     17  C   UNL     1       4.046   5.206  16.979  0.00  0.00    +0.000 C 
ATOM     18  C   UNL     1       5.054   4.271  16.331  0.00  0.00    +0.000 C 
ATOM     19  N   UNL     1       6.209   4.221  17.241  0.00  0.00    +0.000 NA
ATOM     20  C   UNL     1       5.590   4.234  18.588  0.00  0.00    +0.000 C 
BRANCH  16  27
ATOM     21  C   UNL     1       2.146   6.698  19.911  0.00  0.00    +0.000 C 
ATOM     22  C   UNL     1       2.147   5.192  19.922  0.00  0.00    +0.000 A 
ATOM     23  C   UNL     1       1.132   4.540  20.645  0.00  0.00    +0.000 A 
ATOM     24  C   UNL     1       1.054   3.149  20.686  0.00  0.00    +0.000 A 
ATOM     25  C   UNL     1       1.986   2.388  19.994  0.00  0.00    +0.000 A 
ATOM     26  C   UNL     1       3.003   3.019  19.278  0.00  0.00    +0.000 A 
ATOM     27  C   UNL     1       3.118   4.424  19.238  0.00  0.00    +0.000 A 
ENDBRANCH  16  27
ENDBRANCH  15  19
ENDBRANCH   1  15
TORSDOF 6
ENDMDL
MODEL 4
REMARK VINA RESULT:      -7.8      1.065      1.273
REMARK  Name = 
REMARK  7 active torsions:
REMARK  status: ('A' for Active; 'I' for Inactive)
REMARK    1  A    between atoms: C_1  and  C_2
REMARK    2  A    between atoms: C_7  and  C_8
REMARK    3  A    between atoms: N_11  and  C_12
REMARK    4  A    between atoms: C_12  and  C_13
REMARK    5  A    between atoms: C_13  and  N_14
REMARK    6  A    between atoms: C_16  and  C_17
REMARK    7  A    between atoms: C_21  and  O_22
REMARK                            x       y       z     vdW  Elec       q    Type
REMARK                         _______ _______ _______ _____ _____    ______ ____
ROOT
ATOM      1  C   UNL     1       6.335   7.009  16.962  0.00  0.00    +0.000 C 
ENDROOT
BRANCH   1   2
ATOM      2  N   UNL     1       7.300   7.820  17.674  0.00  0.00    +0.000 N 
ATOM      3  C   UNL     1       7.533   9.154  17.541  0.00  0.00    +0.000 A 
ATOM      4  C   UNL     1       8.564   9.395  18.423  0.00  0.00    +0.000 A 
ATOM      5  N   UNL     1       8.918   8.218  19.033  0.00  0.00    +0.000 NA
ATOM      6  N   UNL     1       8.126   7.259  18.572  0.00  0.00    +0.000 NA
BRANCH   4   7
ATOM      7  C   UNL     1       9.206  10.667  18.663  0.00  0.00    +0.000 A 
ATOM      8  C   UNL     1      10.132  10.798  19.711  0.00  0.00    +0.000 A 
ATOM      9  C   UNL     1      10.765  12.022  19.949  0.00  0.00    +0.000 A 
ATOM     10  C   UNL     1      10.472  13.128  19.152  0.00  0.00    +0.000 A 
ATOM     11  C   UNL     1       9.546  12.998  18.122  0.00  0.00    +0.000 A 
ATOM     12  C   UNL     1       8.918  11.786  17.872  0.00  0.00    +0.000 A 
BRANCH  11  13
ATOM     13  O   UNL     1       9.218  14.054  17.321  0.00  0.00    +0.000 OA
ATOM     14  H   UNL     1       9.300  14.871  17.836  0.00  0.00    +0.000 HD
ENDBRANCH  11  13
ENDBRANCH   4   7
ENDBRANCH   1   2
BRANCH   1  15
ATOM     15  C   UNL     1       6.967   5.695  16.490  0.00  0.00    +0.000 C 
BRANCH  15  19
ATOM     16  C   UNL     1       4.015   4.918  17.432  0.00  0.00    +0.000 C 
ATOM     17  C   UNL     1       4.257   4.255  16.069  0.00  0.00    +0.000 C 
ATOM     18  C   UNL     1       5.641   3.635  16.179  0.00  0.00    +0.000 C 
ATOM     19  N   UNL     1       6.396   4.484  17.114  0.00  0.00    +0.000 NA
ATOM     20  C   UNL     1       5.388   4.852  18.138  0.00  0.00    +0.000 C 
BRANCH  16  27
ATOM     21  C   UNL     1       2.489   6.411  19.609  0.00  0.00    +0.000 C 
ATOM     22  C   UNL     1       2.209   4.971  19.269  0.00  0.00    +0.000 A 
ATOM     23  C   UNL     1       1.223   4.300  20.016  0.00  0.00    +0.000 A 
ATOM     24  C   UNL     1       0.893   2.973  19.748  0.00  0.00    +0.000 A 
ATOM     25  C   UNL     1       1.537   2.299  18.720  0.00  0.00    +0.000 A 
ATOM     26  C   UNL     1       2.523   2.947  17.975  0.00  0.00    +0.000 A 
ATOM     27  C   UNL     1       2.892   4.282  18.240  0.00  0.00    +0.000 A 
ENDBRANCH  16  27
ENDBRANCH  15  19
ENDBRANCH   1  15
TORSDOF 6
ENDMDL
MODEL 5
REMARK VINA RESULT:      -7.8      5.088      6.899
REMARK  Name = 
REMARK  7 active torsions:
REMARK  status: ('A' for Active; 'I' for Inactive)
REMARK    1  A    between atoms: C_1  and  C_2
REMARK    2  A    between atoms: C_7  and  C_8
REMARK    3  A    between atoms: N_11  and  C_12
REMARK    4  A    between atoms: C_12  and  C_13
REMARK    5  A    between atoms: C_13  and  N_14
REMARK    6  A    between atoms: C_16  and  C_17
REMARK    7  A    between atoms: C_21  and  O_22
REMARK                            x       y       z     vdW  Elec       q    Type
REMARK                         _______ _______ _______ _____ _____    ______ ____
ROOT
ATOM      1  C   UNL     1       4.013   3.683  19.237  0.00  0.00    +0.000 C 
ENDROOT
BRANCH   1   2
ATOM      2  N   UNL     1       4.990   3.995  18.215  0.00  0.00    +0.000 N 
ATOM      3  C   UNL     1       4.845   3.905  16.864  0.00  0.00    +0.000 A 
ATOM      4  C   UNL     1       6.078   4.286  16.379  0.00  0.00    +0.000 A 
ATOM      5  N   UNL     1       6.908   4.572  17.432  0.00  0.00    +0.000 NA
ATOM      6  N   UNL     1       6.224   4.399  18.556  0.00  0.00    +0.000 NA
BRANCH   4   7
ATOM      7  C   UNL     1       6.466   4.354  14.988  0.00  0.00    +0.000 A 
ATOM      8  C   UNL     1       5.788   3.580  14.032  0.00  0.00    +0.000 A 
ATOM      9  C   UNL     1       6.150   3.642  12.683  0.00  0.00    +0.000 A 
ATOM     10  C   UNL     1       7.198   4.468  12.277  0.00  0.00    +0.000 A 
ATOM     11  C   UNL     1       7.875   5.225  13.228  0.00  0.00    +0.000 A 
ATOM     12  C   UNL     1       7.519   5.176  14.569  0.00  0.00    +0.000 A 
BRANCH  11  13
ATOM     13  O   UNL     1       8.914   6.040  12.881  0.00  0.00    +0.000 OA
ATOM     14  H   UNL     1       8.691   6.950  13.130  0.00  0.00    +0.000 HD
ENDBRANCH  11  13
ENDBRANCH   4   7
ENDBRANCH   1   2
BRANCH   1  15
ATOM     15  C   UNL     1       3.528   4.959  19.935  0.00  0.00    +0.000 C 
BRANCH  15  19
ATOM     16  C   UNL     1       2.219   7.862  19.684  0.00  0.00    +0.000 C 
ATOM     17  C   UNL     1       2.680   7.439  18.283  0.00  0.00    +0.000 C 
ATOM     18  C   UNL     1       2.200   6.004  18.134  0.00  0.00    +0.000 C 
ATOM     19  N   UNL     1       2.200   5.430  19.489  0.00  0.00    +0.000 NA
ATOM     20  C   UNL     1       1.732   6.550  20.340  0.00  0.00    +0.000 C 
BRANCH  16  27
ATOM     21  C   UNL     1       1.123   9.109  22.242  0.00  0.00    +0.000 C 
ATOM     22  C   UNL     1       0.640   9.514  20.875  0.00  0.00    +0.000 A 
ATOM     23  C   UNL     1      -0.377  10.485  20.798  0.00  0.00    +0.000 A 
ATOM     24  C   UNL     1      -0.862  10.927  19.569  0.00  0.00    +0.000 A 
ATOM     25  C   UNL     1      -0.331  10.411  18.395  0.00  0.00    +0.000 A 
ATOM     26  C   UNL     1       0.671   9.443  18.453  0.00  0.00    +0.000 A 
ATOM     27  C   UNL     1       1.165   8.962  19.683  0.00  0.00    +0.000 A 
ENDBRANCH  16  27
ENDBRANCH  15  19
ENDBRANCH   1  15
TORSDOF 6
ENDMDL
MODEL 6
REMARK VINA RESULT:      -7.7      0.787      1.503
REMARK  Name = 
REMARK  7 active torsions:
REMARK  status: ('A' for Active; 'I' for Inactive)
REMARK    1  A    between atoms: C_1  and  C_2
REMARK    2  A    between atoms: C_7  and  C_8
REMARK    3  A    between atoms: N_11  and  C_12
REMARK    4  A    between atoms: C_12  and  C_13
REMARK    5  A    between atoms: C_13  and  N_14
REMARK    6  A    between atoms: C_16  and  C_17
REMARK    7  A    between atoms: C_21  and  O_22
REMARK                            x       y       z     vdW  Elec       q    Type
REMARK                         _______ _______ _______ _____ _____    ______ ____
ROOT
ATOM      1  C   UNL     1       7.568   5.656  18.266  0.00  0.00    +0.000 C 
ENDROOT
BRANCH   1   2
ATOM      2  N   UNL     1       7.785   7.076  18.087  0.00  0.00    +0.000 N 
ATOM      3  C   UNL     1       8.568   7.904  18.830  0.00  0.00    +0.000 A 
ATOM      4  C   UNL     1       8.382   9.139  18.247  0.00  0.00    +0.000 A 
ATOM      5  N   UNL     1       7.501   9.016  17.204  0.00  0.00    +0.000 NA
ATOM      6  N   UNL     1       7.149   7.741  17.108  0.00  0.00    +0.000 NA
BRANCH   4   7
ATOM      7  C   UNL     1       8.986  10.383  18.668  0.00  0.00    +0.000 A 
ATOM      8  C   UNL     1       9.612  10.470  19.922  0.00  0.00    +0.000 A 
ATOM      9  C   UNL     1      10.205  11.666  20.337  0.00  0.00    +0.000 A 
ATOM     10  C   UNL     1      10.170  12.789  19.511  0.00  0.00    +0.000 A 
ATOM     11  C   UNL     1       9.540  12.702  18.273  0.00  0.00    +0.000 A 
ATOM     12  C   UNL     1       8.954  11.518  17.848  0.00  0.00    +0.000 A 
BRANCH  11  13
ATOM     13  O   UNL     1       9.470  13.776  17.432  0.00  0.00    +0.000 OA
ATOM     14  H   UNL     1       8.539  13.947  17.224  0.00  0.00    +0.000 HD
ENDBRANCH  11  13
ENDBRANCH   4   7
ENDBRANCH   1   2
BRANCH   1  15
ATOM     15  C   UNL     1       7.293   4.971  16.922  0.00  0.00    +0.000 C 
BRANCH  15  19
ATOM     16  C   UNL     1       4.449   5.064  18.376  0.00  0.00    +0.000 C 
ATOM     17  C   UNL     1       4.242   5.510  16.923  0.00  0.00    +0.000 C 
ATOM     18  C   UNL     1       5.015   4.499  16.092  0.00  0.00    +0.000 C 
ATOM     19  N   UNL     1       6.136   4.051  16.933  0.00  0.00    +0.000 NA
ATOM     20  C   UNL     1       5.544   3.975  18.290  0.00  0.00    +0.000 C 
BRANCH  16  27
ATOM     21  C   UNL     1       3.121   2.394  17.737  0.00  0.00    +0.000 C 
ATOM     22  C   UNL     1       2.551   3.360  18.742  0.00  0.00    +0.000 A 
ATOM     23  C   UNL     1       1.345   3.010  19.377  0.00  0.00    +0.000 A 
ATOM     24  C   UNL     1       0.766   3.841  20.334  0.00  0.00    +0.000 A 
ATOM     25  C   UNL     1       1.390   5.032  20.678  0.00  0.00    +0.000 A 
ATOM     26  C   UNL     1       2.583   5.397  20.053  0.00  0.00    +0.000 A 
ATOM     27  C   UNL     1       3.178   4.585  19.066  0.00  0.00    +0.000 A 
ENDBRANCH  16  27
ENDBRANCH  15  19
ENDBRANCH   1  15
TORSDOF 6
ENDMDL
MODEL 7
REMARK VINA RESULT:      -7.6      1.516      1.947
REMARK  Name = 
REMARK  7 active torsions:
REMARK  status: ('A' for Active; 'I' for Inactive)
REMARK    1  A    between atoms: C_1  and  C_2
REMARK    2  A    between atoms: C_7  and  C_8
REMARK    3  A    between atoms: N_11  and  C_12
REMARK    4  A    between atoms: C_12  and  C_13
REMARK    5  A    between atoms: C_13  and  N_14
REMARK    6  A    between atoms: C_16  and  C_17
REMARK    7  A    between atoms: C_21  and  O_22
REMARK                            x       y       z     vdW  Elec       q    Type
REMARK                         _______ _______ _______ _____ _____    ______ ____
ROOT
ATOM      1  C   UNL     1       7.263   7.560  17.371  0.00  0.00    +0.000 C 
ENDROOT
BRANCH   1   2
ATOM      2  N   UNL     1       8.035   8.670  17.889  0.00  0.00    +0.000 N 
ATOM      3  C   UNL     1       8.199   9.904  17.339  0.00  0.00    +0.000 A 
ATOM      4  C   UNL     1       9.045  10.544  18.220  0.00  0.00    +0.000 A 
ATOM      5  N   UNL     1       9.365   9.685  19.240  0.00  0.00    +0.000 NA
ATOM      6  N   UNL     1       8.729   8.539  19.032  0.00  0.00    +0.000 NA
BRANCH   4   7
ATOM      7  C   UNL     1       9.550  11.892  18.095  0.00  0.00    +0.000 A 
ATOM      8  C   UNL     1      10.916  12.108  17.846  0.00  0.00    +0.000 A 
ATOM      9  C   UNL     1      11.416  13.408  17.717  0.00  0.00    +0.000 A 
ATOM     10  C   UNL     1      10.562  14.502  17.845  0.00  0.00    +0.000 A 
ATOM     11  C   UNL     1       9.211  14.285  18.101  0.00  0.00    +0.000 A 
ATOM     12  C   UNL     1       8.703  12.999  18.224  0.00  0.00    +0.000 A 
BRANCH  11  13
ATOM     13  O   UNL     1       8.337  15.324  18.245  0.00  0.00    +0.000 OA
ATOM     14  H   UNL     1       7.588  15.184  17.645  0.00  0.00    +0.000 HD
ENDBRANCH  11  13
ENDBRANCH   4   7
ENDBRANCH   1   2
BRANCH   1  15
ATOM     15  C   UNL     1       7.226   6.404  18.378  0.00  0.00    +0.000 C 
BRANCH  15  19
ATOM     16  C   UNL     1       4.221   5.359  18.665  0.00  0.00    +0.000 C 
ATOM     17  C   UNL     1       4.360   5.992  17.275  0.00  0.00    +0.000 C 
ATOM     18  C   UNL     1       5.665   5.438  16.726  0.00  0.00    +0.000 C 
ATOM     19  N   UNL     1       6.529   5.195  17.892  0.00  0.00    +0.000 NA
ATOM     20  C   UNL     1       5.589   4.687  18.920  0.00  0.00    +0.000 C 
BRANCH  16  27
ATOM     21  C   UNL     1       1.884   5.842  20.564  0.00  0.00    +0.000 C 
ATOM     22  C   UNL     1       1.981   4.614  19.699  0.00  0.00    +0.000 A 
ATOM     23  C   UNL     1       0.959   3.652  19.808  0.00  0.00    +0.000 A 
ATOM     24  C   UNL     1       0.967   2.498  19.026  0.00  0.00    +0.000 A 
ATOM     25  C   UNL     1       1.994   2.293  18.115  0.00  0.00    +0.000 A 
ATOM     26  C   UNL     1       3.018   3.233  18.000  0.00  0.00    +0.000 A 
ATOM     27  C   UNL     1       3.046   4.398  18.794  0.00  0.00    +0.000 A 
ENDBRANCH  16  27
ENDBRANCH  15  19
ENDBRANCH   1  15
TORSDOF 6
ENDMDL
MODEL 8
REMARK VINA RESULT:      -7.6      1.821      2.546
REMARK  Name = 
REMARK  7 active torsions:
REMARK  status: ('A' for Active; 'I' for Inactive)
REMARK    1  A    between atoms: C_1  and  C_2
REMARK    2  A    between atoms: C_7  and  C_8
REMARK    3  A    between atoms: N_11  and  C_12
REMARK    4  A    between atoms: C_12  and  C_13
REMARK    5  A    between atoms: C_13  and  N_14
REMARK    6  A    between atoms: C_16  and  C_17
REMARK    7  A    between atoms: C_21  and  O_22
REMARK                            x       y       z     vdW  Elec       q    Type
REMARK                         _______ _______ _______ _____ _____    ______ ____
ROOT
ATOM      1  C   UNL     1       8.102   8.504  17.636  0.00  0.00    +0.000 C 
ENDROOT
BRANCH   1   2
ATOM      2  N   UNL     1       8.693   9.634  18.321  0.00  0.00    +0.000 N 
ATOM      3  C   UNL     1       8.986  10.861  17.812  0.00  0.00    +0.000 A 
ATOM      4  C   UNL     1       9.555  11.528  18.876  0.00  0.00    +0.000 A 
ATOM      5  N   UNL     1       9.596  10.691  19.962  0.00  0.00    +0.000 NA
ATOM      6  N   UNL     1       9.053   9.532  19.611  0.00  0.00    +0.000 NA
BRANCH   4   7
ATOM      7  C   UNL     1      10.060  12.882  18.867  0.00  0.00    +0.000 A 
ATOM      8  C   UNL     1      10.899  13.324  19.903  0.00  0.00    +0.000 A 
ATOM      9  C   UNL     1      11.400  14.629  19.902  0.00  0.00    +0.000 A 
ATOM     10  C   UNL     1      11.061  15.508  18.874  0.00  0.00    +0.000 A 
ATOM     11  C   UNL     1      10.222  15.070  17.854  0.00  0.00    +0.000 A 
ATOM     12  C   UNL     1       9.725  13.774  17.842  0.00  0.00    +0.000 A 
BRANCH  11  13
ATOM     13  O   UNL     1       9.853  15.896  16.831  0.00  0.00    +0.000 OA
ATOM     14  H   UNL     1       9.508  16.720  17.207  0.00  0.00    +0.000 HD
ENDBRANCH  11  13
ENDBRANCH   4   7
ENDBRANCH   1   2
BRANCH   1  15
ATOM     15  C   UNL     1       8.044   7.277  18.554  0.00  0.00    +0.000 C 
BRANCH  15  19
ATOM     16  C   UNL     1       5.138   6.023  18.121  0.00  0.00    +0.000 C 
ATOM     17  C   UNL     1       5.542   6.717  16.814  0.00  0.00    +0.000 C 
ATOM     18  C   UNL     1       6.975   6.273  16.567  0.00  0.00    +0.000 C 
ATOM     19  N   UNL     1       7.567   6.044  17.894  0.00  0.00    +0.000 NA
ATOM     20  C   UNL     1       6.459   5.435  18.667  0.00  0.00    +0.000 C 
BRANCH  16  27
ATOM     21  C   UNL     1       2.169   6.718  18.197  0.00  0.00    +0.000 C 
ATOM     22  C   UNL     1       2.664   5.307  18.023  0.00  0.00    +0.000 A 
ATOM     23  C   UNL     1       1.704   4.283  17.921  0.00  0.00    +0.000 A 
ATOM     24  C   UNL     1       2.082   2.954  17.738  0.00  0.00    +0.000 A 
ATOM     25  C   UNL     1       3.428   2.630  17.642  0.00  0.00    +0.000 A 
ATOM     26  C   UNL     1       4.393   3.633  17.747  0.00  0.00    +0.000 A 
ATOM     27  C   UNL     1       4.039   4.981  17.956  0.00  0.00    +0.000 A 
ENDBRANCH  16  27
ENDBRANCH  15  19
ENDBRANCH   1  15
TORSDOF 6
ENDMDL
MODEL 9
REMARK VINA RESULT:      -7.5      4.962      6.438
REMARK  Name = 
REMARK  7 active torsions:
REMARK  status: ('A' for Active; 'I' for Inactive)
REMARK    1  A    between atoms: C_1  and  C_2
REMARK    2  A    between atoms: C_7  and  C_8
REMARK    3  A    between atoms: N_11  and  C_12
REMARK    4  A    between atoms: C_12  and  C_13
REMARK    5  A    between atoms: C_13  and  N_14
REMARK    6  A    between atoms: C_16  and  C_17
REMARK    7  A    between atoms: C_21  and  O_22
REMARK                            x       y       z     vdW  Elec       q    Type
REMARK                         _______ _______ _______ _____ _____    ______ ____
ROOT
ATOM      1  C   UNL     1       4.718   3.120  19.923  0.00  0.00    +0.000 C 
ENDROOT
BRANCH   1   2
ATOM      2  N   UNL     1       5.443   3.668  18.797  0.00  0.00    +0.000 N 
ATOM      3  C   UNL     1       5.223   3.449  17.472  0.00  0.00    +0.000 A 
ATOM      4  C   UNL     1       6.211   4.182  16.851  0.00  0.00    +0.000 A 
ATOM      5  N   UNL     1       6.984   4.794  17.805  0.00  0.00    +0.000 NA
ATOM      6  N   UNL     1       6.495   4.479  18.998  0.00  0.00    +0.000 NA
BRANCH   4   7
ATOM      7  C   UNL     1       6.434   4.284  15.427  0.00  0.00    +0.000 A 
ATOM      8  C   UNL     1       5.652   3.527  14.539  0.00  0.00    +0.000 A 
ATOM      9  C   UNL     1       5.855   3.622  13.159  0.00  0.00    +0.000 A 
ATOM     10  C   UNL     1       6.845   4.463  12.652  0.00  0.00    +0.000 A 
ATOM     11  C   UNL     1       7.625   5.204  13.535  0.00  0.00    +0.000 A 
ATOM     12  C   UNL     1       7.427   5.123  14.907  0.00  0.00    +0.000 A 
BRANCH  11  13
ATOM     13  O   UNL     1       8.613   6.034  13.089  0.00  0.00    +0.000 OA
ATOM     14  H   UNL     1       9.120   5.571  12.404  0.00  0.00    +0.000 HD
ENDBRANCH  11  13
ENDBRANCH   4   7
ENDBRANCH   1   2
BRANCH   1  15
ATOM     15  C   UNL     1       3.390   2.502  19.470  0.00  0.00    +0.000 C 
BRANCH  15  19
ATOM     16  C   UNL     1       2.630   5.602  19.322  0.00  0.00    +0.000 C 
ATOM     17  C   UNL     1       1.937   4.898  18.148  0.00  0.00    +0.000 C 
ATOM     18  C   UNL     1       1.322   3.647  18.754  0.00  0.00    +0.000 C 
ATOM     19  N   UNL     1       2.192   3.266  19.877  0.00  0.00    +0.000 NA
ATOM     20  C   UNL     1       2.582   4.568  20.470  0.00  0.00    +0.000 C 
BRANCH  16  27
ATOM     21  C   UNL     1       2.785   8.056  17.518  0.00  0.00    +0.000 C 
ATOM     22  C   UNL     1       2.113   8.085  18.865  0.00  0.00    +0.000 A 
ATOM     23  C   UNL     1       1.568   9.307  19.301  0.00  0.00    +0.000 A 
ATOM     24  C   UNL     1       0.912   9.409  20.526  0.00  0.00    +0.000 A 
ATOM     25  C   UNL     1       0.782   8.286  21.332  0.00  0.00    +0.000 A 
ATOM     26  C   UNL     1       1.323   7.068  20.918  0.00  0.00    +0.000 A 
ATOM     27  C   UNL     1       2.011   6.943  19.693  0.00  0.00    +0.000 A 
ENDBRANCH  16  27
ENDBRANCH  15  19
ENDBRANCH   1  15
TORSDOF 6
ENDMDL
