MODEL 1
REMARK VINA RESULT:      -8.6      0.000      0.000
REMARK  Name = 
REMARK  8 active torsions:
REMARK  status: ('A' for Active; 'I' for Inactive)
REMARK    1  A    between atoms: C_1  and  N_2
REMARK    2  A    between atoms: N_2  and  C_3
REMARK    3  A    between atoms: C_4  and  C_30
REMARK    4  A    between atoms: N_5  and  C_6
REMARK    5  A    between atoms: C_17  and  N_18
REMARK    6  A    between atoms: C_19  and  C_20
REMARK    7  A    between atoms: N_23  and  C_24
REMARK    8  A    between atoms: N_23  and  C_25
REMARK                            x       y       z     vdW  Elec       q    Type
REMARK                         _______ _______ _______ _____ _____    ______ ____
ROOT
ATOM      1  C   UNL     1      -2.462  12.247  21.849  0.00  0.00    +0.000 A 
ATOM      2  C   UNL     1      -1.965  11.661  23.023  0.00  0.00    +0.000 A 
ATOM      3  C   UNL     1      -0.865  10.775  23.002  0.00  0.00    +0.000 A 
ATOM      4  C   UNL     1      -0.271  10.429  21.782  0.00  0.00    +0.000 A 
ATOM      5  C   UNL     1      -0.711  11.072  20.634  0.00  0.00    +0.000 A 
ATOM      6  C   UNL     1      -1.729  12.027  20.688  0.00  0.00    +0.000 A 
ATOM      7  C   UNL     1      -0.222  10.672  19.314  0.00  0.00    +0.000 C 
ATOM      8  O   UNL     1      -0.639  11.212  18.294  0.00  0.00    +0.000 OA
ATOM      9  C   UNL     1       0.746   9.576  19.208  0.00  0.00    +0.000 A 
ATOM     10  C   UNL     1       1.159   9.170  17.938  0.00  0.00    +0.000 A 
ATOM     11  C   UNL     1       2.076   8.129  17.807  0.00  0.00    +0.000 A 
ATOM     12  C   UNL     1       2.523   7.404  18.916  0.00  0.00    +0.000 A 
ATOM     13  C   UNL     1       2.127   7.859  20.192  0.00  0.00    +0.000 A 
ATOM     14  C   UNL     1       1.235   8.937  20.344  0.00  0.00    +0.000 A 
ATOM     15  C   UNL     1       0.786   9.387  21.690  0.00  0.00    +0.000 C 
ATOM     16  O   UNL     1       1.262   8.900  22.707  0.00  0.00    +0.000 OA
ENDROOT
BRANCH   1  21
ATOM     17  C   UNL     1      -6.121  14.301  21.925  0.00  0.00    +0.000 C 
ATOM     18  N   UNL     1      -4.912  14.946  22.425  0.00  0.00    +0.000 N 
ATOM     19  C   UNL     1      -5.115  16.157  23.211  0.00  0.00    +0.000 C 
ATOM     20  C   UNL     1      -3.703  14.256  22.367  0.00  0.00    +0.000 C 
ATOM     21  N   UNL     1      -3.623  13.035  21.899  0.00  0.00    +0.000 NA
BRANCH  20  22
ATOM     22  C   UNL     1      -2.527  14.987  22.944  0.00  0.00    +0.000 C 
ATOM     23  C   UNL     1      -1.294  15.276  22.105  0.00  0.00    +0.000 C 
ATOM     24  C   UNL     1      -2.142  16.404  22.578  0.00  0.00    +0.000 C 
ENDBRANCH  20  22
ENDBRANCH   1  21
BRANCH  12  25
ATOM     25  N   UNL     1       3.352   6.270  18.849  0.00  0.00    +0.000 NA
ATOM     26  C   UNL     1       3.002   5.009  18.955  0.00  0.00    +0.000 C 
ATOM     27  N   UNL     1       3.950   3.994  18.897  0.00  0.00    +0.000 N 
ATOM     28  C   UNL     1       5.358   4.326  18.655  0.00  0.00    +0.000 C 
ATOM     29  C   UNL     1       3.681   2.570  18.801  0.00  0.00    +0.000 C 
BRANCH  26  30
ATOM     30  C   UNL     1       1.559   4.620  19.093  0.00  0.00    +0.000 C 
ATOM     31  C   UNL     1       0.932   3.327  19.555  0.00  0.00    +0.000 C 
ATOM     32  C   UNL     1       1.055   4.440  20.526  0.00  0.00    +0.000 C 
ENDBRANCH  26  30
ENDBRANCH  12  25
TORSDOF 4
ENDMDL
MODEL 2
REMARK VINA RESULT:      -8.0      0.679     10.122
REMARK  Name = 
REMARK  8 active torsions:
REMARK  status: ('A' for Active; 'I' for Inactive)
REMARK    1  A    between atoms: C_1  and  N_2
REMARK    2  A    between atoms: N_2  and  C_3
REMARK    3  A    between atoms: C_4  and  C_30
REMARK    4  A    between atoms: N_5  and  C_6
REMARK    5  A    between atoms: C_17  and  N_18
REMARK    6  A    between atoms: C_19  and  C_20
REMARK    7  A    between atoms: N_23  and  C_24
REMARK    8  A    between atoms: N_23  and  C_25
REMARK                            x       y       z     vdW  Elec       q    Type
REMARK                         _______ _______ _______ _____ _____    ______ ____
ROOT
ATOM      1  C   UNL     1       2.489   7.344  18.742  0.00  0.00    +0.000 A 
ATOM      2  C   UNL     1       2.095   8.128  17.648  0.00  0.00    +0.000 A 
ATOM      3  C   UNL     1       1.306   9.289  17.813  0.00  0.00    +0.000 A 
ATOM      4  C   UNL     1       0.864   9.656  19.089  0.00  0.00    +0.000 A 
ATOM      5  C   UNL     1       1.323   8.926  20.177  0.00  0.00    +0.000 A 
ATOM      6  C   UNL     1       2.190   7.845  20.004  0.00  0.00    +0.000 A 
ATOM      7  C   UNL     1       0.805   9.177  21.522  0.00  0.00    +0.000 C 
ATOM      8  O   UNL     1       1.180   8.506  22.479  0.00  0.00    +0.000 OA
ATOM      9  C   UNL     1      -0.211  10.214  21.720  0.00  0.00    +0.000 A 
ATOM     10  C   UNL     1      -0.735  10.401  23.000  0.00  0.00    +0.000 A 
ATOM     11  C   UNL     1      -1.705  11.377  23.218  0.00  0.00    +0.000 A 
ATOM     12  C   UNL     1      -2.249  12.115  22.161  0.00  0.00    +0.000 A 
ATOM     13  C   UNL     1      -1.676  11.940  20.884  0.00  0.00    +0.000 A 
ATOM     14  C   UNL     1      -0.664  10.988  20.655  0.00  0.00    +0.000 A 
ATOM     15  C   UNL     1      -0.091  10.777  19.298  0.00  0.00    +0.000 C 
ATOM     16  O   UNL     1      -0.409  11.499  18.362  0.00  0.00    +0.000 OA
ENDROOT
BRANCH   1  21
ATOM     17  C   UNL     1       4.763   3.928  17.861  0.00  0.00    +0.000 C 
ATOM     18  N   UNL     1       3.853   3.924  19.001  0.00  0.00    +0.000 N 
ATOM     19  C   UNL     1       4.027   2.833  19.951  0.00  0.00    +0.000 C 
ATOM     20  C   UNL     1       3.089   5.060  19.262  0.00  0.00    +0.000 C 
ATOM     21  N   UNL     1       3.179   6.140  18.526  0.00  0.00    +0.000 NA
BRANCH  20  22
ATOM     22  C   UNL     1       2.217   4.973  20.479  0.00  0.00    +0.000 C 
ATOM     23  C   UNL     1       0.788   4.467  20.387  0.00  0.00    +0.000 C 
ATOM     24  C   UNL     1       1.801   3.677  21.138  0.00  0.00    +0.000 C 
ENDBRANCH  20  22
ENDBRANCH   1  21
BRANCH  12  25
ATOM     25  N   UNL     1      -3.310  13.029  22.287  0.00  0.00    +0.000 NA
ATOM     26  C   UNL     1      -3.248  14.293  22.637  0.00  0.00    +0.000 C 
ATOM     27  N   UNL     1      -4.399  15.065  22.745  0.00  0.00    +0.000 N 
ATOM     28  C   UNL     1      -5.701  14.482  22.407  0.00  0.00    +0.000 C 
ATOM     29  C   UNL     1      -4.455  16.505  22.925  0.00  0.00    +0.000 C 
BRANCH  26  30
ATOM     30  C   UNL     1      -1.925  14.959  22.884  0.00  0.00    +0.000 C 
ATOM     31  C   UNL     1      -1.575  16.161  23.726  0.00  0.00    +0.000 C 
ATOM     32  C   UNL     1      -1.363  14.811  24.299  0.00  0.00    +0.000 C 
ENDBRANCH  26  30
ENDBRANCH  12  25
TORSDOF 4
ENDMDL
MODEL 3
REMARK VINA RESULT:      -7.9      1.293      2.036
REMARK  Name = 
REMARK  8 active torsions:
REMARK  status: ('A' for Active; 'I' for Inactive)
REMARK    1  A    between atoms: C_1  and  N_2
REMARK    2  A    between atoms: N_2  and  C_3
REMARK    3  A    between atoms: C_4  and  C_30
REMARK    4  A    between atoms: N_5  and  C_6
REMARK    5  A    between atoms: C_17  and  N_18
REMARK    6  A    between atoms: C_19  and  C_20
REMARK    7  A    between atoms: N_23  and  C_24
REMARK    8  A    between atoms: N_23  and  C_25
REMARK                            x       y       z     vdW  Elec       q    Type
REMARK                         _______ _______ _______ _____ _____    ______ ____
ROOT
ATOM      1  C   UNL     1      -2.498  12.314  21.693  0.00  0.00    +0.000 A 
ATOM      2  C   UNL     1      -2.036  11.733  22.883  0.00  0.00    +0.000 A 
ATOM      3  C   UNL     1      -0.943  10.838  22.897  0.00  0.00    +0.000 A 
ATOM      4  C   UNL     1      -0.321  10.479  21.695  0.00  0.00    +0.000 A 
ATOM      5  C   UNL     1      -0.726  11.117  20.531  0.00  0.00    +0.000 A 
ATOM      6  C   UNL     1      -1.738  12.080  20.552  0.00  0.00    +0.000 A 
ATOM      7  C   UNL     1      -0.207  10.703  19.227  0.00  0.00    +0.000 C 
ATOM      8  O   UNL     1      -0.594  11.238  18.193  0.00  0.00    +0.000 OA
ATOM      9  C   UNL     1       0.755   9.599  19.153  0.00  0.00    +0.000 A 
ATOM     10  C   UNL     1       1.197   9.180  17.898  0.00  0.00    +0.000 A 
ATOM     11  C   UNL     1       2.109   8.131  17.797  0.00  0.00    +0.000 A 
ATOM     12  C   UNL     1       2.522   7.412  18.923  0.00  0.00    +0.000 A 
ATOM     13  C   UNL     1       2.097   7.879  20.185  0.00  0.00    +0.000 A 
ATOM     14  C   UNL     1       1.210   8.965  20.307  0.00  0.00    +0.000 A 
ATOM     15  C   UNL     1       0.730   9.428  21.637  0.00  0.00    +0.000 C 
ATOM     16  O   UNL     1       1.177   8.945  22.670  0.00  0.00    +0.000 OA
ENDROOT
BRANCH   1  21
ATOM     17  C   UNL     1      -5.817  14.860  22.033  0.00  0.00    +0.000 C 
ATOM     18  N   UNL     1      -5.617  14.081  20.816  0.00  0.00    +0.000 N 
ATOM     19  C   UNL     1      -6.421  14.478  19.667  0.00  0.00    +0.000 C 
ATOM     20  C   UNL     1      -4.523  13.223  20.733  0.00  0.00    +0.000 C 
ATOM     21  N   UNL     1      -3.654  13.111  21.707  0.00  0.00    +0.000 NA
BRANCH  20  22
ATOM     22  C   UNL     1      -4.381  12.499  19.427  0.00  0.00    +0.000 C 
ATOM     23  C   UNL     1      -5.045  11.152  19.199  0.00  0.00    +0.000 C 
ATOM     24  C   UNL     1      -5.496  12.336  18.419  0.00  0.00    +0.000 C 
ENDBRANCH  20  22
ENDBRANCH   1  21
BRANCH  12  25
ATOM     25  N   UNL     1       3.343   6.271  18.886  0.00  0.00    +0.000 NA
ATOM     26  C   UNL     1       2.983   5.014  19.000  0.00  0.00    +0.000 C 
ATOM     27  N   UNL     1       3.924   3.991  18.972  0.00  0.00    +0.000 N 
ATOM     28  C   UNL     1       5.338   4.310  18.753  0.00  0.00    +0.000 C 
ATOM     29  C   UNL     1       3.646   2.569  18.889  0.00  0.00    +0.000 C 
BRANCH  26  30
ATOM     30  C   UNL     1       1.534   4.637  19.116  0.00  0.00    +0.000 C 
ATOM     31  C   UNL     1       0.889   3.344  19.551  0.00  0.00    +0.000 C 
ATOM     32  C   UNL     1       1.012   4.440  20.540  0.00  0.00    +0.000 C 
ENDBRANCH  26  30
ENDBRANCH  12  25
TORSDOF 4
ENDMDL
MODEL 4
REMARK VINA RESULT:      -7.8      1.104      9.851
REMARK  Name = 
REMARK  8 active torsions:
REMARK  status: ('A' for Active; 'I' for Inactive)
REMARK    1  A    between atoms: C_1  and  N_2
REMARK    2  A    between atoms: N_2  and  C_3
REMARK    3  A    between atoms: C_4  and  C_30
REMARK    4  A    between atoms: N_5  and  C_6
REMARK    5  A    between atoms: C_17  and  N_18
REMARK    6  A    between atoms: C_19  and  C_20
REMARK    7  A    between atoms: N_23  and  C_24
REMARK    8  A    between atoms: N_23  and  C_25
REMARK                            x       y       z     vdW  Elec       q    Type
REMARK                         _______ _______ _______ _____ _____    ______ ____
ROOT
ATOM      1  C   UNL     1       2.458   7.387  18.615  0.00  0.00    +0.000 A 
ATOM      2  C   UNL     1       2.333   8.359  17.611  0.00  0.00    +0.000 A 
ATOM      3  C   UNL     1       1.708   9.602  17.855  0.00  0.00    +0.000 A 
ATOM      4  C   UNL     1       1.157   9.870  19.113  0.00  0.00    +0.000 A 
ATOM      5  C   UNL     1       1.354   8.942  20.126  0.00  0.00    +0.000 A 
ATOM      6  C   UNL     1       2.069   7.765  19.895  0.00  0.00    +0.000 A 
ATOM      7  C   UNL     1       0.703   9.100  21.427  0.00  0.00    +0.000 C 
ATOM      8  O   UNL     1       0.843   8.260  22.311  0.00  0.00    +0.000 OA
ATOM      9  C   UNL     1      -0.169  10.255  21.660  0.00  0.00    +0.000 A 
ATOM     10  C   UNL     1      -0.827  10.360  22.887  0.00  0.00    +0.000 A 
ATOM     11  C   UNL     1      -1.664  11.446  23.135  0.00  0.00    +0.000 A 
ATOM     12  C   UNL     1      -1.947  12.391  22.144  0.00  0.00    +0.000 A 
ATOM     13  C   UNL     1      -1.240  12.290  20.927  0.00  0.00    +0.000 A 
ATOM     14  C   UNL     1      -0.356  11.223  20.677  0.00  0.00    +0.000 A 
ATOM     15  C   UNL     1       0.356  11.096  19.376  0.00  0.00    +0.000 C 
ATOM     16  O   UNL     1       0.276  11.974  18.527  0.00  0.00    +0.000 OA
ENDROOT
BRANCH   1  21
ATOM     17  C   UNL     1       4.224   3.775  17.412  0.00  0.00    +0.000 C 
ATOM     18  N   UNL     1       3.527   3.855  18.691  0.00  0.00    +0.000 N 
ATOM     19  C   UNL     1       3.760   2.752  19.615  0.00  0.00    +0.000 C 
ATOM     20  C   UNL     1       2.926   5.057  19.060  0.00  0.00    +0.000 C 
ATOM     21  N   UNL     1       2.988   6.125  18.303  0.00  0.00    +0.000 NA
BRANCH  20  22
ATOM     22  C   UNL     1       2.272   5.052  20.410  0.00  0.00    +0.000 C 
ATOM     23  C   UNL     1       0.836   4.587  20.585  0.00  0.00    +0.000 C 
ATOM     24  C   UNL     1       1.944   3.799  21.192  0.00  0.00    +0.000 C 
ENDBRANCH  20  22
ENDBRANCH   1  21
BRANCH  12  25
ATOM     25  N   UNL     1      -2.871  13.443  22.282  0.00  0.00    +0.000 NA
ATOM     26  C   UNL     1      -4.096  13.507  21.814  0.00  0.00    +0.000 C 
ATOM     27  N   UNL     1      -4.882  14.636  22.011  0.00  0.00    +0.000 N 
ATOM     28  C   UNL     1      -4.363  15.755  22.805  0.00  0.00    +0.000 C 
ATOM     29  C   UNL     1      -6.300  14.758  21.724  0.00  0.00    +0.000 C 
BRANCH  26  30
ATOM     30  C   UNL     1      -4.705  12.340  21.091  0.00  0.00    +0.000 C 
ATOM     31  C   UNL     1      -5.903  12.270  20.176  0.00  0.00    +0.000 C 
ATOM     32  C   UNL     1      -4.554  12.351  19.569  0.00  0.00    +0.000 C 
ENDBRANCH  26  30
ENDBRANCH  12  25
TORSDOF 4
ENDMDL
MODEL 5
REMARK VINA RESULT:      -7.6      1.424      2.849
REMARK  Name = 
REMARK  8 active torsions:
REMARK  status: ('A' for Active; 'I' for Inactive)
REMARK    1  A    between atoms: C_1  and  N_2
REMARK    2  A    between atoms: N_2  and  C_3
REMARK    3  A    between atoms: C_4  and  C_30
REMARK    4  A    between atoms: N_5  and  C_6
REMARK    5  A    between atoms: C_17  and  N_18
REMARK    6  A    between atoms: C_19  and  C_20
REMARK    7  A    between atoms: N_23  and  C_24
REMARK    8  A    between atoms: N_23  and  C_25
REMARK                            x       y       z     vdW  Elec       q    Type
REMARK                         _______ _______ _______ _____ _____    ______ ____
ROOT
ATOM      1  C   UNL     1      -2.263  13.788  22.017  0.00  0.00    +0.000 A 
ATOM      2  C   UNL     1      -2.413  13.902  20.627  0.00  0.00    +0.000 A 
ATOM      3  C   UNL     1      -1.933  12.908  19.745  0.00  0.00    +0.000 A 
ATOM      4  C   UNL     1      -1.250  11.796  20.253  0.00  0.00    +0.000 A 
ATOM      5  C   UNL     1      -1.175  11.646  21.630  0.00  0.00    +0.000 A 
ATOM      6  C   UNL     1      -1.750  12.585  22.489  0.00  0.00    +0.000 A 
ATOM      7  C   UNL     1      -0.373  10.578  22.227  0.00  0.00    +0.000 C 
ATOM      8  O   UNL     1      -0.273  10.467  23.445  0.00  0.00    +0.000 OA
ATOM      9  C   UNL     1       0.359   9.654  21.355  0.00  0.00    +0.000 A 
ATOM     10  C   UNL     1       1.163   8.677  21.942  0.00  0.00    +0.000 A 
ATOM     11  C   UNL     1       1.873   7.787  21.138  0.00  0.00    +0.000 A 
ATOM     12  C   UNL     1       1.884   7.910  19.745  0.00  0.00    +0.000 A 
ATOM     13  C   UNL     1       1.031   8.878  19.171  0.00  0.00    +0.000 A 
ATOM     14  C   UNL     1       0.273   9.756  19.969  0.00  0.00    +0.000 A 
ATOM     15  C   UNL     1      -0.593  10.802  19.362  0.00  0.00    +0.000 C 
ATOM     16  O   UNL     1      -0.753  10.861  18.149  0.00  0.00    +0.000 OA
ENDROOT
BRANCH   1  21
ATOM     17  C   UNL     1      -3.112  17.104  24.446  0.00  0.00    +0.000 C 
ATOM     18  N   UNL     1      -4.183  16.194  24.054  0.00  0.00    +0.000 N 
ATOM     19  C   UNL     1      -5.540  16.675  24.276  0.00  0.00    +0.000 C 
ATOM     20  C   UNL     1      -3.875  15.086  23.267  0.00  0.00    +0.000 C 
ATOM     21  N   UNL     1      -2.656  14.847  22.851  0.00  0.00    +0.000 NA
BRANCH  20  22
ATOM     22  C   UNL     1      -5.050  14.236  22.881  0.00  0.00    +0.000 C 
ATOM     23  C   UNL     1      -5.310  12.902  23.559  0.00  0.00    +0.000 C 
ATOM     24  C   UNL     1      -6.269  14.024  23.750  0.00  0.00    +0.000 C 
ENDBRANCH  20  22
ENDBRANCH   1  21
BRANCH  12  25
ATOM     25  N   UNL     1       2.667   7.128  18.878  0.00  0.00    +0.000 NA
ATOM     26  C   UNL     1       2.580   5.836  18.658  0.00  0.00    +0.000 C 
ATOM     27  N   UNL     1       3.453   5.196  17.786  0.00  0.00    +0.000 N 
ATOM     28  C   UNL     1       4.452   5.979  17.051  0.00  0.00    +0.000 C 
ATOM     29  C   UNL     1       3.343   3.830  17.307  0.00  0.00    +0.000 C 
BRANCH  26  30
ATOM     30  C   UNL     1       1.502   5.016  19.305  0.00  0.00    +0.000 C 
ATOM     31  C   UNL     1       1.401   3.527  19.526  0.00  0.00    +0.000 C 
ATOM     32  C   UNL     1       1.869   4.377  20.645  0.00  0.00    +0.000 C 
ENDBRANCH  26  30
ENDBRANCH  12  25
TORSDOF 4
ENDMDL
MODEL 6
REMARK VINA RESULT:      -7.5      1.425     10.074
REMARK  Name = 
REMARK  8 active torsions:
REMARK  status: ('A' for Active; 'I' for Inactive)
REMARK    1  A    between atoms: C_1  and  N_2
REMARK    2  A    between atoms: N_2  and  C_3
REMARK    3  A    between atoms: C_4  and  C_30
REMARK    4  A    between atoms: N_5  and  C_6
REMARK    5  A    between atoms: C_17  and  N_18
REMARK    6  A    between atoms: C_19  and  C_20
REMARK    7  A    between atoms: N_23  and  C_24
REMARK    8  A    between atoms: N_23  and  C_25
REMARK                            x       y       z     vdW  Elec       q    Type
REMARK                         _______ _______ _______ _____ _____    ______ ____
ROOT
ATOM      1  C   UNL     1       2.208   7.264  18.826  0.00  0.00    +0.000 A 
ATOM      2  C   UNL     1       2.110   8.158  17.749  0.00  0.00    +0.000 A 
ATOM      3  C   UNL     1       1.551   9.447  17.904  0.00  0.00    +0.000 A 
ATOM      4  C   UNL     1       1.040   9.841  19.146  0.00  0.00    +0.000 A 
ATOM      5  C   UNL     1       1.212   8.987  20.226  0.00  0.00    +0.000 A 
ATOM      6  C   UNL     1       1.863   7.761  20.078  0.00  0.00    +0.000 A 
ATOM      7  C   UNL     1       0.596   9.280  21.521  0.00  0.00    +0.000 C 
ATOM      8  O   UNL     1       0.713   8.506  22.466  0.00  0.00    +0.000 OA
ATOM      9  C   UNL     1      -0.212  10.492  21.676  0.00  0.00    +0.000 A 
ATOM     10  C   UNL     1      -0.839  10.727  22.900  0.00  0.00    +0.000 A 
ATOM     11  C   UNL     1      -1.616  11.870  23.075  0.00  0.00    +0.000 A 
ATOM     12  C   UNL     1      -1.873  12.747  22.017  0.00  0.00    +0.000 A 
ATOM     13  C   UNL     1      -1.197  12.514  20.801  0.00  0.00    +0.000 A 
ATOM     14  C   UNL     1      -0.372  11.388  20.621  0.00  0.00    +0.000 A 
ATOM     15  C   UNL     1       0.306  11.123  19.324  0.00  0.00    +0.000 C 
ATOM     16  O   UNL     1       0.252  11.934  18.408  0.00  0.00    +0.000 OA
ENDROOT
BRANCH   1  21
ATOM     17  C   UNL     1       3.277   3.236  18.332  0.00  0.00    +0.000 C 
ATOM     18  N   UNL     1       4.017   4.278  17.629  0.00  0.00    +0.000 N 
ATOM     19  C   UNL     1       4.886   3.825  16.550  0.00  0.00    +0.000 C 
ATOM     20  C   UNL     1       3.662   5.611  17.826  0.00  0.00    +0.000 C 
ATOM     21  N   UNL     1       2.668   5.956  18.607  0.00  0.00    +0.000 NA
BRANCH  20  22
ATOM     22  C   UNL     1       4.453   6.604  17.027  0.00  0.00    +0.000 C 
ATOM     23  C   UNL     1       5.853   7.014  17.449  0.00  0.00    +0.000 C 
ATOM     24  C   UNL     1       5.660   6.252  16.186  0.00  0.00    +0.000 C 
ENDBRANCH  20  22
ENDBRANCH   1  21
BRANCH  12  25
ATOM     25  N   UNL     1      -2.741  13.852  22.086  0.00  0.00    +0.000 NA
ATOM     26  C   UNL     1      -4.026  13.885  21.821  0.00  0.00    +0.000 C 
ATOM     27  N   UNL     1      -4.747  15.070  21.909  0.00  0.00    +0.000 N 
ATOM     28  C   UNL     1      -4.081  16.295  22.361  0.00  0.00    +0.000 C 
ATOM     29  C   UNL     1      -6.191  15.206  21.838  0.00  0.00    +0.000 C 
BRANCH  26  30
ATOM     30  C   UNL     1      -4.770  12.631  21.461  0.00  0.00    +0.000 C 
ATOM     31  C   UNL     1      -6.076  12.442  20.728  0.00  0.00    +0.000 C 
ATOM     32  C   UNL     1      -4.811  12.290  19.970  0.00  0.00    +0.000 C 
ENDBRANCH  26  30
ENDBRANCH  12  25
TORSDOF 4
ENDMDL
MODEL 7
REMARK VINA RESULT:      -7.5      1.676      9.979
REMARK  Name = 
REMARK  8 active torsions:
REMARK  status: ('A' for Active; 'I' for Inactive)
REMARK    1  A    between atoms: C_1  and  N_2
REMARK    2  A    between atoms: N_2  and  C_3
REMARK    3  A    between atoms: C_4  and  C_30
REMARK    4  A    between atoms: N_5  and  C_6
REMARK    5  A    between atoms: C_17  and  N_18
REMARK    6  A    between atoms: C_19  and  C_20
REMARK    7  A    between atoms: N_23  and  C_24
REMARK    8  A    between atoms: N_23  and  C_25
REMARK                            x       y       z     vdW  Elec       q    Type
REMARK                         _______ _______ _______ _____ _____    ______ ____
ROOT
ATOM      1  C   UNL     1       2.659   7.491  18.695  0.00  0.00    +0.000 A 
ATOM      2  C   UNL     1       2.291   6.865  19.896  0.00  0.00    +0.000 A 
ATOM      3  C   UNL     1       1.450   7.502  20.836  0.00  0.00    +0.000 A 
ATOM      4  C   UNL     1       1.000   8.806  20.599  0.00  0.00    +0.000 A 
ATOM      5  C   UNL     1       1.298   9.390  19.376  0.00  0.00    +0.000 A 
ATOM      6  C   UNL     1       2.041   8.704  18.413  0.00  0.00    +0.000 A 
ATOM      7  C   UNL     1       0.966  10.790  19.111  0.00  0.00    +0.000 C 
ATOM      8  O   UNL     1       1.265  11.320  18.045  0.00  0.00    +0.000 OA
ATOM      9  C   UNL     1       0.309  11.584  20.153  0.00  0.00    +0.000 A 
ATOM     10  C   UNL     1       0.050  12.932  19.904  0.00  0.00    +0.000 A 
ATOM     11  C   UNL     1      -0.571  13.711  20.878  0.00  0.00    +0.000 A 
ATOM     12  C   UNL     1      -0.854  13.203  22.150  0.00  0.00    +0.000 A 
ATOM     13  C   UNL     1      -0.624  11.828  22.366  0.00  0.00    +0.000 A 
ATOM     14  C   UNL     1      -0.038  11.015  21.377  0.00  0.00    +0.000 A 
ATOM     15  C   UNL     1       0.243   9.575  21.623  0.00  0.00    +0.000 C 
ATOM     16  O   UNL     1      -0.127   9.030  22.655  0.00  0.00    +0.000 OA
ENDROOT
BRANCH   1  21
ATOM     17  C   UNL     1       5.608   5.945  16.140  0.00  0.00    +0.000 C 
ATOM     18  N   UNL     1       4.629   5.051  16.749  0.00  0.00    +0.000 N 
ATOM     19  C   UNL     1       4.934   3.628  16.675  0.00  0.00    +0.000 C 
ATOM     20  C   UNL     1       3.643   5.588  17.574  0.00  0.00    +0.000 C 
ATOM     21  N   UNL     1       3.582   6.870  17.839  0.00  0.00    +0.000 NA
BRANCH  20  22
ATOM     22  C   UNL     1       2.711   4.584  18.186  0.00  0.00    +0.000 C 
ATOM     23  C   UNL     1       1.322   4.353  17.616  0.00  0.00    +0.000 C 
ATOM     24  C   UNL     1       2.337   3.268  17.542  0.00  0.00    +0.000 C 
ENDBRANCH  20  22
ENDBRANCH   1  21
BRANCH  12  25
ATOM     25  N   UNL     1      -1.369  13.960  23.217  0.00  0.00    +0.000 NA
ATOM     26  C   UNL     1      -2.581  14.447  23.349  0.00  0.00    +0.000 C 
ATOM     27  N   UNL     1      -2.932  15.206  24.459  0.00  0.00    +0.000 N 
ATOM     28  C   UNL     1      -1.956  15.421  25.533  0.00  0.00    +0.000 C 
ATOM     29  C   UNL     1      -4.272  15.631  24.822  0.00  0.00    +0.000 C 
BRANCH  26  30
ATOM     30  C   UNL     1      -3.642  14.158  22.327  0.00  0.00    +0.000 C 
ATOM     31  C   UNL     1      -3.866  12.941  21.464  0.00  0.00    +0.000 C 
ATOM     32  C   UNL     1      -4.655  13.078  22.711  0.00  0.00    +0.000 C 
ENDBRANCH  26  30
ENDBRANCH  12  25
TORSDOF 4
ENDMDL
MODEL 8
REMARK VINA RESULT:      -7.5      1.957      9.981
REMARK  Name = 
REMARK  8 active torsions:
REMARK  status: ('A' for Active; 'I' for Inactive)
REMARK    1  A    between atoms: C_1  and  N_2
REMARK    2  A    between atoms: N_2  and  C_3
REMARK    3  A    between atoms: C_4  and  C_30
REMARK    4  A    between atoms: N_5  and  C_6
REMARK    5  A    between atoms: C_17  and  N_18
REMARK    6  A    between atoms: C_19  and  C_20
REMARK    7  A    between atoms: N_23  and  C_24
REMARK    8  A    between atoms: N_23  and  C_25
REMARK                            x       y       z     vdW  Elec       q    Type
REMARK                         _______ _______ _______ _____ _____    ______ ____
ROOT
ATOM      1  C   UNL     1       3.216   6.033  18.152  0.00  0.00    +0.000 A 
ATOM      2  C   UNL     1       2.892   5.562  19.433  0.00  0.00    +0.000 A 
ATOM      3  C   UNL     1       2.143   6.342  20.343  0.00  0.00    +0.000 A 
ATOM      4  C   UNL     1       1.742   7.635  19.988  0.00  0.00    +0.000 A 
ATOM      5  C   UNL     1       1.993   8.067  18.693  0.00  0.00    +0.000 A 
ATOM      6  C   UNL     1       2.640   7.241  17.771  0.00  0.00    +0.000 A 
ATOM      7  C   UNL     1       1.713   9.446  18.293  0.00  0.00    +0.000 C 
ATOM      8  O   UNL     1       1.971   9.841  17.160  0.00  0.00    +0.000 OA
ATOM      9  C   UNL     1       1.160  10.382  19.275  0.00  0.00    +0.000 A 
ATOM     10  C   UNL     1       0.953  11.708  18.893  0.00  0.00    +0.000 A 
ATOM     11  C   UNL     1       0.431  12.621  19.808  0.00  0.00    +0.000 A 
ATOM     12  C   UNL     1       0.202  12.269  21.142  0.00  0.00    +0.000 A 
ATOM     13  C   UNL     1       0.378  10.915  21.496  0.00  0.00    +0.000 A 
ATOM     14  C   UNL     1       0.862   9.970  20.572  0.00  0.00    +0.000 A 
ATOM     15  C   UNL     1       1.087   8.551  20.960  0.00  0.00    +0.000 C 
ATOM     16  O   UNL     1       0.756   8.141  22.066  0.00  0.00    +0.000 OA
ENDROOT
BRANCH   1  21
ATOM     17  C   UNL     1       5.422   3.683  15.465  0.00  0.00    +0.000 C 
ATOM     18  N   UNL     1       6.114   4.546  16.417  0.00  0.00    +0.000 N 
ATOM     19  C   UNL     1       7.530   4.771  16.160  0.00  0.00    +0.000 C 
ATOM     20  C   UNL     1       5.362   5.299  17.317  0.00  0.00    +0.000 C 
ATOM     21  N   UNL     1       4.053   5.273  17.320  0.00  0.00    +0.000 NA
BRANCH  20  22
ATOM     22  C   UNL     1       6.162   6.186  18.226  0.00  0.00    +0.000 C 
ATOM     23  C   UNL     1       6.708   5.669  19.546  0.00  0.00    +0.000 C 
ATOM     24  C   UNL     1       7.650   6.046  18.457  0.00  0.00    +0.000 C 
ENDBRANCH  20  22
ENDBRANCH   1  21
BRANCH  12  25
ATOM     25  N   UNL     1      -0.208  13.164  22.146  0.00  0.00    +0.000 NA
ATOM     26  C   UNL     1      -1.415  13.325  22.637  0.00  0.00    +0.000 C 
ATOM     27  N   UNL     1      -1.670  14.279  23.615  0.00  0.00    +0.000 N 
ATOM     28  C   UNL     1      -0.567  15.083  24.154  0.00  0.00    +0.000 C 
ATOM     29  C   UNL     1      -2.898  14.424  24.377  0.00  0.00    +0.000 C 
BRANCH  26  30
ATOM     30  C   UNL     1      -2.550  12.448  22.194  0.00  0.00    +0.000 C 
ATOM     31  C   UNL     1      -4.033  12.721  22.131  0.00  0.00    +0.000 C 
ATOM     32  C   UNL     1      -3.236  12.860  20.890  0.00  0.00    +0.000 C 
ENDBRANCH  26  30
ENDBRANCH  12  25
TORSDOF 4
ENDMDL
MODEL 9
REMARK VINA RESULT:      -7.4      1.121      1.975
REMARK  Name = 
REMARK  8 active torsions:
REMARK  status: ('A' for Active; 'I' for Inactive)
REMARK    1  A    between atoms: C_1  and  N_2
REMARK    2  A    between atoms: N_2  and  C_3
REMARK    3  A    between atoms: C_4  and  C_30
REMARK    4  A    between atoms: N_5  and  C_6
REMARK    5  A    between atoms: C_17  and  N_18
REMARK    6  A    between atoms: C_19  and  C_20
REMARK    7  A    between atoms: N_23  and  C_24
REMARK    8  A    between atoms: N_23  and  C_25
REMARK                            x       y       z     vdW  Elec       q    Type
REMARK                         _______ _______ _______ _____ _____    ______ ____
ROOT
ATOM      1  C   UNL     1      -2.393  12.554  21.736  0.00  0.00    +0.000 A 
ATOM      2  C   UNL     1      -2.046  11.907  22.932  0.00  0.00    +0.000 A 
ATOM      3  C   UNL     1      -1.033  10.923  22.976  0.00  0.00    +0.000 A 
ATOM      4  C   UNL     1      -0.378  10.544  21.799  0.00  0.00    +0.000 A 
ATOM      5  C   UNL     1      -0.665  11.242  20.635  0.00  0.00    +0.000 A 
ATOM      6  C   UNL     1      -1.593  12.285  20.631  0.00  0.00    +0.000 A 
ATOM      7  C   UNL     1      -0.111  10.818  19.348  0.00  0.00    +0.000 C 
ATOM      8  O   UNL     1      -0.395  11.410  18.311  0.00  0.00    +0.000 OA
ATOM      9  C   UNL     1       0.759   9.640  19.292  0.00  0.00    +0.000 A 
ATOM     10  C   UNL     1       1.233   9.217  18.050  0.00  0.00    +0.000 A 
ATOM     11  C   UNL     1       2.060   8.098  17.966  0.00  0.00    +0.000 A 
ATOM     12  C   UNL     1       2.350   7.318  19.090  0.00  0.00    +0.000 A 
ATOM     13  C   UNL     1       1.896   7.788  20.341  0.00  0.00    +0.000 A 
ATOM     14  C   UNL     1       1.097   8.941  20.449  0.00  0.00    +0.000 A 
ATOM     15  C   UNL     1       0.585   9.410  21.765  0.00  0.00    +0.000 C 
ATOM     16  O   UNL     1       0.933   8.865  22.805  0.00  0.00    +0.000 OA
ENDROOT
BRANCH   1  21
ATOM     17  C   UNL     1      -5.847  14.933  21.582  0.00  0.00    +0.000 C 
ATOM     18  N   UNL     1      -4.620  15.466  22.163  0.00  0.00    +0.000 N 
ATOM     19  C   UNL     1      -4.763  16.691  22.940  0.00  0.00    +0.000 C 
ATOM     20  C   UNL     1      -3.477  14.669  22.181  0.00  0.00    +0.000 C 
ATOM     21  N   UNL     1      -3.478  13.445  21.714  0.00  0.00    +0.000 NA
BRANCH  20  22
ATOM     22  C   UNL     1      -2.280  15.290  22.837  0.00  0.00    +0.000 C 
ATOM     23  C   UNL     1      -0.976  15.472  22.080  0.00  0.00    +0.000 C 
ATOM     24  C   UNL     1      -1.749  16.668  22.509  0.00  0.00    +0.000 C 
ENDBRANCH  20  22
ENDBRANCH   1  21
BRANCH  12  25
ATOM     25  N   UNL     1       3.075   6.114  19.063  0.00  0.00    +0.000 NA
ATOM     26  C   UNL     1       4.196   5.863  18.428  0.00  0.00    +0.000 C 
ATOM     27  N   UNL     1       4.782   4.603  18.475  0.00  0.00    +0.000 N 
ATOM     28  C   UNL     1       4.174   3.548  19.293  0.00  0.00    +0.000 C 
ATOM     29  C   UNL     1       6.104   4.250  17.990  0.00  0.00    +0.000 C 
BRANCH  26  30
ATOM     30  C   UNL     1       4.910   6.945  17.669  0.00  0.00    +0.000 C 
ATOM     31  C   UNL     1       6.184   6.899  16.862  0.00  0.00    +0.000 C 
ATOM     32  C   UNL     1       4.891   6.809  16.146  0.00  0.00    +0.000 C 
ENDBRANCH  26  30
ENDBRANCH  12  25
TORSDOF 4
ENDMDL
