MODEL 1
REMARK VINA RESULT:      -8.4      0.000      0.000
REMARK  Name = 
REMARK  8 active torsions:
REMARK  status: ('A' for Active; 'I' for Inactive)
REMARK    1  A    between atoms: C_1  and  C_2
REMARK    2  A    between atoms: C_6  and  C_7
REMARK    3  A    between atoms: C_9  and  C_10
REMARK    4  A    between atoms: C_10  and  O_12
REMARK    5  A    between atoms: C_14  and  S_15
REMARK    6  A    between atoms: S_15  and  N_18
REMARK    7  A    between atoms: N_18  and  C_19
REMARK    8  A    between atoms: C_19  and  C_20
REMARK                            x       y       z     vdW  Elec       q    Type
REMARK                         _______ _______ _______ _____ _____    ______ ____
ROOT
ATOM      1  C   UNL     1       2.406   6.773  19.661  0.00  0.00    +0.000 A 
ATOM      2  C   UNL     1       1.722   5.721  20.293  0.00  0.00    +0.000 A 
ATOM      3  C   UNL     1       2.295   4.453  20.460  0.00  0.00    +0.000 A 
ATOM      4  C   UNL     1       3.556   4.200  19.931  0.00  0.00    +0.000 A 
ATOM      5  C   UNL     1       4.252   5.241  19.300  0.00  0.00    +0.000 A 
ATOM      6  C   UNL     1       3.697   6.509  19.189  0.00  0.00    +0.000 A 
ENDROOT
BRANCH   1  12
ATOM      7  C   UNL     1       1.025   8.616  21.923  0.00  0.00    +0.000 C 
ATOM      8  C   UNL     1       1.177   8.925  20.466  0.00  0.00    +0.000 A 
ATOM      9  C   UNL     1       0.687  10.139  19.879  0.00  0.00    +0.000 A 
ATOM     10  C   UNL     1       0.954  10.233  18.534  0.00  0.00    +0.000 A 
ATOM     11  S   UNL     1       1.783   8.869  17.962  0.00  0.00    +0.000 S 
ATOM     12  C   UNL     1       1.793   8.111  19.517  0.00  0.00    +0.000 A 
ENDBRANCH   1  12
BRANCH   5  13
ATOM     13  S   UNL     1       5.920   4.938  18.755  0.00  0.00    +0.000 S 
ATOM     14  O   UNL     1       6.794   5.503  19.762  0.00  0.00    +0.000 OA
ATOM     15  O   UNL     1       5.987   3.552  18.375  0.00  0.00    +0.000 OA
BRANCH  13  16
ATOM     16  N   UNL     1       6.041   5.868  17.342  0.00  0.00    +0.000 NA
ATOM     17  H   UNL     1       5.947   6.867  17.537  0.00  0.00    +0.000 HD
BRANCH  16  18
ATOM     18  C   UNL     1       7.277   5.615  16.560  0.00  0.00    +0.000 C 
BRANCH  18  19
ATOM     19  C   UNL     1       7.010   5.055  15.186  0.00  0.00    +0.000 A 
ATOM     20  C   UNL     1       5.945   4.184  14.965  0.00  0.00    +0.000 A 
ATOM     21  C   UNL     1       5.725   3.714  13.674  0.00  0.00    +0.000 A 
ATOM     22  C   UNL     1       6.574   4.110  12.649  0.00  0.00    +0.000 A 
ATOM     23  C   UNL     1       7.618   4.965  12.956  0.00  0.00    +0.000 A 
ATOM     24  N   UNL     1       7.847   5.457  14.193  0.00  0.00    +0.000 NA
ENDBRANCH  18  19
ENDBRANCH  16  18
ENDBRANCH  13  16
ENDBRANCH   5  13
BRANCH   3  25
ATOM     25  C   UNL     1       1.499   3.425  21.176  0.00  0.00    +0.000 C 
ATOM     26  O   UNL     1       1.869   2.934  22.230  0.00  0.00    +0.000 OA
BRANCH  25  27
ATOM     27  O   UNL     1       0.370   3.034  20.548  0.00  0.00    +0.000 OA
ATOM     28  H   UNL     1      -0.273   3.726  20.310  0.00  0.00    +0.000 HD
ENDBRANCH  25  27
ENDBRANCH   3  25
TORSDOF 7
ENDMDL
MODEL 2
REMARK VINA RESULT:      -8.1      1.019      1.213
REMARK  Name = 
REMARK  8 active torsions:
REMARK  status: ('A' for Active; 'I' for Inactive)
REMARK    1  A    between atoms: C_1  and  C_2
REMARK    2  A    between atoms: C_6  and  C_7
REMARK    3  A    between atoms: C_9  and  C_10
REMARK    4  A    between atoms: C_10  and  O_12
REMARK    5  A    between atoms: C_14  and  S_15
REMARK    6  A    between atoms: S_15  and  N_18
REMARK    7  A    between atoms: N_18  and  C_19
REMARK    8  A    between atoms: C_19  and  C_20
REMARK                            x       y       z     vdW  Elec       q    Type
REMARK                         _______ _______ _______ _____ _____    ______ ____
ROOT
ATOM      1  C   UNL     1       2.857   6.638  19.300  0.00  0.00    +0.000 A 
ATOM      2  C   UNL     1       2.344   5.483  19.913  0.00  0.00    +0.000 A 
ATOM      3  C   UNL     1       3.084   4.296  20.004  0.00  0.00    +0.000 A 
ATOM      4  C   UNL     1       4.342   4.231  19.416  0.00  0.00    +0.000 A 
ATOM      5  C   UNL     1       4.868   5.377  18.803  0.00  0.00    +0.000 A 
ATOM      6  C   UNL     1       4.148   6.564  18.767  0.00  0.00    +0.000 A 
ENDROOT
BRANCH   1  12
ATOM      7  C   UNL     1       1.159   8.077  21.640  0.00  0.00    +0.000 C 
ATOM      8  C   UNL     1       1.315   8.526  20.220  0.00  0.00    +0.000 A 
ATOM      9  C   UNL     1       0.680   9.709  19.711  0.00  0.00    +0.000 A 
ATOM     10  C   UNL     1       0.975   9.953  18.392  0.00  0.00    +0.000 A 
ATOM     11  S   UNL     1       2.004   8.767  17.749  0.00  0.00    +0.000 S 
ATOM     12  C   UNL     1       2.068   7.888  19.236  0.00  0.00    +0.000 A 
ENDBRANCH   1  12
BRANCH   5  13
ATOM     13  S   UNL     1       6.535   5.317  18.181  0.00  0.00    +0.000 S 
ATOM     14  O   UNL     1       6.780   6.586  17.526  0.00  0.00    +0.000 OA
ATOM     15  O   UNL     1       7.363   4.841  19.258  0.00  0.00    +0.000 OA
BRANCH  13  16
ATOM     16  N   UNL     1       6.467   4.098  17.004  0.00  0.00    +0.000 NA
ATOM     17  H   UNL     1       6.253   3.187  17.416  0.00  0.00    +0.000 HD
BRANCH  16  18
ATOM     18  C   UNL     1       5.528   4.389  15.892  0.00  0.00    +0.000 C 
BRANCH  18  19
ATOM     19  C   UNL     1       6.194   4.414  14.539  0.00  0.00    +0.000 A 
ATOM     20  C   UNL     1       5.694   3.654  13.484  0.00  0.00    +0.000 A 
ATOM     21  C   UNL     1       6.328   3.730  12.248  0.00  0.00    +0.000 A 
ATOM     22  C   UNL     1       7.445   4.542  12.102  0.00  0.00    +0.000 A 
ATOM     23  C   UNL     1       7.888   5.250  13.206  0.00  0.00    +0.000 A 
ATOM     24  N   UNL     1       7.283   5.217  14.413  0.00  0.00    +0.000 NA
ENDBRANCH  18  19
ENDBRANCH  16  18
ENDBRANCH  13  16
ENDBRANCH   5  13
BRANCH   3  25
ATOM     25  C   UNL     1       2.460   3.146  20.706  0.00  0.00    +0.000 C 
ATOM     26  O   UNL     1       2.483   3.037  21.921  0.00  0.00    +0.000 OA
BRANCH  25  27
ATOM     27  O   UNL     1       1.920   2.207  19.901  0.00  0.00    +0.000 OA
ATOM     28  H   UNL     1       1.638   1.370  20.314  0.00  0.00    +0.000 HD
ENDBRANCH  25  27
ENDBRANCH   3  25
TORSDOF 7
ENDMDL
MODEL 3
REMARK VINA RESULT:      -8.0      1.340      1.850
REMARK  Name = 
REMARK  8 active torsions:
REMARK  status: ('A' for Active; 'I' for Inactive)
REMARK    1  A    between atoms: C_1  and  C_2
REMARK    2  A    between atoms: C_6  and  C_7
REMARK    3  A    between atoms: C_9  and  C_10
REMARK    4  A    between atoms: C_10  and  O_12
REMARK    5  A    between atoms: C_14  and  S_15
REMARK    6  A    between atoms: S_15  and  N_18
REMARK    7  A    between atoms: N_18  and  C_19
REMARK    8  A    between atoms: C_19  and  C_20
REMARK                            x       y       z     vdW  Elec       q    Type
REMARK                         _______ _______ _______ _____ _____    ______ ____
ROOT
ATOM      1  C   UNL     1       2.456   6.701  19.888  0.00  0.00    +0.000 A 
ATOM      2  C   UNL     1       1.937   5.557  20.516  0.00  0.00    +0.000 A 
ATOM      3  C   UNL     1       2.600   4.323  20.485  0.00  0.00    +0.000 A 
ATOM      4  C   UNL     1       3.780   4.202  19.758  0.00  0.00    +0.000 A 
ATOM      5  C   UNL     1       4.311   5.336  19.128  0.00  0.00    +0.000 A 
ATOM      6  C   UNL     1       3.674   6.567  19.212  0.00  0.00    +0.000 A 
ENDROOT
BRANCH   1  12
ATOM      7  C   UNL     1       1.920   8.832  17.522  0.00  0.00    +0.000 C 
ATOM      8  C   UNL     1       1.516   8.947  18.959  0.00  0.00    +0.000 A 
ATOM      9  C   UNL     1       0.817  10.089  19.475  0.00  0.00    +0.000 A 
ATOM     10  C   UNL     1       0.520   9.980  20.812  0.00  0.00    +0.000 A 
ATOM     11  S   UNL     1       1.084   8.518  21.463  0.00  0.00    +0.000 S 
ATOM     12  C   UNL     1       1.752   8.001  19.955  0.00  0.00    +0.000 A 
ENDBRANCH   1  12
BRANCH   5  13
ATOM     13  S   UNL     1       5.893   5.196  18.323  0.00  0.00    +0.000 S 
ATOM     14  O   UNL     1       6.121   6.449  17.634  0.00  0.00    +0.000 OA
ATOM     15  O   UNL     1       6.814   4.683  19.303  0.00  0.00    +0.000 OA
BRANCH  13  16
ATOM     16  N   UNL     1       5.635   3.977  17.171  0.00  0.00    +0.000 NA
ATOM     17  H   UNL     1       5.185   3.157  17.583  0.00  0.00    +0.000 HD
BRANCH  16  18
ATOM     18  C   UNL     1       4.878   4.430  15.978  0.00  0.00    +0.000 C 
BRANCH  18  19
ATOM     19  C   UNL     1       5.677   4.359  14.701  0.00  0.00    +0.000 A 
ATOM     20  C   UNL     1       6.908   5.002  14.594  0.00  0.00    +0.000 A 
ATOM     21  C   UNL     1       7.620   4.886  13.404  0.00  0.00    +0.000 A 
ATOM     22  C   UNL     1       7.083   4.151  12.355  0.00  0.00    +0.000 A 
ATOM     23  C   UNL     1       5.846   3.557  12.539  0.00  0.00    +0.000 A 
ATOM     24  N   UNL     1       5.139   3.631  13.687  0.00  0.00    +0.000 NA
ENDBRANCH  18  19
ENDBRANCH  16  18
ENDBRANCH  13  16
ENDBRANCH   5  13
BRANCH   3  25
ATOM     25  C   UNL     1       1.981   3.187  21.214  0.00  0.00    +0.000 C 
ATOM     26  O   UNL     1       2.591   2.544  22.052  0.00  0.00    +0.000 OA
BRANCH  25  27
ATOM     27  O   UNL     1       0.719   2.886  20.841  0.00  0.00    +0.000 OA
ATOM     28  H   UNL     1       0.603   2.403  20.003  0.00  0.00    +0.000 HD
ENDBRANCH  25  27
ENDBRANCH   3  25
TORSDOF 7
ENDMDL
MODEL 4
REMARK VINA RESULT:      -7.8      1.301      1.787
REMARK  Name = 
REMARK  8 active torsions:
REMARK  status: ('A' for Active; 'I' for Inactive)
REMARK    1  A    between atoms: C_1  and  C_2
REMARK    2  A    between atoms: C_6  and  C_7
REMARK    3  A    between atoms: C_9  and  C_10
REMARK    4  A    between atoms: C_10  and  O_12
REMARK    5  A    between atoms: C_14  and  S_15
REMARK    6  A    between atoms: S_15  and  N_18
REMARK    7  A    between atoms: N_18  and  C_19
REMARK    8  A    between atoms: C_19  and  C_20
REMARK                            x       y       z     vdW  Elec       q    Type
REMARK                         _______ _______ _______ _____ _____    ______ ____
ROOT
ATOM      1  C   UNL     1       2.220   6.690  19.727  0.00  0.00    +0.000 A 
ATOM      2  C   UNL     1       1.480   5.519  19.954  0.00  0.00    +0.000 A 
ATOM      3  C   UNL     1       2.003   4.244  19.694  0.00  0.00    +0.000 A 
ATOM      4  C   UNL     1       3.270   4.129  19.134  0.00  0.00    +0.000 A 
ATOM      5  C   UNL     1       4.022   5.290  18.904  0.00  0.00    +0.000 A 
ATOM      6  C   UNL     1       3.515   6.545  19.218  0.00  0.00    +0.000 A 
ENDROOT
BRANCH   1  12
ATOM      7  C   UNL     1       1.673   9.159  17.719  0.00  0.00    +0.000 C 
ATOM      8  C   UNL     1       1.424   9.114  19.194  0.00  0.00    +0.000 A 
ATOM      9  C   UNL     1       0.895  10.232  19.922  0.00  0.00    +0.000 A 
ATOM     10  C   UNL     1       0.720   9.970  21.260  0.00  0.00    +0.000 A 
ATOM     11  S   UNL     1       1.195   8.390  21.657  0.00  0.00    +0.000 S 
ATOM     12  C   UNL     1       1.659   8.025  20.032  0.00  0.00    +0.000 A 
ENDBRANCH   1  12
BRANCH   5  13
ATOM     13  S   UNL     1       5.695   5.116  18.321  0.00  0.00    +0.000 S 
ATOM     14  O   UNL     1       6.127   6.433  17.900  0.00  0.00    +0.000 OA
ATOM     15  O   UNL     1       6.405   4.360  19.318  0.00  0.00    +0.000 OA
BRANCH  13  16
ATOM     16  N   UNL     1       5.526   4.132  16.949  0.00  0.00    +0.000 NA
ATOM     17  H   UNL     1       4.951   3.309  17.143  0.00  0.00    +0.000 HD
BRANCH  16  18
ATOM     18  C   UNL     1       5.009   4.847  15.756  0.00  0.00    +0.000 C 
BRANCH  18  19
ATOM     19  C   UNL     1       5.809   4.580  14.506  0.00  0.00    +0.000 A 
ATOM     20  C   UNL     1       5.382   3.635  13.575  0.00  0.00    +0.000 A 
ATOM     21  C   UNL     1       6.141   3.442  12.426  0.00  0.00    +0.000 A 
ATOM     22  C   UNL     1       7.304   4.178  12.243  0.00  0.00    +0.000 A 
ATOM     23  C   UNL     1       7.667   5.084  13.225  0.00  0.00    +0.000 A 
ATOM     24  N   UNL     1       6.942   5.312  14.341  0.00  0.00    +0.000 NA
ENDBRANCH  18  19
ENDBRANCH  16  18
ENDBRANCH  13  16
ENDBRANCH   5  13
BRANCH   3  25
ATOM     25  C   UNL     1       1.148   3.071  20.006  0.00  0.00    +0.000 C 
ATOM     26  O   UNL     1       0.582   2.431  19.135  0.00  0.00    +0.000 OA
BRANCH  25  27
ATOM     27  O   UNL     1       0.998   2.803  21.320  0.00  0.00    +0.000 OA
ATOM     28  H   UNL     1       0.269   3.248  21.788  0.00  0.00    +0.000 HD
ENDBRANCH  25  27
ENDBRANCH   3  25
TORSDOF 7
ENDMDL
MODEL 5
REMARK VINA RESULT:      -7.8      1.135      1.488
REMARK  Name = 
REMARK  8 active torsions:
REMARK  status: ('A' for Active; 'I' for Inactive)
REMARK    1  A    between atoms: C_1  and  C_2
REMARK    2  A    between atoms: C_6  and  C_7
REMARK    3  A    between atoms: C_9  and  C_10
REMARK    4  A    between atoms: C_10  and  O_12
REMARK    5  A    between atoms: C_14  and  S_15
REMARK    6  A    between atoms: S_15  and  N_18
REMARK    7  A    between atoms: N_18  and  C_19
REMARK    8  A    between atoms: C_19  and  C_20
REMARK                            x       y       z     vdW  Elec       q    Type
REMARK                         _______ _______ _______ _____ _____    ______ ____
ROOT
ATOM      1  C   UNL     1       2.360   6.387  19.799  0.00  0.00    +0.000 A 
ATOM      2  C   UNL     1       1.842   5.357  20.602  0.00  0.00    +0.000 A 
ATOM      3  C   UNL     1       2.344   4.050  20.553  0.00  0.00    +0.000 A 
ATOM      4  C   UNL     1       3.343   3.737  19.638  0.00  0.00    +0.000 A 
ATOM      5  C   UNL     1       3.871   4.755  18.832  0.00  0.00    +0.000 A 
ATOM      6  C   UNL     1       3.405   6.060  18.928  0.00  0.00    +0.000 A 
ENDROOT
BRANCH   1  12
ATOM      7  C   UNL     1       2.257   8.656  17.504  0.00  0.00    +0.000 C 
ATOM      8  C   UNL     1       1.786   8.772  18.921  0.00  0.00    +0.000 A 
ATOM      9  C   UNL     1       1.216   9.979  19.448  0.00  0.00    +0.000 A 
ATOM     10  C   UNL     1       0.827   9.863  20.761  0.00  0.00    +0.000 A 
ATOM     11  S   UNL     1       1.150   8.315  21.375  0.00  0.00    +0.000 S 
ATOM     12  C   UNL     1       1.833   7.767  19.884  0.00  0.00    +0.000 A 
ENDBRANCH   1  12
BRANCH   5  13
ATOM     13  S   UNL     1       5.246   4.368  17.769  0.00  0.00    +0.000 S 
ATOM     14  O   UNL     1       6.448   4.594  18.546  0.00  0.00    +0.000 OA
ATOM     15  O   UNL     1       4.957   3.096  17.162  0.00  0.00    +0.000 OA
BRANCH  13  16
ATOM     16  N   UNL     1       5.146   5.552  16.559  0.00  0.00    +0.000 NA
ATOM     17  H   UNL     1       4.728   6.416  16.910  0.00  0.00    +0.000 HD
BRANCH  16  18
ATOM     18  C   UNL     1       6.442   5.844  15.896  0.00  0.00    +0.000 C 
BRANCH  18  19
ATOM     19  C   UNL     1       6.603   5.146  14.568  0.00  0.00    +0.000 A 
ATOM     20  C   UNL     1       5.683   4.187  14.151  0.00  0.00    +0.000 A 
ATOM     21  C   UNL     1       5.861   3.589  12.907  0.00  0.00    +0.000 A 
ATOM     22  C   UNL     1       6.951   3.950  12.125  0.00  0.00    +0.000 A 
ATOM     23  C   UNL     1       7.827   4.900  12.622  0.00  0.00    +0.000 A 
ATOM     24  N   UNL     1       7.672   5.515  13.814  0.00  0.00    +0.000 NA
ENDBRANCH  18  19
ENDBRANCH  16  18
ENDBRANCH  13  16
ENDBRANCH   5  13
BRANCH   3  25
ATOM     25  C   UNL     1       1.748   3.047  21.473  0.00  0.00    +0.000 C 
ATOM     26  O   UNL     1       2.398   2.506  22.352  0.00  0.00    +0.000 OA
BRANCH  25  27
ATOM     27  O   UNL     1       0.457   2.739  21.227  0.00  0.00    +0.000 OA
ATOM     28  H   UNL     1       0.256   1.820  20.972  0.00  0.00    +0.000 HD
ENDBRANCH  25  27
ENDBRANCH   3  25
TORSDOF 7
ENDMDL
MODEL 6
REMARK VINA RESULT:      -7.6      1.575      1.748
REMARK  Name = 
REMARK  8 active torsions:
REMARK  status: ('A' for Active; 'I' for Inactive)
REMARK    1  A    between atoms: C_1  and  C_2
REMARK    2  A    between atoms: C_6  and  C_7
REMARK    3  A    between atoms: C_9  and  C_10
REMARK    4  A    between atoms: C_10  and  O_12
REMARK    5  A    between atoms: C_14  and  S_15
REMARK    6  A    between atoms: S_15  and  N_18
REMARK    7  A    between atoms: N_18  and  C_19
REMARK    8  A    between atoms: C_19  and  C_20
REMARK                            x       y       z     vdW  Elec       q    Type
REMARK                         _______ _______ _______ _____ _____    ______ ____
ROOT
ATOM      1  C   UNL     1       2.735   6.731  18.646  0.00  0.00    +0.000 A 
ATOM      2  C   UNL     1       2.061   5.513  18.456  0.00  0.00    +0.000 A 
ATOM      3  C   UNL     1       2.742   4.318  18.184  0.00  0.00    +0.000 A 
ATOM      4  C   UNL     1       4.124   4.342  18.031  0.00  0.00    +0.000 A 
ATOM      5  C   UNL     1       4.810   5.550  18.220  0.00  0.00    +0.000 A 
ATOM      6  C   UNL     1       4.130   6.717  18.545  0.00  0.00    +0.000 A 
ENDROOT
BRANCH   1  12
ATOM      7  C   UNL     1       1.175   7.530  21.358  0.00  0.00    +0.000 C 
ATOM      8  C   UNL     1       1.305   8.345  20.109  0.00  0.00    +0.000 A 
ATOM      9  C   UNL     1       0.704   9.641  19.967  0.00  0.00    +0.000 A 
ATOM     10  C   UNL     1       0.967  10.226  18.752  0.00  0.00    +0.000 A 
ATOM     11  S   UNL     1       1.924   9.229  17.769  0.00  0.00    +0.000 S 
ATOM     12  C   UNL     1       1.998   7.975  18.958  0.00  0.00    +0.000 A 
ENDBRANCH   1  12
BRANCH   5  13
ATOM     13  S   UNL     1       6.589   5.533  18.161  0.00  0.00    +0.000 S 
ATOM     14  O   UNL     1       7.011   6.902  17.948  0.00  0.00    +0.000 OA
ATOM     15  O   UNL     1       7.034   4.763  19.293  0.00  0.00    +0.000 OA
BRANCH  13  16
ATOM     16  N   UNL     1       6.923   4.634  16.762  0.00  0.00    +0.000 NA
ATOM     17  H   UNL     1       6.151   4.007  16.523  0.00  0.00    +0.000 HD
BRANCH  16  18
ATOM     18  C   UNL     1       7.289   5.464  15.588  0.00  0.00    +0.000 C 
BRANCH  18  19
ATOM     19  C   UNL     1       6.960   4.811  14.269  0.00  0.00    +0.000 A 
ATOM     20  C   UNL     1       5.934   3.875  14.173  0.00  0.00    +0.000 A 
ATOM     21  C   UNL     1       5.652   3.319  12.929  0.00  0.00    +0.000 A 
ATOM     22  C   UNL     1       6.405   3.697  11.826  0.00  0.00    +0.000 A 
ATOM     23  C   UNL     1       7.419   4.621  12.010  0.00  0.00    +0.000 A 
ATOM     24  N   UNL     1       7.704   5.196  13.198  0.00  0.00    +0.000 NA
ENDBRANCH  18  19
ENDBRANCH  16  18
ENDBRANCH  13  16
ENDBRANCH   5  13
BRANCH   3  25
ATOM     25  C   UNL     1       1.934   3.081  18.038  0.00  0.00    +0.000 C 
ATOM     26  O   UNL     1       0.738   3.055  18.276  0.00  0.00    +0.000 OA
BRANCH  25  27
ATOM     27  O   UNL     1       2.630   1.981  17.680  0.00  0.00    +0.000 OA
ATOM     28  H   UNL     1       2.398   1.142  18.118  0.00  0.00    +0.000 HD
ENDBRANCH  25  27
ENDBRANCH   3  25
TORSDOF 7
ENDMDL
MODEL 7
REMARK VINA RESULT:      -7.6      2.737      4.361
REMARK  Name = 
REMARK  8 active torsions:
REMARK  status: ('A' for Active; 'I' for Inactive)
REMARK    1  A    between atoms: C_1  and  C_2
REMARK    2  A    between atoms: C_6  and  C_7
REMARK    3  A    between atoms: C_9  and  C_10
REMARK    4  A    between atoms: C_10  and  O_12
REMARK    5  A    between atoms: C_14  and  S_15
REMARK    6  A    between atoms: S_15  and  N_18
REMARK    7  A    between atoms: N_18  and  C_19
REMARK    8  A    between atoms: C_19  and  C_20
REMARK                            x       y       z     vdW  Elec       q    Type
REMARK                         _______ _______ _______ _____ _____    ______ ____
ROOT
ATOM      1  C   UNL     1       3.326   5.029  18.584  0.00  0.00    +0.000 A 
ATOM      2  C   UNL     1       2.592   6.224  18.496  0.00  0.00    +0.000 A 
ATOM      3  C   UNL     1       3.191   7.443  18.149  0.00  0.00    +0.000 A 
ATOM      4  C   UNL     1       4.566   7.493  17.948  0.00  0.00    +0.000 A 
ATOM      5  C   UNL     1       5.311   6.308  18.031  0.00  0.00    +0.000 A 
ATOM      6  C   UNL     1       4.698   5.095  18.320  0.00  0.00    +0.000 A 
ENDROOT
BRANCH   1  12
ATOM      7  C   UNL     1       2.135   4.066  21.427  0.00  0.00    +0.000 C 
ATOM      8  C   UNL     1       2.159   3.297  20.143  0.00  0.00    +0.000 A 
ATOM      9  C   UNL     1       1.636   1.965  20.031  0.00  0.00    +0.000 A 
ATOM     10  C   UNL     1       1.734   1.453  18.759  0.00  0.00    +0.000 A 
ATOM     11  S   UNL     1       2.460   2.555  17.693  0.00  0.00    +0.000 S 
ATOM     12  C   UNL     1       2.669   3.748  18.927  0.00  0.00    +0.000 A 
ENDBRANCH   1  12
BRANCH   5  13
ATOM     13  S   UNL     1       7.045   6.366  17.629  0.00  0.00    +0.000 S 
ATOM     14  O   UNL     1       7.220   7.467  16.704  0.00  0.00    +0.000 OA
ATOM     15  O   UNL     1       7.762   6.293  18.875  0.00  0.00    +0.000 OA
BRANCH  13  16
ATOM     16  N   UNL     1       7.300   4.908  16.800  0.00  0.00    +0.000 NA
ATOM     17  H   UNL     1       7.496   4.138  17.442  0.00  0.00    +0.000 HD
BRANCH  16  18
ATOM     18  C   UNL     1       6.194   4.539  15.882  0.00  0.00    +0.000 C 
BRANCH  18  19
ATOM     19  C   UNL     1       6.609   4.502  14.432  0.00  0.00    +0.000 A 
ATOM     20  C   UNL     1       5.989   3.636  13.535  0.00  0.00    +0.000 A 
ATOM     21  C   UNL     1       6.389   3.657  12.202  0.00  0.00    +0.000 A 
ATOM     22  C   UNL     1       7.400   4.523  11.807  0.00  0.00    +0.000 A 
ATOM     23  C   UNL     1       7.976   5.339  12.765  0.00  0.00    +0.000 A 
ATOM     24  N   UNL     1       7.596   5.360  14.061  0.00  0.00    +0.000 NA
ENDBRANCH  18  19
ENDBRANCH  16  18
ENDBRANCH  13  16
ENDBRANCH   5  13
BRANCH   3  25
ATOM     25  C   UNL     1       2.316   8.638  18.048  0.00  0.00    +0.000 C 
ATOM     26  O   UNL     1       2.357   9.393  17.091  0.00  0.00    +0.000 OA
BRANCH  25  27
ATOM     27  O   UNL     1       1.518   8.856  19.115  0.00  0.00    +0.000 OA
ATOM     28  H   UNL     1       1.910   9.312  19.882  0.00  0.00    +0.000 HD
ENDBRANCH  25  27
ENDBRANCH   3  25
TORSDOF 7
ENDMDL
MODEL 8
REMARK VINA RESULT:      -7.6      1.560      1.794
REMARK  Name = 
REMARK  8 active torsions:
REMARK  status: ('A' for Active; 'I' for Inactive)
REMARK    1  A    between atoms: C_1  and  C_2
REMARK    2  A    between atoms: C_6  and  C_7
REMARK    3  A    between atoms: C_9  and  C_10
REMARK    4  A    between atoms: C_10  and  O_12
REMARK    5  A    between atoms: C_14  and  S_15
REMARK    6  A    between atoms: S_15  and  N_18
REMARK    7  A    between atoms: N_18  and  C_19
REMARK    8  A    between atoms: C_19  and  C_20
REMARK                            x       y       z     vdW  Elec       q    Type
REMARK                         _______ _______ _______ _____ _____    ______ ____
ROOT
ATOM      1  C   UNL     1       2.119   7.624  18.978  0.00  0.00    +0.000 A 
ATOM      2  C   UNL     1       1.705   6.388  19.499  0.00  0.00    +0.000 A 
ATOM      3  C   UNL     1       2.370   5.191  19.197  0.00  0.00    +0.000 A 
ATOM      4  C   UNL     1       3.435   5.211  18.304  0.00  0.00    +0.000 A 
ATOM      5  C   UNL     1       3.861   6.438  17.778  0.00  0.00    +0.000 A 
ATOM      6  C   UNL     1       3.230   7.625  18.128  0.00  0.00    +0.000 A 
ENDROOT
BRANCH   1  12
ATOM      7  C   UNL     1       1.186   8.670  21.887  0.00  0.00    +0.000 C 
ATOM      8  C   UNL     1       0.990   9.353  20.569  0.00  0.00    +0.000 A 
ATOM      9  C   UNL     1       0.317  10.614  20.445  0.00  0.00    +0.000 A 
ATOM     10  C   UNL     1       0.270  11.075  19.151  0.00  0.00    +0.000 A 
ATOM     11  S   UNL     1       1.020  10.000  18.075  0.00  0.00    +0.000 S 
ATOM     12  C   UNL     1       1.419   8.880  19.330  0.00  0.00    +0.000 A 
ENDBRANCH   1  12
BRANCH   5  13
ATOM     13  S   UNL     1       5.314   6.462  16.750  0.00  0.00    +0.000 S 
ATOM     14  O   UNL     1       4.892   6.927  15.445  0.00  0.00    +0.000 OA
ATOM     15  O   UNL     1       6.345   7.127  17.502  0.00  0.00    +0.000 OA
BRANCH  13  16
ATOM     16  N   UNL     1       5.735   4.822  16.636  0.00  0.00    +0.000 NA
ATOM     17  H   UNL     1       5.040   4.290  16.108  0.00  0.00    +0.000 HD
BRANCH  16  18
ATOM     18  C   UNL     1       7.090   4.588  16.077  0.00  0.00    +0.000 C 
BRANCH  18  19
ATOM     19  C   UNL     1       7.118   4.558  14.570  0.00  0.00    +0.000 A 
ATOM     20  C   UNL     1       6.307   3.676  13.859  0.00  0.00    +0.000 A 
ATOM     21  C   UNL     1       6.350   3.704  12.468  0.00  0.00    +0.000 A 
ATOM     22  C   UNL     1       7.204   4.593  11.829  0.00  0.00    +0.000 A 
ATOM     23  C   UNL     1       7.988   5.424  12.610  0.00  0.00    +0.000 A 
ATOM     24  N   UNL     1       7.955   5.438  13.960  0.00  0.00    +0.000 NA
ENDBRANCH  18  19
ENDBRANCH  16  18
ENDBRANCH  13  16
ENDBRANCH   5  13
BRANCH   3  25
ATOM     25  C   UNL     1       1.870   3.945  19.832  0.00  0.00    +0.000 C 
ATOM     26  O   UNL     1       2.425   2.870  19.675  0.00  0.00    +0.000 OA
BRANCH  25  27
ATOM     27  O   UNL     1       0.732   4.080  20.545  0.00  0.00    +0.000 OA
ATOM     28  H   UNL     1       0.132   3.314  20.580  0.00  0.00    +0.000 HD
ENDBRANCH  25  27
ENDBRANCH   3  25
TORSDOF 7
ENDMDL
MODEL 9
REMARK VINA RESULT:      -7.5      1.070      1.476
REMARK  Name = 
REMARK  8 active torsions:
REMARK  status: ('A' for Active; 'I' for Inactive)
REMARK    1  A    between atoms: C_1  and  C_2
REMARK    2  A    between atoms: C_6  and  C_7
REMARK    3  A    between atoms: C_9  and  C_10
REMARK    4  A    between atoms: C_10  and  O_12
REMARK    5  A    between atoms: C_14  and  S_15
REMARK    6  A    between atoms: S_15  and  N_18
REMARK    7  A    between atoms: N_18  and  C_19
REMARK    8  A    between atoms: C_19  and  C_20
REMARK                            x       y       z     vdW  Elec       q    Type
REMARK                         _______ _______ _______ _____ _____    ______ ____
ROOT
ATOM      1  C   UNL     1       2.314   7.062  19.493  0.00  0.00    +0.000 A 
ATOM      2  C   UNL     1       1.777   5.982  20.212  0.00  0.00    +0.000 A 
ATOM      3  C   UNL     1       2.386   4.720  20.229  0.00  0.00    +0.000 A 
ATOM      4  C   UNL     1       3.525   4.503  19.460  0.00  0.00    +0.000 A 
ATOM      5  C   UNL     1       4.074   5.573  18.738  0.00  0.00    +0.000 A 
ATOM      6  C   UNL     1       3.493   6.834  18.774  0.00  0.00    +0.000 A 
ENDROOT
BRANCH   1  12
ATOM      7  C   UNL     1       1.106   8.690  22.006  0.00  0.00    +0.000 C 
ATOM      8  C   UNL     1       1.125   9.115  20.571  0.00  0.00    +0.000 A 
ATOM      9  C   UNL     1       0.565  10.360  20.127  0.00  0.00    +0.000 A 
ATOM     10  C   UNL     1       0.712  10.566  18.776  0.00  0.00    +0.000 A 
ATOM     11  S   UNL     1       1.511   9.270  18.027  0.00  0.00    +0.000 S 
ATOM     12  C   UNL     1       1.668   8.393  19.509  0.00  0.00    +0.000 A 
ENDBRANCH   1  12
BRANCH   5  13
ATOM     13  S   UNL     1       5.609   5.314  17.875  0.00  0.00    +0.000 S 
ATOM     14  O   UNL     1       6.246   6.610  17.763  0.00  0.00    +0.000 OA
ATOM     15  O   UNL     1       6.258   4.196  18.507  0.00  0.00    +0.000 OA
BRANCH  13  16
ATOM     16  N   UNL     1       5.108   4.816  16.333  0.00  0.00    +0.000 NA
ATOM     17  H   UNL     1       5.045   5.603  15.684  0.00  0.00    +0.000 HD
BRANCH  16  18
ATOM     18  C   UNL     1       5.944   3.738  15.749  0.00  0.00    +0.000 C 
BRANCH  18  19
ATOM     19  C   UNL     1       6.437   4.052  14.359  0.00  0.00    +0.000 A 
ATOM     20  C   UNL     1       7.370   5.064  14.144  0.00  0.00    +0.000 A 
ATOM     21  C   UNL     1       7.812   5.299  12.846  0.00  0.00    +0.000 A 
ATOM     22  C   UNL     1       7.306   4.535  11.803  0.00  0.00    +0.000 A 
ATOM     23  C   UNL     1       6.370   3.560  12.100  0.00  0.00    +0.000 A 
ATOM     24  N   UNL     1       5.935   3.291  13.350  0.00  0.00    +0.000 NA
ENDBRANCH  18  19
ENDBRANCH  16  18
ENDBRANCH  13  16
ENDBRANCH   5  13
BRANCH   3  25
ATOM     25  C   UNL     1       1.754   3.658  21.052  0.00  0.00    +0.000 C 
ATOM     26  O   UNL     1       0.761   3.055  20.682  0.00  0.00    +0.000 OA
BRANCH  25  27
ATOM     27  O   UNL     1       2.324   3.453  22.259  0.00  0.00    +0.000 OA
ATOM     28  H   UNL     1       1.729   3.279  23.011  0.00  0.00    +0.000 HD
ENDBRANCH  25  27
ENDBRANCH   3  25
TORSDOF 7
ENDMDL
