MODEL 1
REMARK VINA RESULT:      -8.5      0.000      0.000
REMARK  Name = 
REMARK  3 active torsions:
REMARK  status: ('A' for Active; 'I' for Inactive)
REMARK    1  A    between atoms: C_2  and  C_18
REMARK    2  A    between atoms: N_3  and  N_4
REMARK    3  A    between atoms: C_5  and  C_6
REMARK                            x       y       z     vdW  Elec       q    Type
REMARK                         _______ _______ _______ _____ _____    ______ ____
ROOT
ATOM      1  N   UNL     1       7.842   8.233  18.162  0.00  0.00    +0.000 NA
ATOM      2  C   UNL     1       7.055   7.558  17.395  0.00  0.00    +0.000 C 
ENDROOT
BRANCH   2   3
ATOM      3  C   UNL     1       6.345   6.331  17.847  0.00  0.00    +0.000 A 
ATOM      4  C   UNL     1       6.847   5.450  18.725  0.00  0.00    +0.000 A 
ATOM      5 CL   UNL     1       8.400   5.631  19.490  0.00  0.00    +0.000 Cl
ATOM      6  N   UNL     1       6.201   4.333  19.178  0.00  0.00    +0.000 NA
ATOM      7  C   UNL     1       4.998   4.118  18.757  0.00  0.00    +0.000 A 
ATOM      8  C   UNL     1       4.273   2.922  19.265  0.00  0.00    +0.000 A 
ATOM      9  C   UNL     1       3.013   2.696  18.876  0.00  0.00    +0.000 A 
ATOM     10  C   UNL     1       2.367   3.589  17.951  0.00  0.00    +0.000 A 
ATOM     11  C   UNL     1       3.025   4.656  17.480  0.00  0.00    +0.000 A 
ATOM     12  N   UNL     1       4.331   4.944  17.867  0.00  0.00    +0.000 N 
ATOM     13  C   UNL     1       4.962   6.082  17.377  0.00  0.00    +0.000 A 
ATOM     14  O   UNL     1       4.435   6.888  16.606  0.00  0.00    +0.000 OA
ENDBRANCH   2   3
BRANCH   1  17
ATOM     15  O   UNL     1       9.124   9.966  19.808  0.00  0.00    +0.000 OA
ATOM     16  C   UNL     1       9.045  10.196  18.602  0.00  0.00    +0.000 C 
ATOM     17  N   UNL     1       8.432   9.359  17.676  0.00  0.00    +0.000 N 
ATOM     18  H   UNL     1       8.459   9.534  16.679  0.00  0.00    +0.000 HD
BRANCH  16  19
ATOM     19  C   UNL     1       9.666  11.443  18.089  0.00  0.00    +0.000 A 
ATOM     20  C   UNL     1      11.058  11.432  17.893  0.00  0.00    +0.000 A 
ATOM     21  C   UNL     1      11.723  12.587  17.483  0.00  0.00    +0.000 A 
ATOM     22  C   UNL     1      10.996  13.752  17.277  0.00  0.00    +0.000 A 
ATOM     23  F   UNL     1      11.633  14.868  16.904  0.00  0.00    +0.000 F 
ATOM     24  C   UNL     1       9.615  13.781  17.470  0.00  0.00    +0.000 A 
ATOM     25  C   UNL     1       8.943  12.624  17.878  0.00  0.00    +0.000 A 
ENDBRANCH  16  19
ENDBRANCH   1  17
TORSDOF 3
ENDMDL
MODEL 2
REMARK VINA RESULT:      -8.4      0.543      1.129
REMARK  Name = 
REMARK  3 active torsions:
REMARK  status: ('A' for Active; 'I' for Inactive)
REMARK    1  A    between atoms: C_2  and  C_18
REMARK    2  A    between atoms: N_3  and  N_4
REMARK    3  A    between atoms: C_5  and  C_6
REMARK                            x       y       z     vdW  Elec       q    Type
REMARK                         _______ _______ _______ _____ _____    ______ ____
ROOT
ATOM      1  N   UNL     1       7.754   8.612  18.179  0.00  0.00    +0.000 NA
ATOM      2  C   UNL     1       7.675   7.559  17.438  0.00  0.00    +0.000 C 
ENDROOT
BRANCH   2   3
ATOM      3  C   UNL     1       6.861   6.370  17.812  0.00  0.00    +0.000 A 
ATOM      4  C   UNL     1       7.114   5.586  18.871  0.00  0.00    +0.000 A 
ATOM      5 CL   UNL     1       8.422   5.866  19.985  0.00  0.00    +0.000 Cl
ATOM      6  N   UNL     1       6.363   4.509  19.252  0.00  0.00    +0.000 NA
ATOM      7  C   UNL     1       5.307   4.234  18.561  0.00  0.00    +0.000 A 
ATOM      8  C   UNL     1       4.465   3.082  18.982  0.00  0.00    +0.000 A 
ATOM      9  C   UNL     1       3.344   2.799  18.309  0.00  0.00    +0.000 A 
ATOM     10  C   UNL     1       2.964   3.586  17.167  0.00  0.00    +0.000 A 
ATOM     11  C   UNL     1       3.730   4.613  16.776  0.00  0.00    +0.000 A 
ATOM     12  N   UNL     1       4.897   4.959  17.454  0.00  0.00    +0.000 N 
ATOM     13  C   UNL     1       5.642   6.053  17.032  0.00  0.00    +0.000 A 
ATOM     14  O   UNL     1       5.337   6.773  16.077  0.00  0.00    +0.000 OA
ENDBRANCH   2   3
BRANCH   1  17
ATOM     15  O   UNL     1       9.117  10.172  19.930  0.00  0.00    +0.000 OA
ATOM     16  C   UNL     1       9.144  10.419  18.725  0.00  0.00    +0.000 C 
ATOM     17  N   UNL     1       8.501   9.665  17.749  0.00  0.00    +0.000 N 
ATOM     18  H   UNL     1       8.613   9.844  16.759  0.00  0.00    +0.000 HD
BRANCH  16  19
ATOM     19  C   UNL     1       9.937  11.589  18.273  0.00  0.00    +0.000 A 
ATOM     20  C   UNL     1       9.231  12.769  17.981  0.00  0.00    +0.000 A 
ATOM     21  C   UNL     1       9.898  13.887  17.482  0.00  0.00    +0.000 A 
ATOM     22  C   UNL     1      11.268  13.820  17.268  0.00  0.00    +0.000 A 
ATOM     23  F   UNL     1      11.908  14.884  16.769  0.00  0.00    +0.000 F 
ATOM     24  C   UNL     1      11.984  12.657  17.549  0.00  0.00    +0.000 A 
ATOM     25  C   UNL     1      11.320  11.533  18.053  0.00  0.00    +0.000 A 
ENDBRANCH  16  19
ENDBRANCH   1  17
TORSDOF 3
ENDMDL
MODEL 3
REMARK VINA RESULT:      -8.3      1.640      1.992
REMARK  Name = 
REMARK  3 active torsions:
REMARK  status: ('A' for Active; 'I' for Inactive)
REMARK    1  A    between atoms: C_2  and  C_18
REMARK    2  A    between atoms: N_3  and  N_4
REMARK    3  A    between atoms: C_5  and  C_6
REMARK                            x       y       z     vdW  Elec       q    Type
REMARK                         _______ _______ _______ _____ _____    ______ ____
ROOT
ATOM      1  N   UNL     1       6.932   7.550  17.396  0.00  0.00    +0.000 NA
ATOM      2  C   UNL     1       5.746   7.339  16.936  0.00  0.00    +0.000 C 
ENDROOT
BRANCH   2   3
ATOM      3  C   UNL     1       5.053   6.029  17.067  0.00  0.00    +0.000 A 
ATOM      4  C   UNL     1       5.565   4.860  16.654  0.00  0.00    +0.000 A 
ATOM      5 CL   UNL     1       7.139   4.702  15.928  0.00  0.00    +0.000 Cl
ATOM      6  N   UNL     1       4.961   3.641  16.791  0.00  0.00    +0.000 NA
ATOM      7  C   UNL     1       3.819   3.597  17.393  0.00  0.00    +0.000 A 
ATOM      8  C   UNL     1       3.164   2.274  17.576  0.00  0.00    +0.000 A 
ATOM      9  C   UNL     1       1.999   2.195  18.230  0.00  0.00    +0.000 A 
ATOM     10  C   UNL     1       1.367   3.384  18.734  0.00  0.00    +0.000 A 
ATOM     11  C   UNL     1       1.947   4.578  18.555  0.00  0.00    +0.000 A 
ATOM     12  N   UNL     1       3.167   4.712  17.897  0.00  0.00    +0.000 N 
ATOM     13  C   UNL     1       3.746   5.968  17.765  0.00  0.00    +0.000 A 
ATOM     14  O   UNL     1       3.254   7.009  18.208  0.00  0.00    +0.000 OA
ENDBRANCH   2   3
BRANCH   1  17
ATOM     15  O   UNL     1       8.818   8.449  19.126  0.00  0.00    +0.000 OA
ATOM     16  C   UNL     1       8.425   9.165  18.208  0.00  0.00    +0.000 C 
ATOM     17  N   UNL     1       7.483   8.787  17.257  0.00  0.00    +0.000 N 
ATOM     18  H   UNL     1       7.244   9.368  16.463  0.00  0.00    +0.000 HD
BRANCH  16  19
ATOM     19  C   UNL     1       9.012  10.523  18.085  0.00  0.00    +0.000 A 
ATOM     20  C   UNL     1       8.149  11.561  17.692  0.00  0.00    +0.000 A 
ATOM     21  C   UNL     1       8.642  12.850  17.485  0.00  0.00    +0.000 A 
ATOM     22  C   UNL     1       9.996  13.095  17.664  0.00  0.00    +0.000 A 
ATOM     23  F   UNL     1      10.476  14.325  17.445  0.00  0.00    +0.000 F 
ATOM     24  C   UNL     1      10.867  12.076  18.049  0.00  0.00    +0.000 A 
ATOM     25  C   UNL     1      10.377  10.783  18.262  0.00  0.00    +0.000 A 
ENDBRANCH  16  19
ENDBRANCH   1  17
TORSDOF 3
ENDMDL
MODEL 4
REMARK VINA RESULT:      -8.3      1.694      1.787
REMARK  Name = 
REMARK  3 active torsions:
REMARK  status: ('A' for Active; 'I' for Inactive)
REMARK    1  A    between atoms: C_2  and  C_18
REMARK    2  A    between atoms: N_3  and  N_4
REMARK    3  A    between atoms: C_5  and  C_6
REMARK                            x       y       z     vdW  Elec       q    Type
REMARK                         _______ _______ _______ _____ _____    ______ ____
ROOT
ATOM      1  N   UNL     1       6.882   7.553  17.410  0.00  0.00    +0.000 NA
ATOM      2  C   UNL     1       5.722   7.321  16.896  0.00  0.00    +0.000 C 
ENDROOT
BRANCH   2   3
ATOM      3  C   UNL     1       5.025   6.014  17.035  0.00  0.00    +0.000 A 
ATOM      4  C   UNL     1       5.514   4.847  16.590  0.00  0.00    +0.000 A 
ATOM      5 CL   UNL     1       7.060   4.689  15.806  0.00  0.00    +0.000 Cl
ATOM      6  N   UNL     1       4.907   3.631  16.734  0.00  0.00    +0.000 NA
ATOM      7  C   UNL     1       3.787   3.587  17.376  0.00  0.00    +0.000 A 
ATOM      8  C   UNL     1       3.130   2.265  17.566  0.00  0.00    +0.000 A 
ATOM      9  C   UNL     1       1.989   2.185  18.260  0.00  0.00    +0.000 A 
ATOM     10  C   UNL     1       1.383   3.372  18.801  0.00  0.00    +0.000 A 
ATOM     11  C   UNL     1       1.965   4.564  18.616  0.00  0.00    +0.000 A 
ATOM     12  N   UNL     1       3.161   4.699  17.916  0.00  0.00    +0.000 N 
ATOM     13  C   UNL     1       3.744   5.953  17.779  0.00  0.00    +0.000 A 
ATOM     14  O   UNL     1       3.274   6.991  18.252  0.00  0.00    +0.000 OA
ENDBRANCH   2   3
BRANCH   1  17
ATOM     15  O   UNL     1       8.789   8.453  19.115  0.00  0.00    +0.000 OA
ATOM     16  C   UNL     1       8.390   9.166  18.196  0.00  0.00    +0.000 C 
ATOM     17  N   UNL     1       7.437   8.786  17.257  0.00  0.00    +0.000 N 
ATOM     18  H   UNL     1       7.193   9.362  16.461  0.00  0.00    +0.000 HD
BRANCH  16  19
ATOM     19  C   UNL     1       8.982  10.520  18.058  0.00  0.00    +0.000 A 
ATOM     20  C   UNL     1      10.321  10.678  18.455  0.00  0.00    +0.000 A 
ATOM     21  C   UNL     1      10.924  11.935  18.423  0.00  0.00    +0.000 A 
ATOM     22  C   UNL     1      10.184  13.032  18.003  0.00  0.00    +0.000 A 
ATOM     23  F   UNL     1      10.753  14.243  17.992  0.00  0.00    +0.000 F 
ATOM     24  C   UNL     1       8.854  12.894  17.609  0.00  0.00    +0.000 A 
ATOM     25  C   UNL     1       8.245  11.635  17.635  0.00  0.00    +0.000 A 
ENDBRANCH  16  19
ENDBRANCH   1  17
TORSDOF 3
ENDMDL
MODEL 5
REMARK VINA RESULT:      -8.0      6.116      7.659
REMARK  Name = 
REMARK  3 active torsions:
REMARK  status: ('A' for Active; 'I' for Inactive)
REMARK    1  A    between atoms: C_2  and  C_18
REMARK    2  A    between atoms: N_3  and  N_4
REMARK    3  A    between atoms: C_5  and  C_6
REMARK                            x       y       z     vdW  Elec       q    Type
REMARK                         _______ _______ _______ _____ _____    ______ ____
ROOT
ATOM      1  N   UNL     1       4.323   5.847  17.685  0.00  0.00    +0.000 NA
ATOM      2  C   UNL     1       3.044   6.002  17.746  0.00  0.00    +0.000 C 
ENDROOT
BRANCH   2   3
ATOM      3  C   UNL     1       2.381   6.825  18.794  0.00  0.00    +0.000 A 
ATOM      4  C   UNL     1       2.134   6.401  20.042  0.00  0.00    +0.000 A 
ATOM      5 CL   UNL     1       2.584   4.825  20.630  0.00  0.00    +0.000 Cl
ATOM      6  N   UNL     1       1.556   7.149  21.030  0.00  0.00    +0.000 NA
ATOM      7  C   UNL     1       1.247   8.373  20.757  0.00  0.00    +0.000 A 
ATOM      8  C   UNL     1       0.643   9.208  21.831  0.00  0.00    +0.000 A 
ATOM      9  C   UNL     1       0.349  10.490  21.589  0.00  0.00    +0.000 A 
ATOM     10  C   UNL     1       0.591  11.057  20.289  0.00  0.00    +0.000 A 
ATOM     11  C   UNL     1       1.118  10.303  19.316  0.00  0.00    +0.000 A 
ATOM     12  N   UNL     1       1.457   8.968  19.523  0.00  0.00    +0.000 N 
ATOM     13  C   UNL     1       2.033   8.234  18.493  0.00  0.00    +0.000 A 
ATOM     14  O   UNL     1       2.284   8.689  17.374  0.00  0.00    +0.000 OA
ENDBRANCH   2   3
BRANCH   1  17
ATOM     15  O   UNL     1       5.391   7.013  15.481  0.00  0.00    +0.000 OA
ATOM     16  C   UNL     1       5.352   5.788  15.580  0.00  0.00    +0.000 C 
ATOM     17  N   UNL     1       4.850   5.098  16.678  0.00  0.00    +0.000 N 
ATOM     18  H   UNL     1       4.910   4.091  16.766  0.00  0.00    +0.000 HD
BRANCH  16  19
ATOM     19  C   UNL     1       5.902   4.982  14.461  0.00  0.00    +0.000 A 
ATOM     20  C   UNL     1       7.196   5.302  14.015  0.00  0.00    +0.000 A 
ATOM     21  C   UNL     1       7.752   4.637  12.922  0.00  0.00    +0.000 A 
ATOM     22  C   UNL     1       7.009   3.661  12.272  0.00  0.00    +0.000 A 
ATOM     23  F   UNL     1       7.530   3.037  11.209  0.00  0.00    +0.000 F 
ATOM     24  C   UNL     1       5.722   3.333  12.699  0.00  0.00    +0.000 A 
ATOM     25  C   UNL     1       5.162   3.994  13.797  0.00  0.00    +0.000 A 
ENDBRANCH  16  19
ENDBRANCH   1  17
TORSDOF 3
ENDMDL
MODEL 6
REMARK VINA RESULT:      -7.8      8.066     10.526
REMARK  Name = 
REMARK  3 active torsions:
REMARK  status: ('A' for Active; 'I' for Inactive)
REMARK    1  A    between atoms: C_2  and  C_18
REMARK    2  A    between atoms: N_3  and  N_4
REMARK    3  A    between atoms: C_5  and  C_6
REMARK                            x       y       z     vdW  Elec       q    Type
REMARK                         _______ _______ _______ _____ _____    ______ ____
ROOT
ATOM      1  N   UNL     1       1.445   8.568  20.678  0.00  0.00    +0.000 NA
ATOM      2  C   UNL     1       0.305   8.852  21.211  0.00  0.00    +0.000 C 
ENDROOT
BRANCH   2   3
ATOM      3  C   UNL     1      -0.328  10.193  21.093  0.00  0.00    +0.000 A 
ATOM      4  C   UNL     1      -0.746  10.730  19.936  0.00  0.00    +0.000 A 
ATOM      5 CL   UNL     1      -0.633   9.918  18.402  0.00  0.00    +0.000 Cl
ATOM      6  N   UNL     1      -1.358  11.946  19.807  0.00  0.00    +0.000 NA
ATOM      7  C   UNL     1      -1.585  12.625  20.883  0.00  0.00    +0.000 A 
ATOM      8  C   UNL     1      -2.277  13.937  20.760  0.00  0.00    +0.000 A 
ATOM      9  C   UNL     1      -2.560  14.643  21.860  0.00  0.00    +0.000 A 
ATOM     10  C   UNL     1      -2.175  14.153  23.157  0.00  0.00    +0.000 A 
ATOM     11  C   UNL     1      -1.537  12.981  23.267  0.00  0.00    +0.000 A 
ATOM     12  N   UNL     1      -1.235  12.200  22.154  0.00  0.00    +0.000 N 
ATOM     13  C   UNL     1      -0.601  10.975  22.322  0.00  0.00    +0.000 A 
ATOM     14  O   UNL     1      -0.281  10.504  23.416  0.00  0.00    +0.000 OA
ENDBRANCH   2   3
BRANCH   1  17
ATOM     15  O   UNL     1       2.704   7.328  18.621  0.00  0.00    +0.000 OA
ATOM     16  C   UNL     1       2.549   6.749  19.694  0.00  0.00    +0.000 C 
ATOM     17  N   UNL     1       1.941   7.308  20.813  0.00  0.00    +0.000 N 
ATOM     18  H   UNL     1       1.905   6.836  21.709  0.00  0.00    +0.000 HD
BRANCH  16  19
ATOM     19  C   UNL     1       3.068   5.364  19.819  0.00  0.00    +0.000 A 
ATOM     20  C   UNL     1       4.270   5.067  19.153  0.00  0.00    +0.000 A 
ATOM     21  C   UNL     1       4.782   3.769  19.163  0.00  0.00    +0.000 A 
ATOM     22  C   UNL     1       4.086   2.771  19.833  0.00  0.00    +0.000 A 
ATOM     23  F   UNL     1       4.563   1.521  19.826  0.00  0.00    +0.000 F 
ATOM     24  C   UNL     1       2.891   3.048  20.495  0.00  0.00    +0.000 A 
ATOM     25  C   UNL     1       2.375   4.348  20.491  0.00  0.00    +0.000 A 
ENDBRANCH  16  19
ENDBRANCH   1  17
TORSDOF 3
ENDMDL
MODEL 7
REMARK VINA RESULT:      -7.7      7.096      9.103
REMARK  Name = 
REMARK  3 active torsions:
REMARK  status: ('A' for Active; 'I' for Inactive)
REMARK    1  A    between atoms: C_2  and  C_18
REMARK    2  A    between atoms: N_3  and  N_4
REMARK    3  A    between atoms: C_5  and  C_6
REMARK                            x       y       z     vdW  Elec       q    Type
REMARK                         _______ _______ _______ _____ _____    ______ ____
ROOT
ATOM      1  N   UNL     1       1.489   8.717  18.747  0.00  0.00    +0.000 NA
ATOM      2  C   UNL     1       1.016   9.781  18.194  0.00  0.00    +0.000 C 
ENDROOT
BRANCH   2   3
ATOM      3  C   UNL     1      -0.170  10.506  18.726  0.00  0.00    +0.000 A 
ATOM      4  C   UNL     1      -0.137  11.334  19.782  0.00  0.00    +0.000 A 
ATOM      5 CL   UNL     1       1.314  11.706  20.668  0.00  0.00    +0.000 Cl
ATOM      6  N   UNL     1      -1.206  12.034  20.268  0.00  0.00    +0.000 NA
ATOM      7  C   UNL     1      -2.335  11.920  19.651  0.00  0.00    +0.000 A 
ATOM      8  C   UNL     1      -3.499  12.699  20.152  0.00  0.00    +0.000 A 
ATOM      9  C   UNL     1      -4.670  12.630  19.509  0.00  0.00    +0.000 A 
ATOM     10  C   UNL     1      -4.815  11.787  18.352  0.00  0.00    +0.000 A 
ATOM     11  C   UNL     1      -3.773  11.072  17.910  0.00  0.00    +0.000 A 
ATOM     12  N   UNL     1      -2.529  11.123  18.534  0.00  0.00    +0.000 N 
ATOM     13  C   UNL     1      -1.467  10.388  18.019  0.00  0.00    +0.000 A 
ATOM     14  O   UNL     1      -1.540   9.678  17.013  0.00  0.00    +0.000 OA
ENDBRANCH   2   3
BRANCH   1  17
ATOM     15  O   UNL     1       2.224   6.202  19.450  0.00  0.00    +0.000 OA
ATOM     16  C   UNL     1       2.900   6.847  18.651  0.00  0.00    +0.000 C 
ATOM     17  N   UNL     1       2.594   8.130  18.210  0.00  0.00    +0.000 N 
ATOM     18  H   UNL     1       3.123   8.601  17.487  0.00  0.00    +0.000 HD
BRANCH  16  19
ATOM     19  C   UNL     1       4.119   6.207  18.096  0.00  0.00    +0.000 A 
ATOM     20  C   UNL     1       4.839   5.352  18.948  0.00  0.00    +0.000 A 
ATOM     21  C   UNL     1       6.033   4.771  18.521  0.00  0.00    +0.000 A 
ATOM     22  C   UNL     1       6.508   5.054  17.248  0.00  0.00    +0.000 A 
ATOM     23  F   UNL     1       7.665   4.515  16.844  0.00  0.00    +0.000 F 
ATOM     24  C   UNL     1       5.809   5.903  16.391  0.00  0.00    +0.000 A 
ATOM     25  C   UNL     1       4.608   6.485  16.812  0.00  0.00    +0.000 A 
ENDBRANCH  16  19
ENDBRANCH   1  17
TORSDOF 3
ENDMDL
MODEL 8
REMARK VINA RESULT:      -7.7      8.255     10.684
REMARK  Name = 
REMARK  3 active torsions:
REMARK  status: ('A' for Active; 'I' for Inactive)
REMARK    1  A    between atoms: C_2  and  C_18
REMARK    2  A    between atoms: N_3  and  N_4
REMARK    3  A    between atoms: C_5  and  C_6
REMARK                            x       y       z     vdW  Elec       q    Type
REMARK                         _______ _______ _______ _____ _____    ______ ____
ROOT
ATOM      1  N   UNL     1       1.376   8.869  20.870  0.00  0.00    +0.000 NA
ATOM      2  C   UNL     1       0.115   9.068  21.055  0.00  0.00    +0.000 C 
ENDROOT
BRANCH   2   3
ATOM      3  C   UNL     1      -0.502  10.421  21.008  0.00  0.00    +0.000 A 
ATOM      4  C   UNL     1      -0.977  10.995  19.892  0.00  0.00    +0.000 A 
ATOM      5 CL   UNL     1      -0.966  10.222  18.333  0.00  0.00    +0.000 Cl
ATOM      6  N   UNL     1      -1.576  12.223  19.831  0.00  0.00    +0.000 NA
ATOM      7  C   UNL     1      -1.729  12.877  20.934  0.00  0.00    +0.000 A 
ATOM      8  C   UNL     1      -2.405  14.201  20.886  0.00  0.00    +0.000 A 
ATOM      9  C   UNL     1      -2.612  14.882  22.018  0.00  0.00    +0.000 A 
ATOM     10  C   UNL     1      -2.161  14.352  23.277  0.00  0.00    +0.000 A 
ATOM     11  C   UNL     1      -1.537  13.168  23.321  0.00  0.00    +0.000 A 
ATOM     12  N   UNL     1      -1.313  12.413  22.172  0.00  0.00    +0.000 N 
ATOM     13  C   UNL     1      -0.691  11.174  22.271  0.00  0.00    +0.000 A 
ATOM     14  O   UNL     1      -0.316  10.669  23.332  0.00  0.00    +0.000 OA
ENDBRANCH   2   3
BRANCH   1  17
ATOM     15  O   UNL     1       2.411   7.699  18.653  0.00  0.00    +0.000 OA
ATOM     16  C   UNL     1       2.344   7.076  19.710  0.00  0.00    +0.000 C 
ATOM     17  N   UNL     1       1.854   7.595  20.904  0.00  0.00    +0.000 N 
ATOM     18  H   UNL     1       1.892   7.085  21.778  0.00  0.00    +0.000 HD
BRANCH  16  19
ATOM     19  C   UNL     1       2.841   5.677  19.726  0.00  0.00    +0.000 A 
ATOM     20  C   UNL     1       2.108   4.745  20.482  0.00  0.00    +0.000 A 
ATOM     21  C   UNL     1       2.553   3.429  20.604  0.00  0.00    +0.000 A 
ATOM     22  C   UNL     1       3.732   3.050  19.977  0.00  0.00    +0.000 A 
ATOM     23  F   UNL     1       4.173   1.794  20.111  0.00  0.00    +0.000 F 
ATOM     24  C   UNL     1       4.473   3.963  19.227  0.00  0.00    +0.000 A 
ATOM     25  C   UNL     1       4.030   5.283  19.098  0.00  0.00    +0.000 A 
ENDBRANCH  16  19
ENDBRANCH   1  17
TORSDOF 3
ENDMDL
MODEL 9
REMARK VINA RESULT:      -7.6      7.278     10.191
REMARK  Name = 
REMARK  3 active torsions:
REMARK  status: ('A' for Active; 'I' for Inactive)
REMARK    1  A    between atoms: C_2  and  C_18
REMARK    2  A    between atoms: N_3  and  N_4
REMARK    3  A    between atoms: C_5  and  C_6
REMARK                            x       y       z     vdW  Elec       q    Type
REMARK                         _______ _______ _______ _____ _____    ______ ____
ROOT
ATOM      1  N   UNL     1       1.745   8.253  20.837  0.00  0.00    +0.000 NA
ATOM      2  C   UNL     1       0.614   8.805  20.553  0.00  0.00    +0.000 C 
ENDROOT
BRANCH   2   3
ATOM      3  C   UNL     1       0.317  10.232  20.853  0.00  0.00    +0.000 A 
ATOM      4  C   UNL     1      -0.097  10.682  22.047  0.00  0.00    +0.000 A 
ATOM      5 CL   UNL     1      -0.318   9.658  23.437  0.00  0.00    +0.000 Cl
ATOM      6  N   UNL     1      -0.346  11.990  22.354  0.00  0.00    +0.000 NA
ATOM      7  C   UNL     1      -0.140  12.876  21.436  0.00  0.00    +0.000 A 
ATOM      8  C   UNL     1      -0.379  14.307  21.765  0.00  0.00    +0.000 A 
ATOM      9  C   UNL     1      -0.137  15.249  20.846  0.00  0.00    +0.000 A 
ATOM     10  C   UNL     1       0.329  14.882  19.536  0.00  0.00    +0.000 A 
ATOM     11  C   UNL     1       0.528  13.593  19.232  0.00  0.00    +0.000 A 
ATOM     12  N   UNL     1       0.307  12.577  20.159  0.00  0.00    +0.000 N 
ATOM     13  C   UNL     1       0.560  11.256  19.809  0.00  0.00    +0.000 A 
ATOM     14  O   UNL     1       0.987  10.900  18.708  0.00  0.00    +0.000 OA
ENDBRANCH   2   3
BRANCH   1  17
ATOM     15  O   UNL     1       2.890   7.565  18.476  0.00  0.00    +0.000 OA
ATOM     16  C   UNL     1       2.517   6.697  19.262  0.00  0.00    +0.000 C 
ATOM     17  N   UNL     1       1.944   6.948  20.505  0.00  0.00    +0.000 N 
ATOM     18  H   UNL     1       1.726   6.213  21.166  0.00  0.00    +0.000 HD
BRANCH  16  19
ATOM     19  C   UNL     1       2.711   5.277  18.875  0.00  0.00    +0.000 A 
ATOM     20  C   UNL     1       3.744   4.573  19.517  0.00  0.00    +0.000 A 
ATOM     21  C   UNL     1       4.035   3.258  19.155  0.00  0.00    +0.000 A 
ATOM     22  C   UNL     1       3.297   2.653  18.147  0.00  0.00    +0.000 A 
ATOM     23  F   UNL     1       3.587   1.399  17.781  0.00  0.00    +0.000 F 
ATOM     24  C   UNL     1       2.271   3.338  17.497  0.00  0.00    +0.000 A 
ATOM     25  C   UNL     1       1.973   4.656  17.859  0.00  0.00    +0.000 A 
ENDBRANCH  16  19
ENDBRANCH   1  17
TORSDOF 3
ENDMDL
