MODEL 1
REMARK VINA RESULT:      -8.0      0.000      0.000
REMARK  Name = 
REMARK  3 active torsions:
REMARK  status: ('A' for Active; 'I' for Inactive)
REMARK    1  A    between atoms: C_2  and  O_3
REMARK    2  A    between atoms: C_2  and  C_4
REMARK    3  A    between atoms: C_4  and  C_5
REMARK                            x       y       z     vdW  Elec       q    Type
REMARK                         _______ _______ _______ _____ _____    ______ ____
ROOT
ATOM      1  C   UNL     1       3.712   5.830  18.914  0.00  0.00    +0.000 C 
ATOM      2  C   UNL     1       5.060   5.310  18.439  0.00  0.00    +0.000 A 
ATOM      3  C   UNL     1       6.225   5.782  19.075  0.00  0.00    +0.000 A 
ATOM      4  C   UNL     1       7.486   5.440  18.595  0.00  0.00    +0.000 A 
ATOM      5  C   UNL     1       7.600   4.626  17.474  0.00  0.00    +0.000 A 
ATOM      6  C   UNL     1       6.454   4.128  16.852  0.00  0.00    +0.000 A 
ATOM      7  C   UNL     1       5.175   4.433  17.341  0.00  0.00    +0.000 A 
ATOM      8  C   UNL     1       4.015   3.888  16.617  0.00  0.00    +0.000 C 
ATOM      9  C   UNL     1       2.820   3.554  17.135  0.00  0.00    +0.000 C 
ATOM     10  C   UNL     1       2.409   3.649  18.546  0.00  0.00    +0.000 A 
ATOM     11  C   UNL     1       1.526   2.671  19.031  0.00  0.00    +0.000 A 
ATOM     12  C   UNL     1       1.123   2.665  20.366  0.00  0.00    +0.000 A 
ATOM     13  C   UNL     1       1.594   3.644  21.234  0.00  0.00    +0.000 A 
ATOM     14  C   UNL     1       2.437   4.649  20.758  0.00  0.00    +0.000 A 
ATOM     15  C   UNL     1       2.834   4.681  19.407  0.00  0.00    +0.000 A 
ENDROOT
BRANCH   1  16
ATOM     16  C   UNL     1       2.987   6.690  17.857  0.00  0.00    +0.000 C 
BRANCH  16  18
ATOM     17  O   UNL     1       1.956   8.092  19.511  0.00  0.00    +0.000 OA
ATOM     18  C   UNL     1       2.383   7.974  18.366  0.00  0.00    +0.000 C 
BRANCH  18  19
ATOM     19  O   UNL     1       2.251   8.969  17.470  0.00  0.00    +0.000 OA
ATOM     20  H   UNL     1       1.905   8.714  16.594  0.00  0.00    +0.000 HD
ENDBRANCH  18  19
ENDBRANCH  16  18
ENDBRANCH   1  16
TORSDOF 3
ENDMDL
MODEL 2
REMARK VINA RESULT:      -7.7      2.571      3.571
REMARK  Name = 
REMARK  3 active torsions:
REMARK  status: ('A' for Active; 'I' for Inactive)
REMARK    1  A    between atoms: C_2  and  O_3
REMARK    2  A    between atoms: C_2  and  C_4
REMARK    3  A    between atoms: C_4  and  C_5
REMARK                            x       y       z     vdW  Elec       q    Type
REMARK                         _______ _______ _______ _____ _____    ______ ____
ROOT
ATOM      1  C   UNL     1       5.512   4.399  18.671  0.00  0.00    +0.000 C 
ATOM      2  C   UNL     1       5.557   4.685  17.178  0.00  0.00    +0.000 A 
ATOM      3  C   UNL     1       6.346   3.856  16.358  0.00  0.00    +0.000 A 
ATOM      4  C   UNL     1       6.527   4.152  15.010  0.00  0.00    +0.000 A 
ATOM      5  C   UNL     1       5.925   5.281  14.466  0.00  0.00    +0.000 A 
ATOM      6  C   UNL     1       5.116   6.096  15.261  0.00  0.00    +0.000 A 
ATOM      7  C   UNL     1       4.896   5.794  16.613  0.00  0.00    +0.000 A 
ATOM      8  C   UNL     1       4.049   6.714  17.391  0.00  0.00    +0.000 C 
ATOM      9  C   UNL     1       3.260   6.402  18.435  0.00  0.00    +0.000 C 
ATOM     10  C   UNL     1       3.059   5.069  19.025  0.00  0.00    +0.000 A 
ATOM     11  C   UNL     1       1.787   4.774  19.541  0.00  0.00    +0.000 A 
ATOM     12  C   UNL     1       1.502   3.518  20.077  0.00  0.00    +0.000 A 
ATOM     13  C   UNL     1       2.491   2.542  20.112  0.00  0.00    +0.000 A 
ATOM     14  C   UNL     1       3.774   2.833  19.644  0.00  0.00    +0.000 A 
ATOM     15  C   UNL     1       4.082   4.104  19.120  0.00  0.00    +0.000 A 
ENDROOT
BRANCH   1  16
ATOM     16  C   UNL     1       6.160   5.512  19.523  0.00  0.00    +0.000 C 
BRANCH  16  18
ATOM     17  O   UNL     1       7.943   6.558  18.303  0.00  0.00    +0.000 OA
ATOM     18  C   UNL     1       7.605   5.809  19.215  0.00  0.00    +0.000 C 
BRANCH  18  19
ATOM     19  O   UNL     1       8.520   5.137  19.937  0.00  0.00    +0.000 OA
ATOM     20  H   UNL     1       8.725   4.231  19.635  0.00  0.00    +0.000 HD
ENDBRANCH  18  19
ENDBRANCH  16  18
ENDBRANCH   1  16
TORSDOF 3
ENDMDL
MODEL 3
REMARK VINA RESULT:      -7.5      2.183      4.556
REMARK  Name = 
REMARK  3 active torsions:
REMARK  status: ('A' for Active; 'I' for Inactive)
REMARK    1  A    between atoms: C_2  and  O_3
REMARK    2  A    between atoms: C_2  and  C_4
REMARK    3  A    between atoms: C_4  and  C_5
REMARK                            x       y       z     vdW  Elec       q    Type
REMARK                         _______ _______ _______ _____ _____    ______ ____
ROOT
ATOM      1  C   UNL     1       3.619   5.720  18.476  0.00  0.00    +0.000 C 
ATOM      2  C   UNL     1       2.748   6.958  18.632  0.00  0.00    +0.000 A 
ATOM      3  C   UNL     1       2.714   7.893  17.579  0.00  0.00    +0.000 A 
ATOM      4  C   UNL     1       2.039   9.102  17.723  0.00  0.00    +0.000 A 
ATOM      5  C   UNL     1       1.393   9.392  18.919  0.00  0.00    +0.000 A 
ATOM      6  C   UNL     1       1.395   8.462  19.961  0.00  0.00    +0.000 A 
ATOM      7  C   UNL     1       2.041   7.225  19.822  0.00  0.00    +0.000 A 
ATOM      8  C   UNL     1       2.017   6.306  20.972  0.00  0.00    +0.000 C 
ATOM      9  C   UNL     1       2.035   4.962  20.937  0.00  0.00    +0.000 C 
ATOM     10  C   UNL     1       2.070   4.108  19.738  0.00  0.00    +0.000 A 
ATOM     11  C   UNL     1       1.386   2.883  19.794  0.00  0.00    +0.000 A 
ATOM     12  C   UNL     1       1.335   2.037  18.686  0.00  0.00    +0.000 A 
ATOM     13  C   UNL     1       1.973   2.404  17.507  0.00  0.00    +0.000 A 
ATOM     14  C   UNL     1       2.694   3.598  17.448  0.00  0.00    +0.000 A 
ATOM     15  C   UNL     1       2.774   4.451  18.566  0.00  0.00    +0.000 A 
ENDROOT
BRANCH   1  16
ATOM     16  C   UNL     1       4.807   5.686  19.462  0.00  0.00    +0.000 C 
BRANCH  16  18
ATOM     17  O   UNL     1       7.002   6.038  18.556  0.00  0.00    +0.000 OA
ATOM     18  C   UNL     1       6.124   5.242  18.879  0.00  0.00    +0.000 C 
BRANCH  18  19
ATOM     19  O   UNL     1       6.260   3.925  18.642  0.00  0.00    +0.000 OA
ATOM     20  H   UNL     1       6.154   3.337  19.415  0.00  0.00    +0.000 HD
ENDBRANCH  18  19
ENDBRANCH  16  18
ENDBRANCH   1  16
TORSDOF 3
ENDMDL
MODEL 4
REMARK VINA RESULT:      -7.4      1.294      4.761
REMARK  Name = 
REMARK  3 active torsions:
REMARK  status: ('A' for Active; 'I' for Inactive)
REMARK    1  A    between atoms: C_2  and  O_3
REMARK    2  A    between atoms: C_2  and  C_4
REMARK    3  A    between atoms: C_4  and  C_5
REMARK                            x       y       z     vdW  Elec       q    Type
REMARK                         _______ _______ _______ _____ _____    ______ ____
ROOT
ATOM      1  C   UNL     1       3.594   5.697  17.320  0.00  0.00    +0.000 C 
ATOM      2  C   UNL     1       2.989   4.553  18.119  0.00  0.00    +0.000 A 
ATOM      3  C   UNL     1       1.712   4.082  17.756  0.00  0.00    +0.000 A 
ATOM      4  C   UNL     1       1.058   3.129  18.532  0.00  0.00    +0.000 A 
ATOM      5  C   UNL     1       1.669   2.639  19.680  0.00  0.00    +0.000 A 
ATOM      6  C   UNL     1       2.946   3.076  20.036  0.00  0.00    +0.000 A 
ATOM      7  C   UNL     1       3.634   4.010  19.248  0.00  0.00    +0.000 A 
ATOM      8  C   UNL     1       4.969   4.439  19.700  0.00  0.00    +0.000 C 
ATOM      9  C   UNL     1       6.000   4.826  18.930  0.00  0.00    +0.000 C 
ATOM     10  C   UNL     1       6.030   4.896  17.460  0.00  0.00    +0.000 A 
ATOM     11  C   UNL     1       7.245   4.603  16.821  0.00  0.00    +0.000 A 
ATOM     12  C   UNL     1       7.345   4.605  15.429  0.00  0.00    +0.000 A 
ATOM     13  C   UNL     1       6.229   4.908  14.658  0.00  0.00    +0.000 A 
ATOM     14  C   UNL     1       5.024   5.244  15.278  0.00  0.00    +0.000 A 
ATOM     15  C   UNL     1       4.915   5.269  16.682  0.00  0.00    +0.000 A 
ENDROOT
BRANCH   1  16
ATOM     16  C   UNL     1       3.752   6.995  18.141  0.00  0.00    +0.000 C 
BRANCH  16  18
ATOM     17  O   UNL     1       1.697   8.236  18.070  0.00  0.00    +0.000 OA
ATOM     18  C   UNL     1       2.479   7.553  18.726  0.00  0.00    +0.000 C 
BRANCH  18  19
ATOM     19  O   UNL     1       2.282   7.340  20.040  0.00  0.00    +0.000 OA
ATOM     20  H   UNL     1       3.066   7.065  20.552  0.00  0.00    +0.000 HD
ENDBRANCH  18  19
ENDBRANCH  16  18
ENDBRANCH   1  16
TORSDOF 3
ENDMDL
MODEL 5
REMARK VINA RESULT:      -7.3      2.844      5.567
REMARK  Name = 
REMARK  3 active torsions:
REMARK  status: ('A' for Active; 'I' for Inactive)
REMARK    1  A    between atoms: C_2  and  O_3
REMARK    2  A    between atoms: C_2  and  C_4
REMARK    3  A    between atoms: C_4  and  C_5
REMARK                            x       y       z     vdW  Elec       q    Type
REMARK                         _______ _______ _______ _____ _____    ______ ____
ROOT
ATOM      1  C   UNL     1       5.235   4.003  16.583  0.00  0.00    +0.000 C 
ATOM      2  C   UNL     1       3.922   3.817  17.327  0.00  0.00    +0.000 A 
ATOM      3  C   UNL     1       3.545   2.515  17.711  0.00  0.00    +0.000 A 
ATOM      4  C   UNL     1       2.295   2.274  18.275  0.00  0.00    +0.000 A 
ATOM      5  C   UNL     1       1.407   3.327  18.460  0.00  0.00    +0.000 A 
ATOM      6  C   UNL     1       1.779   4.627  18.110  0.00  0.00    +0.000 A 
ATOM      7  C   UNL     1       3.046   4.895  17.572  0.00  0.00    +0.000 A 
ATOM      8  C   UNL     1       3.356   6.287  17.207  0.00  0.00    +0.000 C 
ATOM      9  C   UNL     1       4.563   6.880  17.224  0.00  0.00    +0.000 C 
ATOM     10  C   UNL     1       5.843   6.271  17.622  0.00  0.00    +0.000 A 
ATOM     11  C   UNL     1       6.782   7.096  18.262  0.00  0.00    +0.000 A 
ATOM     12  C   UNL     1       8.001   6.586  18.709  0.00  0.00    +0.000 A 
ATOM     13  C   UNL     1       8.299   5.242  18.515  0.00  0.00    +0.000 A 
ATOM     14  C   UNL     1       7.395   4.418  17.841  0.00  0.00    +0.000 A 
ATOM     15  C   UNL     1       6.171   4.925  17.364  0.00  0.00    +0.000 A 
ENDROOT
BRANCH   1  16
ATOM     16  C   UNL     1       5.047   4.482  15.127  0.00  0.00    +0.000 C 
BRANCH  16  18
ATOM     17  O   UNL     1       7.104   5.260  14.162  0.00  0.00    +0.000 OA
ATOM     18  C   UNL     1       6.263   4.368  14.243  0.00  0.00    +0.000 C 
BRANCH  18  19
ATOM     19  O   UNL     1       6.338   3.270  13.469  0.00  0.00    +0.000 OA
ATOM     20  H   UNL     1       6.756   2.487  13.876  0.00  0.00    +0.000 HD
ENDBRANCH  18  19
ENDBRANCH  16  18
ENDBRANCH   1  16
TORSDOF 3
ENDMDL
MODEL 6
REMARK VINA RESULT:      -7.1      2.587      5.103
REMARK  Name = 
REMARK  3 active torsions:
REMARK  status: ('A' for Active; 'I' for Inactive)
REMARK    1  A    between atoms: C_2  and  O_3
REMARK    2  A    between atoms: C_2  and  C_4
REMARK    3  A    between atoms: C_4  and  C_5
REMARK                            x       y       z     vdW  Elec       q    Type
REMARK                         _______ _______ _______ _____ _____    ______ ____
ROOT
ATOM      1  C   UNL     1       4.978   5.608  18.758  0.00  0.00    +0.000 C 
ATOM      2  C   UNL     1       3.598   5.220  19.269  0.00  0.00    +0.000 A 
ATOM      3  C   UNL     1       2.819   6.201  19.912  0.00  0.00    +0.000 A 
ATOM      4  C   UNL     1       1.608   5.867  20.513  0.00  0.00    +0.000 A 
ATOM      5  C   UNL     1       1.164   4.551  20.481  0.00  0.00    +0.000 A 
ATOM      6  C   UNL     1       1.913   3.573  19.822  0.00  0.00    +0.000 A 
ATOM      7  C   UNL     1       3.118   3.898  19.182  0.00  0.00    +0.000 A 
ATOM      8  C   UNL     1       3.861   2.808  18.527  0.00  0.00    +0.000 C 
ATOM      9  C   UNL     1       4.654   2.904  17.445  0.00  0.00    +0.000 C 
ATOM     10  C   UNL     1       4.946   4.119  16.667  0.00  0.00    +0.000 A 
ATOM     11  C   UNL     1       5.136   3.972  15.283  0.00  0.00    +0.000 A 
ATOM     12  C   UNL     1       5.374   5.079  14.469  0.00  0.00    +0.000 A 
ATOM     13  C   UNL     1       5.432   6.350  15.030  0.00  0.00    +0.000 A 
ATOM     14  C   UNL     1       5.289   6.508  16.410  0.00  0.00    +0.000 A 
ATOM     15  C   UNL     1       5.072   5.397  17.247  0.00  0.00    +0.000 A 
ENDROOT
BRANCH   1  16
ATOM     16  C   UNL     1       6.125   4.897  19.506  0.00  0.00    +0.000 C 
BRANCH  16  18
ATOM     17  O   UNL     1       7.811   6.403  18.697  0.00  0.00    +0.000 OA
ATOM     18  C   UNL     1       7.418   5.668  19.598  0.00  0.00    +0.000 C 
BRANCH  18  19
ATOM     19  O   UNL     1       8.173   5.440  20.688  0.00  0.00    +0.000 OA
ATOM     20  H   UNL     1       8.160   4.528  21.036  0.00  0.00    +0.000 HD
ENDBRANCH  18  19
ENDBRANCH  16  18
ENDBRANCH   1  16
TORSDOF 3
ENDMDL
MODEL 7
REMARK VINA RESULT:      -7.0      2.473      5.367
REMARK  Name = 
REMARK  3 active torsions:
REMARK  status: ('A' for Active; 'I' for Inactive)
REMARK    1  A    between atoms: C_2  and  O_3
REMARK    2  A    between atoms: C_2  and  C_4
REMARK    3  A    between atoms: C_4  and  C_5
REMARK                            x       y       z     vdW  Elec       q    Type
REMARK                         _______ _______ _______ _____ _____    ______ ____
ROOT
ATOM      1  C   UNL     1       4.858   4.065  18.005  0.00  0.00    +0.000 C 
ATOM      2  C   UNL     1       3.752   4.241  19.036  0.00  0.00    +0.000 A 
ATOM      3  C   UNL     1       3.602   3.259  20.035  0.00  0.00    +0.000 A 
ATOM      4  C   UNL     1       2.528   3.303  20.919  0.00  0.00    +0.000 A 
ATOM      5  C   UNL     1       1.591   4.324  20.815  0.00  0.00    +0.000 A 
ATOM      6  C   UNL     1       1.744   5.320  19.848  0.00  0.00    +0.000 A 
ATOM      7  C   UNL     1       2.837   5.311  18.970  0.00  0.00    +0.000 A 
ATOM      8  C   UNL     1       2.918   6.383  17.963  0.00  0.00    +0.000 C 
ATOM      9  C   UNL     1       4.033   6.917  17.434  0.00  0.00    +0.000 C 
ATOM     10  C   UNL     1       5.424   6.556  17.753  0.00  0.00    +0.000 A 
ATOM     11  C   UNL     1       6.382   7.582  17.722  0.00  0.00    +0.000 A 
ATOM     12  C   UNL     1       7.714   7.332  18.054  0.00  0.00    +0.000 A 
ATOM     13  C   UNL     1       8.106   6.048  18.416  0.00  0.00    +0.000 A 
ATOM     14  C   UNL     1       7.175   5.008  18.409  0.00  0.00    +0.000 A 
ATOM     15  C   UNL     1       5.832   5.241  18.054  0.00  0.00    +0.000 A 
ENDROOT
BRANCH   1  16
ATOM     16  C   UNL     1       4.325   3.824  16.577  0.00  0.00    +0.000 C 
BRANCH  16  18
ATOM     17  O   UNL     1       5.245   4.864  14.618  0.00  0.00    +0.000 OA
ATOM     18  C   UNL     1       5.335   3.983  15.470  0.00  0.00    +0.000 C 
BRANCH  18  19
ATOM     19  O   UNL     1       6.303   3.051  15.405  0.00  0.00    +0.000 OA
ATOM     20  H   UNL     1       6.877   3.083  14.616  0.00  0.00    +0.000 HD
ENDBRANCH  18  19
ENDBRANCH  16  18
ENDBRANCH   1  16
TORSDOF 3
ENDMDL
MODEL 8
REMARK VINA RESULT:      -6.9      2.361      5.255
REMARK  Name = 
REMARK  3 active torsions:
REMARK  status: ('A' for Active; 'I' for Inactive)
REMARK    1  A    between atoms: C_2  and  O_3
REMARK    2  A    between atoms: C_2  and  C_4
REMARK    3  A    between atoms: C_4  and  C_5
REMARK                            x       y       z     vdW  Elec       q    Type
REMARK                         _______ _______ _______ _____ _____    ______ ____
ROOT
ATOM      1  C   UNL     1       3.149   5.489  18.979  0.00  0.00    +0.000 C 
ATOM      2  C   UNL     1       2.470   6.765  19.451  0.00  0.00    +0.000 A 
ATOM      3  C   UNL     1       1.910   6.791  20.744  0.00  0.00    +0.000 A 
ATOM      4  C   UNL     1       1.164   7.884  21.175  0.00  0.00    +0.000 A 
ATOM      5  C   UNL     1       0.965   8.962  20.320  0.00  0.00    +0.000 A 
ATOM      6  C   UNL     1       1.538   8.963  19.047  0.00  0.00    +0.000 A 
ATOM      7  C   UNL     1       2.321   7.885  18.607  0.00  0.00    +0.000 A 
ATOM      8  C   UNL     1       2.873   7.948  17.244  0.00  0.00    +0.000 C 
ATOM      9  C   UNL     1       4.022   7.403  16.808  0.00  0.00    +0.000 C 
ATOM     10  C   UNL     1       4.991   6.629  17.600  0.00  0.00    +0.000 A 
ATOM     11  C   UNL     1       6.349   6.760  17.271  0.00  0.00    +0.000 A 
ATOM     12  C   UNL     1       7.334   6.095  18.002  0.00  0.00    +0.000 A 
ATOM     13  C   UNL     1       6.970   5.282  19.069  0.00  0.00    +0.000 A 
ATOM     14  C   UNL     1       5.621   5.106  19.382  0.00  0.00    +0.000 A 
ATOM     15  C   UNL     1       4.615   5.753  18.639  0.00  0.00    +0.000 A 
ENDROOT
BRANCH   1  16
ATOM     16  C   UNL     1       2.408   4.801  17.813  0.00  0.00    +0.000 C 
BRANCH  16  18
ATOM     17  O   UNL     1       0.982   3.348  19.086  0.00  0.00    +0.000 OA
ATOM     18  C   UNL     1       1.758   3.482  18.143  0.00  0.00    +0.000 C 
BRANCH  18  19
ATOM     19  O   UNL     1       2.140   2.425  17.403  0.00  0.00    +0.000 OA
ATOM     20  H   UNL     1       3.008   2.501  16.964  0.00  0.00    +0.000 HD
ENDBRANCH  18  19
ENDBRANCH  16  18
ENDBRANCH   1  16
TORSDOF 3
ENDMDL
MODEL 9
REMARK VINA RESULT:      -6.8      2.487      5.387
REMARK  Name = 
REMARK  3 active torsions:
REMARK  status: ('A' for Active; 'I' for Inactive)
REMARK    1  A    between atoms: C_2  and  O_3
REMARK    2  A    between atoms: C_2  and  C_4
REMARK    3  A    between atoms: C_4  and  C_5
REMARK                            x       y       z     vdW  Elec       q    Type
REMARK                         _______ _______ _______ _____ _____    ______ ____
ROOT
ATOM      1  C   UNL     1       4.910   4.225  18.688  0.00  0.00    +0.000 C 
ATOM      2  C   UNL     1       3.690   4.728  19.445  0.00  0.00    +0.000 A 
ATOM      3  C   UNL     1       3.379   4.140  20.687  0.00  0.00    +0.000 A 
ATOM      4  C   UNL     1       2.205   4.471  21.356  0.00  0.00    +0.000 A 
ATOM      5  C   UNL     1       1.326   5.390  20.794  0.00  0.00    +0.000 A 
ATOM      6  C   UNL     1       1.636   6.002  19.577  0.00  0.00    +0.000 A 
ATOM      7  C   UNL     1       2.831   5.706  18.905  0.00  0.00    +0.000 A 
ATOM      8  C   UNL     1       3.076   6.376  17.616  0.00  0.00    +0.000 C 
ATOM      9  C   UNL     1       4.268   6.710  17.090  0.00  0.00    +0.000 C 
ATOM     10  C   UNL     1       5.593   6.490  17.691  0.00  0.00    +0.000 A 
ATOM     11  C   UNL     1       6.585   7.453  17.443  0.00  0.00    +0.000 A 
ATOM     12  C   UNL     1       7.854   7.340  18.012  0.00  0.00    +0.000 A 
ATOM     13  C   UNL     1       8.150   6.257  18.831  0.00  0.00    +0.000 A 
ATOM     14  C   UNL     1       7.190   5.268  19.052  0.00  0.00    +0.000 A 
ATOM     15  C   UNL     1       5.912   5.357  18.467  0.00  0.00    +0.000 A 
ENDROOT
BRANCH   1  16
ATOM     16  C   UNL     1       4.553   3.512  17.366  0.00  0.00    +0.000 C 
BRANCH  16  18
ATOM     17  O   UNL     1       2.359   2.568  17.119  0.00  0.00    +0.000 OA
ATOM     18  C   UNL     1       3.524   2.415  17.476  0.00  0.00    +0.000 C 
BRANCH  18  19
ATOM     19  O   UNL     1       3.924   1.278  18.072  0.00  0.00    +0.000 OA
ATOM     20  H   UNL     1       3.302   0.889  18.716  0.00  0.00    +0.000 HD
ENDBRANCH  18  19
ENDBRANCH  16  18
ENDBRANCH   1  16
TORSDOF 3
ENDMDL
