MODEL 1
REMARK VINA RESULT:      -7.6      0.000      0.000
REMARK  Name = 
REMARK  4 active torsions:
REMARK  status: ('A' for Active; 'I' for Inactive)
REMARK    1  A    between atoms: C_1  and  C_2
REMARK    2  A    between atoms: C_6  and  C_8
REMARK    3  A    between atoms: C_8  and  N_9
REMARK    4  A    between atoms: N_9  and  C_10
REMARK                            x       y       z     vdW  Elec       q    Type
REMARK                         _______ _______ _______ _____ _____    ______ ____
ROOT
ATOM      1  C   UNL     1       4.591   3.719  19.478  0.00  0.00    +0.000 C 
ENDROOT
BRANCH   1   7
ATOM      2  C   UNL     1       7.347   4.831  12.680  0.00  0.00    +0.000 C 
ATOM      3  C   UNL     1       6.952   4.720  14.094  0.00  0.00    +0.000 A 
ATOM      4  C   UNL     1       5.925   4.111  14.774  0.00  0.00    +0.000 A 
ATOM      5  C   UNL     1       6.174   4.407  16.137  0.00  0.00    +0.000 A 
ATOM      6  N   UNL     1       5.378   3.982  17.184  0.00  0.00    +0.000 N 
ATOM      7  C   UNL     1       5.654   4.262  18.511  0.00  0.00    +0.000 C 
ATOM      8  O   UNL     1       6.620   4.890  18.936  0.00  0.00    +0.000 OA
ATOM      9  N   UNL     1       7.276   5.154  16.255  0.00  0.00    +0.000 NA
ATOM     10  O   UNL     1       7.760   5.348  14.982  0.00  0.00    +0.000 OA
ATOM     11  H   UNL     1       4.568   3.433  16.940  0.00  0.00    +0.000 HD
ENDBRANCH   1   7
BRANCH   1  12
ATOM     12  N   UNL     1       3.275   4.233  19.079  0.00  0.00    +0.000 NA
ATOM     13  H   UNL     1       2.533   3.671  19.499  0.00  0.00    +0.000 HD
BRANCH  12  14
ATOM     14  C   UNL     1       3.071   5.663  19.320  0.00  0.00    +0.000 C 
ATOM     15  C   UNL     1       1.890   5.817  20.305  0.00  0.00    +0.000 C 
ATOM     16  C   UNL     1       1.683   7.282  20.703  0.00  0.00    +0.000 C 
ATOM     17  C   UNL     1       1.749   8.185  19.529  0.00  0.00    +0.000 A 
ATOM     18  N   UNL     1       1.392   9.447  19.431  0.00  0.00    +0.000 NA
ATOM     19  C   UNL     1       1.725   9.763  18.141  0.00  0.00    +0.000 A 
ATOM     20  N   UNL     1       2.286   8.777  17.436  0.00  0.00    +0.000 NA
ATOM     21  N   UNL     1       2.283   7.785  18.338  0.00  0.00    +0.000 N 
ATOM     22  C   UNL     1       2.770   6.460  18.033  0.00  0.00    +0.000 C 
ENDBRANCH  12  14
ENDBRANCH   1  12
TORSDOF 3
ENDMDL
MODEL 2
REMARK VINA RESULT:      -7.6      2.654      3.618
REMARK  Name = 
REMARK  4 active torsions:
REMARK  status: ('A' for Active; 'I' for Inactive)
REMARK    1  A    between atoms: C_1  and  C_2
REMARK    2  A    between atoms: C_6  and  C_8
REMARK    3  A    between atoms: C_8  and  N_9
REMARK    4  A    between atoms: N_9  and  C_10
REMARK                            x       y       z     vdW  Elec       q    Type
REMARK                         _______ _______ _______ _____ _____    ______ ____
ROOT
ATOM      1  C   UNL     1       6.817   5.620  18.654  0.00  0.00    +0.000 C 
ENDROOT
BRANCH   1   7
ATOM      2  C   UNL     1       6.421   3.265  11.631  0.00  0.00    +0.000 C 
ATOM      3  C   UNL     1       6.606   3.883  12.954  0.00  0.00    +0.000 A 
ATOM      4  C   UNL     1       6.207   3.583  14.234  0.00  0.00    +0.000 A 
ATOM      5  C   UNL     1       6.760   4.617  15.031  0.00  0.00    +0.000 A 
ATOM      6  N   UNL     1       6.607   4.709  16.401  0.00  0.00    +0.000 N 
ATOM      7  C   UNL     1       7.176   5.713  17.164  0.00  0.00    +0.000 C 
ATOM      8  O   UNL     1       7.889   6.625  16.751  0.00  0.00    +0.000 OA
ATOM      9  N   UNL     1       7.436   5.481  14.267  0.00  0.00    +0.000 NA
ATOM     10  O   UNL     1       7.340   5.022  12.974  0.00  0.00    +0.000 OA
ATOM     11  H   UNL     1       6.057   3.988  16.843  0.00  0.00    +0.000 HD
ENDBRANCH   1   7
BRANCH   1  12
ATOM     12  N   UNL     1       6.263   4.289  18.930  0.00  0.00    +0.000 NA
ATOM     13  H   UNL     1       6.688   3.896  19.771  0.00  0.00    +0.000 HD
BRANCH  12  14
ATOM     14  C   UNL     1       4.800   4.229  18.987  0.00  0.00    +0.000 C 
ATOM     15  C   UNL     1       4.284   5.601  19.475  0.00  0.00    +0.000 C 
ATOM     16  C   UNL     1       2.753   5.662  19.452  0.00  0.00    +0.000 C 
ATOM     17  C   UNL     1       2.146   4.433  20.018  0.00  0.00    +0.000 A 
ATOM     18  N   UNL     1       0.902   4.214  20.382  0.00  0.00    +0.000 NA
ATOM     19  C   UNL     1       0.922   2.904  20.779  0.00  0.00    +0.000 A 
ATOM     20  N   UNL     1       2.102   2.289  20.666  0.00  0.00    +0.000 NA
ATOM     21  N   UNL     1       2.863   3.284  20.188  0.00  0.00    +0.000 N 
ATOM     22  C   UNL     1       4.274   3.122  19.924  0.00  0.00    +0.000 C 
ENDBRANCH  12  14
ENDBRANCH   1  12
TORSDOF 3
ENDMDL
MODEL 3
REMARK VINA RESULT:      -7.5      2.606      3.608
REMARK  Name = 
REMARK  4 active torsions:
REMARK  status: ('A' for Active; 'I' for Inactive)
REMARK    1  A    between atoms: C_1  and  C_2
REMARK    2  A    between atoms: C_6  and  C_8
REMARK    3  A    between atoms: C_8  and  N_9
REMARK    4  A    between atoms: N_9  and  C_10
REMARK                            x       y       z     vdW  Elec       q    Type
REMARK                         _______ _______ _______ _____ _____    ______ ____
ROOT
ATOM      1  C   UNL     1       7.076   5.320  19.228  0.00  0.00    +0.000 C 
ENDROOT
BRANCH   1   7
ATOM      2  C   UNL     1       6.291   3.474  12.086  0.00  0.00    +0.000 C 
ATOM      3  C   UNL     1       6.537   4.003  13.437  0.00  0.00    +0.000 A 
ATOM      4  C   UNL     1       6.260   3.581  14.715  0.00  0.00    +0.000 A 
ATOM      5  C   UNL     1       6.802   4.589  15.550  0.00  0.00    +0.000 A 
ATOM      6  N   UNL     1       6.752   4.567  16.930  0.00  0.00    +0.000 N 
ATOM      7  C   UNL     1       7.311   5.550  17.728  0.00  0.00    +0.000 C 
ATOM      8  O   UNL     1       7.926   6.540  17.339  0.00  0.00    +0.000 OA
ATOM      9  N   UNL     1       7.358   5.554  14.810  0.00  0.00    +0.000 NA
ATOM     10  O   UNL     1       7.192   5.188  13.495  0.00  0.00    +0.000 OA
ATOM     11  H   UNL     1       6.287   3.777  17.352  0.00  0.00    +0.000 HD
ENDBRANCH   1   7
BRANCH   1  12
ATOM     12  N   UNL     1       5.724   5.775  19.575  0.00  0.00    +0.000 NA
ATOM     13  H   UNL     1       5.649   6.787  19.456  0.00  0.00    +0.000 HD
BRANCH  12  14
ATOM     14  C   UNL     1       4.639   5.070  18.889  0.00  0.00    +0.000 C 
ATOM     15  C   UNL     1       3.461   6.055  18.720  0.00  0.00    +0.000 C 
ATOM     16  C   UNL     1       2.324   5.430  17.905  0.00  0.00    +0.000 C 
ATOM     17  C   UNL     1       2.032   4.043  18.343  0.00  0.00    +0.000 A 
ATOM     18  N   UNL     1       0.997   3.284  18.059  0.00  0.00    +0.000 NA
ATOM     19  C   UNL     1       1.292   2.108  18.694  0.00  0.00    +0.000 A 
ATOM     20  N   UNL     1       2.460   2.085  19.342  0.00  0.00    +0.000 NA
ATOM     21  N   UNL     1       2.905   3.328  19.109  0.00  0.00    +0.000 N 
ATOM     22  C   UNL     1       4.153   3.817  19.648  0.00  0.00    +0.000 C 
ENDBRANCH  12  14
ENDBRANCH   1  12
TORSDOF 3
ENDMDL
MODEL 4
REMARK VINA RESULT:      -7.5      2.218      3.445
REMARK  Name = 
REMARK  4 active torsions:
REMARK  status: ('A' for Active; 'I' for Inactive)
REMARK    1  A    between atoms: C_1  and  C_2
REMARK    2  A    between atoms: C_6  and  C_8
REMARK    3  A    between atoms: C_8  and  N_9
REMARK    4  A    between atoms: N_9  and  C_10
REMARK                            x       y       z     vdW  Elec       q    Type
REMARK                         _______ _______ _______ _____ _____    ______ ____
ROOT
ATOM      1  C   UNL     1       5.706   6.079  18.010  0.00  0.00    +0.000 C 
ENDROOT
BRANCH   1   7
ATOM      2  C   UNL     1       6.978   3.211  11.288  0.00  0.00    +0.000 C 
ATOM      3  C   UNL     1       6.878   3.901  12.584  0.00  0.00    +0.000 A 
ATOM      4  C   UNL     1       6.057   3.799  13.682  0.00  0.00    +0.000 A 
ATOM      5  C   UNL     1       6.542   4.780  14.582  0.00  0.00    +0.000 A 
ATOM      6  N   UNL     1       6.005   5.023  15.832  0.00  0.00    +0.000 N 
ATOM      7  C   UNL     1       6.510   5.968  16.707  0.00  0.00    +0.000 C 
ATOM      8  O   UNL     1       7.486   6.689  16.514  0.00  0.00    +0.000 OA
ATOM      9  N   UNL     1       7.580   5.428  14.046  0.00  0.00    +0.000 NA
ATOM     10  O   UNL     1       7.789   4.880  12.802  0.00  0.00    +0.000 OA
ATOM     11  H   UNL     1       5.211   4.460  16.099  0.00  0.00    +0.000 HD
ENDBRANCH   1   7
BRANCH   1  12
ATOM     12  N   UNL     1       4.431   6.750  17.729  0.00  0.00    +0.000 NA
ATOM     13  H   UNL     1       4.365   6.985  16.737  0.00  0.00    +0.000 HD
BRANCH  12  14
ATOM     14  C   UNL     1       3.240   6.034  18.193  0.00  0.00    +0.000 C 
ATOM     15  C   UNL     1       3.273   6.004  19.738  0.00  0.00    +0.000 C 
ATOM     16  C   UNL     1       2.000   5.373  20.310  0.00  0.00    +0.000 C 
ATOM     17  C   UNL     1       1.626   4.134  19.585  0.00  0.00    +0.000 A 
ATOM     18  N   UNL     1       0.760   3.204  19.921  0.00  0.00    +0.000 NA
ATOM     19  C   UNL     1       0.803   2.342  18.859  0.00  0.00    +0.000 A 
ATOM     20  N   UNL     1       1.633   2.691  17.871  0.00  0.00    +0.000 NA
ATOM     21  N   UNL     1       2.148   3.828  18.361  0.00  0.00    +0.000 N 
ATOM     22  C   UNL     1       3.152   4.590  17.656  0.00  0.00    +0.000 C 
ENDBRANCH  12  14
ENDBRANCH   1  12
TORSDOF 3
ENDMDL
MODEL 5
REMARK VINA RESULT:      -7.5      2.866      3.688
REMARK  Name = 
REMARK  4 active torsions:
REMARK  status: ('A' for Active; 'I' for Inactive)
REMARK    1  A    between atoms: C_1  and  C_2
REMARK    2  A    between atoms: C_6  and  C_8
REMARK    3  A    between atoms: C_8  and  N_9
REMARK    4  A    between atoms: N_9  and  C_10
REMARK                            x       y       z     vdW  Elec       q    Type
REMARK                         _______ _______ _______ _____ _____    ______ ____
ROOT
ATOM      1  C   UNL     1       6.132   5.709  18.314  0.00  0.00    +0.000 C 
ENDROOT
BRANCH   1   7
ATOM      2  C   UNL     1       6.895   3.352  11.321  0.00  0.00    +0.000 C 
ATOM      3  C   UNL     1       6.876   3.960  12.662  0.00  0.00    +0.000 A 
ATOM      4  C   UNL     1       6.209   3.708  13.836  0.00  0.00    +0.000 A 
ATOM      5  C   UNL     1       6.689   4.691  14.737  0.00  0.00    +0.000 A 
ATOM      6  N   UNL     1       6.281   4.806  16.052  0.00  0.00    +0.000 N 
ATOM      7  C   UNL     1       6.783   5.758  16.923  0.00  0.00    +0.000 C 
ATOM      8  O   UNL     1       7.644   6.595  16.668  0.00  0.00    +0.000 OA
ATOM      9  N   UNL     1       7.579   5.481  14.130  0.00  0.00    +0.000 NA
ATOM     10  O   UNL     1       7.695   5.025  12.838  0.00  0.00    +0.000 OA
ATOM     11  H   UNL     1       5.590   4.144  16.370  0.00  0.00    +0.000 HD
ENDBRANCH   1   7
BRANCH   1  12
ATOM     12  N   UNL     1       6.230   4.343  18.840  0.00  0.00    +0.000 NA
ATOM     13  H   UNL     1       6.922   4.300  19.590  0.00  0.00    +0.000 HD
BRANCH  12  14
ATOM     14  C   UNL     1       4.957   3.744  19.247  0.00  0.00    +0.000 C 
ATOM     15  C   UNL     1       4.362   3.009  18.024  0.00  0.00    +0.000 C 
ATOM     16  C   UNL     1       3.082   2.254  18.395  0.00  0.00    +0.000 C 
ATOM     17  C   UNL     1       2.179   3.081  19.233  0.00  0.00    +0.000 A 
ATOM     18  N   UNL     1       0.918   2.880  19.542  0.00  0.00    +0.000 NA
ATOM     19  C   UNL     1       0.630   3.932  20.370  0.00  0.00    +0.000 A 
ATOM     20  N   UNL     1       1.645   4.767  20.608  0.00  0.00    +0.000 NA
ATOM     21  N   UNL     1       2.614   4.208  19.868  0.00  0.00    +0.000 N 
ATOM     22  C   UNL     1       3.936   4.780  19.765  0.00  0.00    +0.000 C 
ENDBRANCH  12  14
ENDBRANCH   1  12
TORSDOF 3
ENDMDL
MODEL 6
REMARK VINA RESULT:      -7.5      3.358      3.701
REMARK  Name = 
REMARK  4 active torsions:
REMARK  status: ('A' for Active; 'I' for Inactive)
REMARK    1  A    between atoms: C_1  and  C_2
REMARK    2  A    between atoms: C_6  and  C_8
REMARK    3  A    between atoms: C_8  and  N_9
REMARK    4  A    between atoms: N_9  and  C_10
REMARK                            x       y       z     vdW  Elec       q    Type
REMARK                         _______ _______ _______ _____ _____    ______ ____
ROOT
ATOM      1  C   UNL     1       6.546   5.257  18.902  0.00  0.00    +0.000 C 
ENDROOT
BRANCH   1   7
ATOM      2  C   UNL     1       6.763   3.643  11.665  0.00  0.00    +0.000 C 
ATOM      3  C   UNL     1       6.834   4.119  13.056  0.00  0.00    +0.000 A 
ATOM      4  C   UNL     1       6.319   3.696  14.258  0.00  0.00    +0.000 A 
ATOM      5  C   UNL     1       6.806   4.633  15.204  0.00  0.00    +0.000 A 
ATOM      6  N   UNL     1       6.531   4.586  16.557  0.00  0.00    +0.000 N 
ATOM      7  C   UNL     1       7.038   5.497  17.468  0.00  0.00    +0.000 C 
ATOM      8  O   UNL     1       7.792   6.433  17.217  0.00  0.00    +0.000 OA
ATOM      9  N   UNL     1       7.555   5.558  14.597  0.00  0.00    +0.000 NA
ATOM     10  O   UNL     1       7.572   5.237  13.259  0.00  0.00    +0.000 OA
ATOM     11  H   UNL     1       5.938   3.833  16.871  0.00  0.00    +0.000 HD
ENDBRANCH   1   7
BRANCH   1  12
ATOM     12  N   UNL     1       5.991   3.901  18.997  0.00  0.00    +0.000 NA
ATOM     13  H   UNL     1       6.581   3.318  19.594  0.00  0.00    +0.000 HD
BRANCH  12  14
ATOM     14  C   UNL     1       4.585   3.835  19.400  0.00  0.00    +0.000 C 
ATOM     15  C   UNL     1       4.433   2.682  20.419  0.00  0.00    +0.000 C 
ATOM     16  C   UNL     1       3.009   2.619  20.981  0.00  0.00    +0.000 C 
ATOM     17  C   UNL     1       1.990   2.760  19.913  0.00  0.00    +0.000 A 
ATOM     18  N   UNL     1       0.698   2.523  19.963  0.00  0.00    +0.000 NA
ATOM     19  C   UNL     1       0.271   2.873  18.710  0.00  0.00    +0.000 A 
ATOM     20  N   UNL     1       1.219   3.332  17.889  0.00  0.00    +0.000 NA
ATOM     21  N   UNL     1       2.302   3.243  18.676  0.00  0.00    +0.000 N 
ATOM     22  C   UNL     1       3.623   3.600  18.216  0.00  0.00    +0.000 C 
ENDBRANCH  12  14
ENDBRANCH   1  12
TORSDOF 3
ENDMDL
MODEL 7
REMARK VINA RESULT:      -7.4      2.526      3.914
REMARK  Name = 
REMARK  4 active torsions:
REMARK  status: ('A' for Active; 'I' for Inactive)
REMARK    1  A    between atoms: C_1  and  C_2
REMARK    2  A    between atoms: C_6  and  C_8
REMARK    3  A    between atoms: C_8  and  N_9
REMARK    4  A    between atoms: N_9  and  C_10
REMARK                            x       y       z     vdW  Elec       q    Type
REMARK                         _______ _______ _______ _____ _____    ______ ____
ROOT
ATOM      1  C   UNL     1       6.439   6.207  18.278  0.00  0.00    +0.000 C 
ENDROOT
BRANCH   1   7
ATOM      2  C   UNL     1       6.616   3.063  11.561  0.00  0.00    +0.000 C 
ATOM      3  C   UNL     1       6.710   3.818  12.821  0.00  0.00    +0.000 A 
ATOM      4  C   UNL     1       6.138   3.712  14.065  0.00  0.00    +0.000 A 
ATOM      5  C   UNL     1       6.697   4.782  14.808  0.00  0.00    +0.000 A 
ATOM      6  N   UNL     1       6.398   5.052  16.129  0.00  0.00    +0.000 N 
ATOM      7  C   UNL     1       6.975   6.087  16.844  0.00  0.00    +0.000 C 
ATOM      8  O   UNL     1       7.820   6.875  16.427  0.00  0.00    +0.000 OA
ATOM      9  N   UNL     1       7.542   5.483  14.046  0.00  0.00    +0.000 NA
ATOM     10  O   UNL     1       7.550   4.882  12.809  0.00  0.00    +0.000 OA
ATOM     11  H   UNL     1       5.729   4.441  16.574  0.00  0.00    +0.000 HD
ENDBRANCH   1   7
BRANCH   1  12
ATOM     12  N   UNL     1       4.981   6.034  18.259  0.00  0.00    +0.000 NA
ATOM     13  H   UNL     1       4.667   5.777  17.321  0.00  0.00    +0.000 HD
BRANCH  12  14
ATOM     14  C   UNL     1       4.455   5.118  19.273  0.00  0.00    +0.000 C 
ATOM     15  C   UNL     1       4.810   3.676  18.846  0.00  0.00    +0.000 C 
ATOM     16  C   UNL     1       4.395   2.659  19.915  0.00  0.00    +0.000 C 
ATOM     17  C   UNL     1       3.032   2.930  20.432  0.00  0.00    +0.000 A 
ATOM     18  N   UNL     1       2.253   2.162  21.161  0.00  0.00    +0.000 NA
ATOM     19  C   UNL     1       1.152   2.948  21.370  0.00  0.00    +0.000 A 
ATOM     20  N   UNL     1       1.208   4.169  20.830  0.00  0.00    +0.000 NA
ATOM     21  N   UNL     1       2.409   4.128  20.234  0.00  0.00    +0.000 N 
ATOM     22  C   UNL     1       2.927   5.233  19.462  0.00  0.00    +0.000 C 
ENDBRANCH  12  14
ENDBRANCH   1  12
TORSDOF 3
ENDMDL
MODEL 8
REMARK VINA RESULT:      -7.4      3.414      4.974
REMARK  Name = 
REMARK  4 active torsions:
REMARK  status: ('A' for Active; 'I' for Inactive)
REMARK    1  A    between atoms: C_1  and  C_2
REMARK    2  A    between atoms: C_6  and  C_8
REMARK    3  A    between atoms: C_8  and  N_9
REMARK    4  A    between atoms: N_9  and  C_10
REMARK                            x       y       z     vdW  Elec       q    Type
REMARK                         _______ _______ _______ _____ _____    ______ ____
ROOT
ATOM      1  C   UNL     1       5.366   4.360  16.087  0.00  0.00    +0.000 C 
ENDROOT
BRANCH   1   7
ATOM      2  C   UNL     1       9.329   9.787  19.229  0.00  0.00    +0.000 C 
ATOM      3  C   UNL     1       8.465   8.851  18.490  0.00  0.00    +0.000 A 
ATOM      4  C   UNL     1       8.241   7.496  18.528  0.00  0.00    +0.000 A 
ATOM      5  C   UNL     1       7.258   7.270  17.532  0.00  0.00    +0.000 A 
ATOM      6  N   UNL     1       6.729   6.030  17.228  0.00  0.00    +0.000 N 
ATOM      7  C   UNL     1       5.750   5.835  16.270  0.00  0.00    +0.000 C 
ATOM      8  O   UNL     1       5.217   6.706  15.587  0.00  0.00    +0.000 OA
ATOM      9  N   UNL     1       6.928   8.420  16.936  0.00  0.00    +0.000 NA
ATOM     10  O   UNL     1       7.681   9.404  17.534  0.00  0.00    +0.000 OA
ATOM     11  H   UNL     1       7.084   5.247  17.755  0.00  0.00    +0.000 HD
ENDBRANCH   1   7
BRANCH   1  12
ATOM     12  N   UNL     1       5.502   3.668  17.374  0.00  0.00    +0.000 NA
ATOM     13  H   UNL     1       6.054   4.231  18.023  0.00  0.00    +0.000 HD
BRANCH  12  14
ATOM     14  C   UNL     1       4.240   3.233  17.978  0.00  0.00    +0.000 C 
ATOM     15  C   UNL     1       3.124   4.184  17.489  0.00  0.00    +0.000 C 
ATOM     16  C   UNL     1       1.747   3.728  17.983  0.00  0.00    +0.000 C 
ATOM     17  C   UNL     1       1.776   3.345  19.416  0.00  0.00    +0.000 A 
ATOM     18  N   UNL     1       0.773   3.138  20.240  0.00  0.00    +0.000 NA
ATOM     19  C   UNL     1       1.398   2.770  21.401  0.00  0.00    +0.000 A 
ATOM     20  N   UNL     1       2.732   2.718  21.343  0.00  0.00    +0.000 NA
ATOM     21  N   UNL     1       2.945   3.095  20.073  0.00  0.00    +0.000 N 
ATOM     22  C   UNL     1       4.273   3.233  19.521  0.00  0.00    +0.000 C 
ENDBRANCH  12  14
ENDBRANCH   1  12
TORSDOF 3
ENDMDL
MODEL 9
REMARK VINA RESULT:      -7.4      3.142      4.794
REMARK  Name = 
REMARK  4 active torsions:
REMARK  status: ('A' for Active; 'I' for Inactive)
REMARK    1  A    between atoms: C_1  and  C_2
REMARK    2  A    between atoms: C_6  and  C_8
REMARK    3  A    between atoms: C_8  and  N_9
REMARK    4  A    between atoms: N_9  and  C_10
REMARK                            x       y       z     vdW  Elec       q    Type
REMARK                         _______ _______ _______ _____ _____    ______ ____
ROOT
ATOM      1  C   UNL     1       5.914   4.136  16.148  0.00  0.00    +0.000 C 
ENDROOT
BRANCH   1   7
ATOM      2  C   UNL     1       8.922  10.456  18.606  0.00  0.00    +0.000 C 
ATOM      3  C   UNL     1       8.415   9.115  18.272  0.00  0.00    +0.000 A 
ATOM      4  C   UNL     1       7.611   8.595  17.287  0.00  0.00    +0.000 A 
ATOM      5  C   UNL     1       7.549   7.208  17.572  0.00  0.00    +0.000 A 
ATOM      6  N   UNL     1       6.840   6.290  16.821  0.00  0.00    +0.000 N 
ATOM      7  C   UNL     1       6.815   4.935  17.101  0.00  0.00    +0.000 C 
ATOM      8  O   UNL     1       7.411   4.370  18.014  0.00  0.00    +0.000 OA
ATOM      9  N   UNL     1       8.267   6.926  18.663  0.00  0.00    +0.000 NA
ATOM     10  O   UNL     1       8.806   8.114  19.099  0.00  0.00    +0.000 OA
ATOM     11  H   UNL     1       6.333   6.652  16.027  0.00  0.00    +0.000 HD
ENDBRANCH   1   7
BRANCH   1  12
ATOM     12  N   UNL     1       4.510   4.437  16.451  0.00  0.00    +0.000 NA
ATOM     13  H   UNL     1       3.931   4.300  15.621  0.00  0.00    +0.000 HD
BRANCH  12  14
ATOM     14  C   UNL     1       3.963   3.730  17.612  0.00  0.00    +0.000 C 
ATOM     15  C   UNL     1       2.709   2.954  17.151  0.00  0.00    +0.000 C 
ATOM     16  C   UNL     1       2.140   2.091  18.282  0.00  0.00    +0.000 C 
ATOM     17  C   UNL     1       2.083   2.834  19.565  0.00  0.00    +0.000 A 
ATOM     18  N   UNL     1       1.452   2.524  20.676  0.00  0.00    +0.000 NA
ATOM     19  C   UNL     1       1.798   3.544  21.522  0.00  0.00    +0.000 A 
ATOM     20  N   UNL     1       2.622   4.461  21.008  0.00  0.00    +0.000 NA
ATOM     21  N   UNL     1       2.781   3.990  19.762  0.00  0.00    +0.000 N 
ATOM     22  C   UNL     1       3.583   4.673  18.774  0.00  0.00    +0.000 C 
ENDBRANCH  12  14
ENDBRANCH   1  12
TORSDOF 3
ENDMDL
