MODEL 1
REMARK VINA RESULT:      -8.6      0.000      0.000
REMARK  Name = 
REMARK  6 active torsions:
REMARK  status: ('A' for Active; 'I' for Inactive)
REMARK    1  A    between atoms: C_1  and  C_2
REMARK    2  A    between atoms: C_2  and  O_3
REMARK    3  A    between atoms: O_3  and  C_4
REMARK    4  A    between atoms: C_4  and  C_6
REMARK    5  A    between atoms: C_11  and  N_12
REMARK    6  A    between atoms: C_18  and  C_19
REMARK                            x       y       z     vdW  Elec       q    Type
REMARK                         _______ _______ _______ _____ _____    ______ ____
ROOT
ATOM      1  N   UNL     1       4.247   3.968  17.059  0.00  0.00    +0.000 N 
ATOM      2  C   UNL     1       3.731   4.932  17.909  0.00  0.00    +0.000 A 
ATOM      3  N   UNL     1       3.606   6.178  17.511  0.00  0.00    +0.000 NA
ATOM      4  C   UNL     1       2.915   7.126  18.300  0.00  0.00    +0.000 A 
ATOM      5  C   UNL     1       2.659   8.382  17.759  0.00  0.00    +0.000 A 
ATOM      6  C   UNL     1       1.808   9.276  18.419  0.00  0.00    +0.000 A 
ATOM      7  C   UNL     1       1.222   8.935  19.648  0.00  0.00    +0.000 A 
ATOM      8  C   UNL     1       0.172   9.818  20.258  0.00  0.00    +0.000 C 
ATOM      9  C   UNL     1       1.557   7.719  20.256  0.00  0.00    +0.000 A 
ATOM     10  C   UNL     1       2.375   6.828  19.559  0.00  0.00    +0.000 A 
ATOM     11  N   UNL     1       2.642   5.541  20.009  0.00  0.00    +0.000 N 
ATOM     12  N   UNL     1       2.304   4.992  21.187  0.00  0.00    +0.000 NA
ATOM     13  N   UNL     1       2.748   3.738  21.119  0.00  0.00    +0.000 NA
ATOM     14  N   UNL     1       3.345   3.479  19.899  0.00  0.00    +0.000 NA
ATOM     15  C   UNL     1       3.267   4.611  19.236  0.00  0.00    +0.000 A 
ATOM     16  H   UNL     1       4.135   2.994  17.330  0.00  0.00    +0.000 HD
ENDROOT
BRANCH   1  22
ATOM     17  C   UNL     1       6.498   4.717  16.309  0.00  0.00    +0.000 A 
ATOM     18  C   UNL     1       7.388   4.934  15.237  0.00  0.00    +0.000 A 
ATOM     19  C   UNL     1       7.039   4.611  13.929  0.00  0.00    +0.000 A 
ATOM     20  C   UNL     1       5.797   4.052  13.673  0.00  0.00    +0.000 A 
ATOM     21  C   UNL     1       4.901   3.836  14.722  0.00  0.00    +0.000 A 
ATOM     22  C   UNL     1       5.212   4.182  16.053  0.00  0.00    +0.000 A 
BRANCH  17  23
ATOM     23  C   UNL     1       7.075   5.000  17.653  0.00  0.00    +0.000 C 
ATOM     24  O   UNL     1       6.883   4.263  18.613  0.00  0.00    +0.000 OA
BRANCH  23  25
ATOM     25  O   UNL     1       7.840   6.118  17.677  0.00  0.00    +0.000 OA
BRANCH  25  27
ATOM     26  C   UNL     1       8.015   8.538  17.804  0.00  0.00    +0.000 C 
ATOM     27  C   UNL     1       7.098   7.347  17.578  0.00  0.00    +0.000 C 
ENDBRANCH  25  27
ENDBRANCH  23  25
ENDBRANCH  17  23
ENDBRANCH   1  22
TORSDOF 4
ENDMDL
MODEL 2
REMARK VINA RESULT:      -8.4      2.732      5.422
REMARK  Name = 
REMARK  6 active torsions:
REMARK  status: ('A' for Active; 'I' for Inactive)
REMARK    1  A    between atoms: C_1  and  C_2
REMARK    2  A    between atoms: C_2  and  O_3
REMARK    3  A    between atoms: O_3  and  C_4
REMARK    4  A    between atoms: C_4  and  C_6
REMARK    5  A    between atoms: C_11  and  N_12
REMARK    6  A    between atoms: C_18  and  C_19
REMARK                            x       y       z     vdW  Elec       q    Type
REMARK                         _______ _______ _______ _____ _____    ______ ____
ROOT
ATOM      1  N   UNL     1       2.763   6.300  19.661  0.00  0.00    +0.000 N 
ATOM      2  C   UNL     1       1.949   7.395  19.898  0.00  0.00    +0.000 A 
ATOM      3  N   UNL     1       1.175   7.435  20.959  0.00  0.00    +0.000 NA
ATOM      4  C   UNL     1       0.482   8.618  21.307  0.00  0.00    +0.000 A 
ATOM      5  C   UNL     1      -0.183   8.665  22.528  0.00  0.00    +0.000 A 
ATOM      6  C   UNL     1      -0.707   9.873  23.002  0.00  0.00    +0.000 A 
ATOM      7  C   UNL     1      -0.596  11.050  22.244  0.00  0.00    +0.000 A 
ATOM      8  C   UNL     1      -0.993  12.372  22.835  0.00  0.00    +0.000 C 
ATOM      9  C   UNL     1      -0.026  10.995  20.967  0.00  0.00    +0.000 A 
ATOM     10  C   UNL     1       0.525   9.788  20.534  0.00  0.00    +0.000 A 
ATOM     11  N   UNL     1       1.243   9.668  19.350  0.00  0.00    +0.000 N 
ATOM     12  N   UNL     1       1.413  10.593  18.392  0.00  0.00    +0.000 NA
ATOM     13  N   UNL     1       2.205  10.011  17.493  0.00  0.00    +0.000 NA
ATOM     14  N   UNL     1       2.559   8.733  17.884  0.00  0.00    +0.000 NA
ATOM     15  C   UNL     1       1.947   8.547  19.033  0.00  0.00    +0.000 A 
ATOM     16  H   UNL     1       3.487   6.397  18.953  0.00  0.00    +0.000 HD
ENDROOT
BRANCH   1  22
ATOM     17  C   UNL     1       2.386   3.908  19.086  0.00  0.00    +0.000 A 
ATOM     18  C   UNL     1       2.064   2.610  19.532  0.00  0.00    +0.000 A 
ATOM     19  C   UNL     1       1.860   2.337  20.882  0.00  0.00    +0.000 A 
ATOM     20  C   UNL     1       1.990   3.358  21.810  0.00  0.00    +0.000 A 
ATOM     21  C   UNL     1       2.302   4.650  21.386  0.00  0.00    +0.000 A 
ATOM     22  C   UNL     1       2.483   4.966  20.023  0.00  0.00    +0.000 A 
BRANCH  17  23
ATOM     23  C   UNL     1       2.693   3.999  17.631  0.00  0.00    +0.000 C 
ATOM     24  O   UNL     1       2.052   3.379  16.791  0.00  0.00    +0.000 OA
BRANCH  23  25
ATOM     25  O   UNL     1       3.713   4.847  17.357  0.00  0.00    +0.000 OA
BRANCH  25  27
ATOM     26  C   UNL     1       5.298   4.652  15.525  0.00  0.00    +0.000 C 
ATOM     27  C   UNL     1       4.924   4.199  16.927  0.00  0.00    +0.000 C 
ENDBRANCH  25  27
ENDBRANCH  23  25
ENDBRANCH  17  23
ENDBRANCH   1  22
TORSDOF 4
ENDMDL
MODEL 3
REMARK VINA RESULT:      -8.1      2.550      5.197
REMARK  Name = 
REMARK  6 active torsions:
REMARK  status: ('A' for Active; 'I' for Inactive)
REMARK    1  A    between atoms: C_1  and  C_2
REMARK    2  A    between atoms: C_2  and  O_3
REMARK    3  A    between atoms: O_3  and  C_4
REMARK    4  A    between atoms: C_4  and  C_6
REMARK    5  A    between atoms: C_11  and  N_12
REMARK    6  A    between atoms: C_18  and  C_19
REMARK                            x       y       z     vdW  Elec       q    Type
REMARK                         _______ _______ _______ _____ _____    ______ ____
ROOT
ATOM      1  N   UNL     1       2.776   6.621  19.452  0.00  0.00    +0.000 N 
ATOM      2  C   UNL     1       1.916   7.662  19.759  0.00  0.00    +0.000 A 
ATOM      3  N   UNL     1       1.181   7.623  20.847  0.00  0.00    +0.000 NA
ATOM      4  C   UNL     1       0.442   8.754  21.265  0.00  0.00    +0.000 A 
ATOM      5  C   UNL     1      -0.180   8.721  22.509  0.00  0.00    +0.000 A 
ATOM      6  C   UNL     1      -0.747   9.882  23.047  0.00  0.00    +0.000 A 
ATOM      7  C   UNL     1      -0.724  11.090  22.332  0.00  0.00    +0.000 A 
ATOM      8  C   UNL     1      -1.167  12.367  22.987  0.00  0.00    +0.000 C 
ATOM      9  C   UNL     1      -0.199  11.112  21.035  0.00  0.00    +0.000 A 
ATOM     10  C   UNL     1       0.396   9.952  20.536  0.00  0.00    +0.000 A 
ATOM     11  N   UNL     1       1.075   9.914  19.324  0.00  0.00    +0.000 N 
ATOM     12  N   UNL     1       1.163  10.881  18.397  0.00  0.00    +0.000 NA
ATOM     13  N   UNL     1       1.950  10.375  17.450  0.00  0.00    +0.000 NA
ATOM     14  N   UNL     1       2.383   9.103  17.779  0.00  0.00    +0.000 NA
ATOM     15  C   UNL     1       1.824   8.844  18.939  0.00  0.00    +0.000 A 
ATOM     16  H   UNL     1       3.468   6.782  18.723  0.00  0.00    +0.000 HD
ENDROOT
BRANCH   1  22
ATOM     17  C   UNL     1       3.484   4.235  19.407  0.00  0.00    +0.000 A 
ATOM     18  C   UNL     1       3.187   2.896  19.734  0.00  0.00    +0.000 A 
ATOM     19  C   UNL     1       2.030   2.559  20.431  0.00  0.00    +0.000 A 
ATOM     20  C   UNL     1       1.156   3.561  20.825  0.00  0.00    +0.000 A 
ATOM     21  C   UNL     1       1.431   4.891  20.504  0.00  0.00    +0.000 A 
ATOM     22  C   UNL     1       2.578   5.262  19.771  0.00  0.00    +0.000 A 
BRANCH  17  23
ATOM     23  C   UNL     1       4.817   4.432  18.774  0.00  0.00    +0.000 C 
ATOM     24  O   UNL     1       5.857   4.088  19.325  0.00  0.00    +0.000 OA
BRANCH  23  25
ATOM     25  O   UNL     1       4.742   4.989  17.541  0.00  0.00    +0.000 OA
BRANCH  25  27
ATOM     26  C   UNL     1       6.147   4.411  15.644  0.00  0.00    +0.000 C 
ATOM     27  C   UNL     1       4.912   4.058  16.458  0.00  0.00    +0.000 C 
ENDBRANCH  25  27
ENDBRANCH  23  25
ENDBRANCH  17  23
ENDBRANCH   1  22
TORSDOF 4
ENDMDL
MODEL 4
REMARK VINA RESULT:      -8.0      2.635      5.116
REMARK  Name = 
REMARK  6 active torsions:
REMARK  status: ('A' for Active; 'I' for Inactive)
REMARK    1  A    between atoms: C_1  and  C_2
REMARK    2  A    between atoms: C_2  and  O_3
REMARK    3  A    between atoms: O_3  and  C_4
REMARK    4  A    between atoms: C_4  and  C_6
REMARK    5  A    between atoms: C_11  and  N_12
REMARK    6  A    between atoms: C_18  and  C_19
REMARK                            x       y       z     vdW  Elec       q    Type
REMARK                         _______ _______ _______ _____ _____    ______ ____
ROOT
ATOM      1  N   UNL     1       2.831   6.603  19.566  0.00  0.00    +0.000 N 
ATOM      2  C   UNL     1       1.961   7.642  19.850  0.00  0.00    +0.000 A 
ATOM      3  N   UNL     1       1.244   7.632  20.950  0.00  0.00    +0.000 NA
ATOM      4  C   UNL     1       0.495   8.767  21.339  0.00  0.00    +0.000 A 
ATOM      5  C   UNL     1      -0.106   8.771  22.593  0.00  0.00    +0.000 A 
ATOM      6  C   UNL     1      -0.682   9.942  23.098  0.00  0.00    +0.000 A 
ATOM      7  C   UNL     1      -0.688  11.124  22.340  0.00  0.00    +0.000 A 
ATOM      8  C   UNL     1      -1.139  12.417  22.956  0.00  0.00    +0.000 C 
ATOM      9  C   UNL     1      -0.184  11.106  21.034  0.00  0.00    +0.000 A 
ATOM     10  C   UNL     1       0.421   9.937  20.569  0.00  0.00    +0.000 A 
ATOM     11  N   UNL     1       1.081   9.865  19.348  0.00  0.00    +0.000 N 
ATOM     12  N   UNL     1       1.140  10.799  18.385  0.00  0.00    +0.000 NA
ATOM     13  N   UNL     1       1.920  10.271  17.444  0.00  0.00    +0.000 NA
ATOM     14  N   UNL     1       2.376   9.018  17.811  0.00  0.00    +0.000 NA
ATOM     15  C   UNL     1       1.839   8.793  18.989  0.00  0.00    +0.000 A 
ATOM     16  H   UNL     1       3.509   6.748  18.821  0.00  0.00    +0.000 HD
ENDROOT
BRANCH   1  22
ATOM     17  C   UNL     1       3.551   4.221  19.560  0.00  0.00    +0.000 A 
ATOM     18  C   UNL     1       3.280   2.891  19.943  0.00  0.00    +0.000 A 
ATOM     19  C   UNL     1       2.161   2.571  20.707  0.00  0.00    +0.000 A 
ATOM     20  C   UNL     1       1.301   3.580  21.112  0.00  0.00    +0.000 A 
ATOM     21  C   UNL     1       1.551   4.900  20.737  0.00  0.00    +0.000 A 
ATOM     22  C   UNL     1       2.658   5.254  19.937  0.00  0.00    +0.000 A 
BRANCH  17  23
ATOM     23  C   UNL     1       4.851   4.404  18.855  0.00  0.00    +0.000 C 
ATOM     24  O   UNL     1       5.161   3.734  17.877  0.00  0.00    +0.000 OA
BRANCH  23  25
ATOM     25  O   UNL     1       5.610   5.389  19.391  0.00  0.00    +0.000 OA
BRANCH  25  27
ATOM     26  C   UNL     1       8.011   5.744  19.265  0.00  0.00    +0.000 C 
ATOM     27  C   UNL     1       6.678   5.843  18.541  0.00  0.00    +0.000 C 
ENDBRANCH  25  27
ENDBRANCH  23  25
ENDBRANCH  17  23
ENDBRANCH   1  22
TORSDOF 4
ENDMDL
MODEL 5
REMARK VINA RESULT:      -7.7      1.106      1.323
REMARK  Name = 
REMARK  6 active torsions:
REMARK  status: ('A' for Active; 'I' for Inactive)
REMARK    1  A    between atoms: C_1  and  C_2
REMARK    2  A    between atoms: C_2  and  O_3
REMARK    3  A    between atoms: O_3  and  C_4
REMARK    4  A    between atoms: C_4  and  C_6
REMARK    5  A    between atoms: C_11  and  N_12
REMARK    6  A    between atoms: C_18  and  C_19
REMARK                            x       y       z     vdW  Elec       q    Type
REMARK                         _______ _______ _______ _____ _____    ______ ____
ROOT
ATOM      1  N   UNL     1       4.756   3.588  16.255  0.00  0.00    +0.000 N 
ATOM      2  C   UNL     1       4.281   4.398  17.273  0.00  0.00    +0.000 A 
ATOM      3  N   UNL     1       4.066   5.677  17.066  0.00  0.00    +0.000 NA
ATOM      4  C   UNL     1       3.411   6.470  18.037  0.00  0.00    +0.000 A 
ATOM      5  C   UNL     1       3.053   7.771  17.703  0.00  0.00    +0.000 A 
ATOM      6  C   UNL     1       2.230   8.520  18.552  0.00  0.00    +0.000 A 
ATOM      7  C   UNL     1       1.775   7.982  19.766  0.00  0.00    +0.000 A 
ATOM      8  C   UNL     1       0.748   8.714  20.582  0.00  0.00    +0.000 C 
ATOM      9  C   UNL     1       2.215   6.714  20.166  0.00  0.00    +0.000 A 
ATOM     10  C   UNL     1       3.002   5.973  19.284  0.00  0.00    +0.000 A 
ATOM     11  N   UNL     1       3.364   4.653  19.523  0.00  0.00    +0.000 N 
ATOM     12  N   UNL     1       3.160   3.931  20.636  0.00  0.00    +0.000 NA
ATOM     13  N   UNL     1       3.648   2.724  20.355  0.00  0.00    +0.000 NA
ATOM     14  N   UNL     1       4.141   2.667  19.064  0.00  0.00    +0.000 NA
ATOM     15  C   UNL     1       3.955   3.873  18.576  0.00  0.00    +0.000 A 
ATOM     16  H   UNL     1       4.711   2.582  16.395  0.00  0.00    +0.000 HD
ENDROOT
BRANCH   1  22
ATOM     17  C   UNL     1       6.850   4.648  15.428  0.00  0.00    +0.000 A 
ATOM     18  C   UNL     1       7.629   5.049  14.322  0.00  0.00    +0.000 A 
ATOM     19  C   UNL     1       7.221   4.792  13.017  0.00  0.00    +0.000 A 
ATOM     20  C   UNL     1       6.032   4.115  12.795  0.00  0.00    +0.000 A 
ATOM     21  C   UNL     1       5.246   3.717  13.877  0.00  0.00    +0.000 A 
ATOM     22  C   UNL     1       5.615   3.990  15.211  0.00  0.00    +0.000 A 
BRANCH  17  23
ATOM     23  C   UNL     1       7.491   4.889  16.750  0.00  0.00    +0.000 C 
ATOM     24  O   UNL     1       8.219   4.059  17.283  0.00  0.00    +0.000 OA
BRANCH  23  25
ATOM     25  O   UNL     1       7.207   6.110  17.262  0.00  0.00    +0.000 OA
BRANCH  25  27
ATOM     26  C   UNL     1       6.966   5.647  19.636  0.00  0.00    +0.000 C 
ATOM     27  C   UNL     1       7.774   6.356  18.562  0.00  0.00    +0.000 C 
ENDBRANCH  25  27
ENDBRANCH  23  25
ENDBRANCH  17  23
ENDBRANCH   1  22
TORSDOF 4
ENDMDL
MODEL 6
REMARK VINA RESULT:      -7.5      2.813      6.446
REMARK  Name = 
REMARK  6 active torsions:
REMARK  status: ('A' for Active; 'I' for Inactive)
REMARK    1  A    between atoms: C_1  and  C_2
REMARK    2  A    between atoms: C_2  and  O_3
REMARK    3  A    between atoms: O_3  and  C_4
REMARK    4  A    between atoms: C_4  and  C_6
REMARK    5  A    between atoms: C_11  and  N_12
REMARK    6  A    between atoms: C_18  and  C_19
REMARK                            x       y       z     vdW  Elec       q    Type
REMARK                         _______ _______ _______ _____ _____    ______ ____
ROOT
ATOM      1  N   UNL     1       4.239   5.140  19.847  0.00  0.00    +0.000 N 
ATOM      2  C   UNL     1       5.082   4.899  18.775  0.00  0.00    +0.000 A 
ATOM      3  N   UNL     1       4.592   4.607  17.591  0.00  0.00    +0.000 NA
ATOM      4  C   UNL     1       5.431   4.542  16.455  0.00  0.00    +0.000 A 
ATOM      5  C   UNL     1       4.844   4.402  15.201  0.00  0.00    +0.000 A 
ATOM      6  C   UNL     1       5.614   4.536  14.040  0.00  0.00    +0.000 A 
ATOM      7  C   UNL     1       6.994   4.786  14.119  0.00  0.00    +0.000 A 
ATOM      8  C   UNL     1       7.777   5.110  12.880  0.00  0.00    +0.000 C 
ATOM      9  C   UNL     1       7.616   4.821  15.373  0.00  0.00    +0.000 A 
ATOM     10  C   UNL     1       6.820   4.725  16.515  0.00  0.00    +0.000 A 
ATOM     11  N   UNL     1       7.322   4.898  17.800  0.00  0.00    +0.000 N 
ATOM     12  N   UNL     1       8.604   5.040  18.173  0.00  0.00    +0.000 NA
ATOM     13  N   UNL     1       8.558   5.214  19.492  0.00  0.00    +0.000 NA
ATOM     14  N   UNL     1       7.256   5.206  19.958  0.00  0.00    +0.000 NA
ATOM     15  C   UNL     1       6.515   5.006  18.891  0.00  0.00    +0.000 A 
ATOM     16  H   UNL     1       4.646   5.559  20.680  0.00  0.00    +0.000 HD
ENDROOT
BRANCH   1  22
ATOM     17  C   UNL     1       1.807   5.296  20.350  0.00  0.00    +0.000 A 
ATOM     18  C   UNL     1       0.590   4.621  20.581  0.00  0.00    +0.000 A 
ATOM     19  C   UNL     1       0.504   3.234  20.501  0.00  0.00    +0.000 A 
ATOM     20  C   UNL     1       1.633   2.499  20.175  0.00  0.00    +0.000 A 
ATOM     21  C   UNL     1       2.847   3.150  19.950  0.00  0.00    +0.000 A 
ATOM     22  C   UNL     1       2.975   4.551  20.054  0.00  0.00    +0.000 A 
BRANCH  17  23
ATOM     23  C   UNL     1       1.695   6.781  20.352  0.00  0.00    +0.000 C 
ATOM     24  O   UNL     1       0.889   7.372  21.060  0.00  0.00    +0.000 OA
BRANCH  23  25
ATOM     25  O   UNL     1       2.586   7.380  19.525  0.00  0.00    +0.000 OA
BRANCH  25  27
ATOM     26  C   UNL     1       1.825   8.981  17.863  0.00  0.00    +0.000 C 
ATOM     27  C   UNL     1       2.132   7.524  18.167  0.00  0.00    +0.000 C 
ENDBRANCH  25  27
ENDBRANCH  23  25
ENDBRANCH  17  23
ENDBRANCH   1  22
TORSDOF 4
ENDMDL
MODEL 7
REMARK VINA RESULT:      -7.5      3.125      7.153
REMARK  Name = 
REMARK  6 active torsions:
REMARK  status: ('A' for Active; 'I' for Inactive)
REMARK    1  A    between atoms: C_1  and  C_2
REMARK    2  A    between atoms: C_2  and  O_3
REMARK    3  A    between atoms: O_3  and  C_4
REMARK    4  A    between atoms: C_4  and  C_6
REMARK    5  A    between atoms: C_11  and  N_12
REMARK    6  A    between atoms: C_18  and  C_19
REMARK                            x       y       z     vdW  Elec       q    Type
REMARK                         _______ _______ _______ _____ _____    ______ ____
ROOT
ATOM      1  N   UNL     1       1.782   7.903  20.244  0.00  0.00    +0.000 N 
ATOM      2  C   UNL     1       2.437   6.970  19.458  0.00  0.00    +0.000 A 
ATOM      3  N   UNL     1       2.985   7.322  18.317  0.00  0.00    +0.000 NA
ATOM      4  C   UNL     1       3.810   6.425  17.600  0.00  0.00    +0.000 A 
ATOM      5  C   UNL     1       4.505   6.900  16.493  0.00  0.00    +0.000 A 
ATOM      6  C   UNL     1       5.482   6.109  15.878  0.00  0.00    +0.000 A 
ATOM      7  C   UNL     1       5.759   4.816  16.349  0.00  0.00    +0.000 A 
ATOM      8  C   UNL     1       6.929   4.046  15.806  0.00  0.00    +0.000 C 
ATOM      9  C   UNL     1       4.993   4.285  17.393  0.00  0.00    +0.000 A 
ATOM     10  C   UNL     1       4.053   5.108  18.015  0.00  0.00    +0.000 A 
ATOM     11  N   UNL     1       3.351   4.725  19.152  0.00  0.00    +0.000 N 
ATOM     12  N   UNL     1       3.339   3.522  19.748  0.00  0.00    +0.000 NA
ATOM     13  N   UNL     1       2.554   3.676  20.813  0.00  0.00    +0.000 NA
ATOM     14  N   UNL     1       2.085   4.973  20.911  0.00  0.00    +0.000 NA
ATOM     15  C   UNL     1       2.591   5.597  19.871  0.00  0.00    +0.000 A 
ATOM     16  H   UNL     1       1.557   7.637  21.200  0.00  0.00    +0.000 HD
ENDROOT
BRANCH   1  22
ATOM     17  C   UNL     1       0.545  10.027  20.630  0.00  0.00    +0.000 A 
ATOM     18  C   UNL     1      -0.181  11.103  20.077  0.00  0.00    +0.000 A 
ATOM     19  C   UNL     1      -0.367  11.222  18.703  0.00  0.00    +0.000 A 
ATOM     20  C   UNL     1       0.183  10.272  17.856  0.00  0.00    +0.000 A 
ATOM     21  C   UNL     1       0.898   9.198  18.386  0.00  0.00    +0.000 A 
ATOM     22  C   UNL     1       1.077   9.031  19.775  0.00  0.00    +0.000 A 
BRANCH  17  23
ATOM     23  C   UNL     1       0.756  10.120  22.101  0.00  0.00    +0.000 C 
ATOM     24  O   UNL     1       1.523   9.373  22.698  0.00  0.00    +0.000 OA
BRANCH  23  25
ATOM     25  O   UNL     1       0.043  11.118  22.677  0.00  0.00    +0.000 OA
BRANCH  25  27
ATOM     26  C   UNL     1      -2.232  11.832  23.149  0.00  0.00    +0.000 C 
ATOM     27  C   UNL     1      -1.217  10.703  23.233  0.00  0.00    +0.000 C 
ENDBRANCH  25  27
ENDBRANCH  23  25
ENDBRANCH  17  23
ENDBRANCH   1  22
TORSDOF 4
ENDMDL
MODEL 8
REMARK VINA RESULT:      -7.4      2.837      5.467
REMARK  Name = 
REMARK  6 active torsions:
REMARK  status: ('A' for Active; 'I' for Inactive)
REMARK    1  A    between atoms: C_1  and  C_2
REMARK    2  A    between atoms: C_2  and  O_3
REMARK    3  A    between atoms: O_3  and  C_4
REMARK    4  A    between atoms: C_4  and  C_6
REMARK    5  A    between atoms: C_11  and  N_12
REMARK    6  A    between atoms: C_18  and  C_19
REMARK                            x       y       z     vdW  Elec       q    Type
REMARK                         _______ _______ _______ _____ _____    ______ ____
ROOT
ATOM      1  N   UNL     1       2.664   7.165  19.249  0.00  0.00    +0.000 N 
ATOM      2  C   UNL     1       1.812   8.188  19.631  0.00  0.00    +0.000 A 
ATOM      3  N   UNL     1       1.053   8.063  20.696  0.00  0.00    +0.000 NA
ATOM      4  C   UNL     1       0.321   9.163  21.198  0.00  0.00    +0.000 A 
ATOM      5  C   UNL     1      -0.328   9.028  22.421  0.00  0.00    +0.000 A 
ATOM      6  C   UNL     1      -0.891  10.144  23.051  0.00  0.00    +0.000 A 
ATOM      7  C   UNL     1      -0.836  11.412  22.448  0.00  0.00    +0.000 A 
ATOM      8  C   UNL     1      -1.275  12.631  23.206  0.00  0.00    +0.000 C 
ATOM      9  C   UNL     1      -0.282  11.542  21.169  0.00  0.00    +0.000 A 
ATOM     10  C   UNL     1       0.308  10.422  20.580  0.00  0.00    +0.000 A 
ATOM     11  N   UNL     1       1.012  10.483  19.384  0.00  0.00    +0.000 N 
ATOM     12  N   UNL     1       1.133  11.527  18.550  0.00  0.00    +0.000 NA
ATOM     13  N   UNL     1       1.935  11.097  17.577  0.00  0.00    +0.000 NA
ATOM     14  N   UNL     1       2.342   9.794  17.799  0.00  0.00    +0.000 NA
ATOM     15  C   UNL     1       1.755   9.440  18.920  0.00  0.00    +0.000 A 
ATOM     16  H   UNL     1       3.373   7.380  18.552  0.00  0.00    +0.000 HD
ENDROOT
BRANCH   1  22
ATOM     17  C   UNL     1       2.925   4.788  18.559  0.00  0.00    +0.000 A 
ATOM     18  C   UNL     1       2.621   3.433  18.806  0.00  0.00    +0.000 A 
ATOM     19  C   UNL     1       1.870   3.049  19.914  0.00  0.00    +0.000 A 
ATOM     20  C   UNL     1       1.424   4.015  20.802  0.00  0.00    +0.000 A 
ATOM     21  C   UNL     1       1.710   5.361  20.570  0.00  0.00    +0.000 A 
ATOM     22  C   UNL     1       2.440   5.786  19.440  0.00  0.00    +0.000 A 
BRANCH  17  23
ATOM     23  C   UNL     1       3.839   5.011  17.404  0.00  0.00    +0.000 C 
ATOM     24  O   UNL     1       4.171   6.135  17.044  0.00  0.00    +0.000 OA
BRANCH  23  25
ATOM     25  O   UNL     1       4.270   3.859  16.839  0.00  0.00    +0.000 OA
BRANCH  25  27
ATOM     26  C   UNL     1       5.688   4.017  14.872  0.00  0.00    +0.000 C 
ATOM     27  C   UNL     1       5.635   3.894  16.386  0.00  0.00    +0.000 C 
ENDBRANCH  25  27
ENDBRANCH  23  25
ENDBRANCH  17  23
ENDBRANCH   1  22
TORSDOF 4
ENDMDL
MODEL 9
REMARK VINA RESULT:      -7.4      2.884      6.708
REMARK  Name = 
REMARK  6 active torsions:
REMARK  status: ('A' for Active; 'I' for Inactive)
REMARK    1  A    between atoms: C_1  and  C_2
REMARK    2  A    between atoms: C_2  and  O_3
REMARK    3  A    between atoms: O_3  and  C_4
REMARK    4  A    between atoms: C_4  and  C_6
REMARK    5  A    between atoms: C_11  and  N_12
REMARK    6  A    between atoms: C_18  and  C_19
REMARK                            x       y       z     vdW  Elec       q    Type
REMARK                         _______ _______ _______ _____ _____    ______ ____
ROOT
ATOM      1  N   UNL     1       4.243   5.157  19.856  0.00  0.00    +0.000 N 
ATOM      2  C   UNL     1       5.083   4.911  18.782  0.00  0.00    +0.000 A 
ATOM      3  N   UNL     1       4.590   4.611  17.602  0.00  0.00    +0.000 NA
ATOM      4  C   UNL     1       5.425   4.541  16.463  0.00  0.00    +0.000 A 
ATOM      5  C   UNL     1       4.835   4.393  15.213  0.00  0.00    +0.000 A 
ATOM      6  C   UNL     1       5.600   4.521  14.049  0.00  0.00    +0.000 A 
ATOM      7  C   UNL     1       6.980   4.774  14.121  0.00  0.00    +0.000 A 
ATOM      8  C   UNL     1       7.759   5.092  12.878  0.00  0.00    +0.000 C 
ATOM      9  C   UNL     1       7.606   4.818  15.373  0.00  0.00    +0.000 A 
ATOM     10  C   UNL     1       6.814   4.727  16.519  0.00  0.00    +0.000 A 
ATOM     11  N   UNL     1       7.320   4.908  17.800  0.00  0.00    +0.000 N 
ATOM     12  N   UNL     1       8.602   5.056  18.168  0.00  0.00    +0.000 NA
ATOM     13  N   UNL     1       8.561   5.237  19.487  0.00  0.00    +0.000 NA
ATOM     14  N   UNL     1       7.260   5.229  19.956  0.00  0.00    +0.000 NA
ATOM     15  C   UNL     1       6.516   5.021  18.893  0.00  0.00    +0.000 A 
ATOM     16  H   UNL     1       4.652   5.582  20.685  0.00  0.00    +0.000 HD
ENDROOT
BRANCH   1  22
ATOM     17  C   UNL     1       1.805   5.314  20.330  0.00  0.00    +0.000 A 
ATOM     18  C   UNL     1       0.590   4.639  20.571  0.00  0.00    +0.000 A 
ATOM     19  C   UNL     1       0.514   3.249  20.538  0.00  0.00    +0.000 A 
ATOM     20  C   UNL     1       1.651   2.511  20.248  0.00  0.00    +0.000 A 
ATOM     21  C   UNL     1       2.863   3.162  20.013  0.00  0.00    +0.000 A 
ATOM     22  C   UNL     1       2.981   4.567  20.071  0.00  0.00    +0.000 A 
BRANCH  17  23
ATOM     23  C   UNL     1       1.684   6.797  20.279  0.00  0.00    +0.000 C 
ATOM     24  O   UNL     1       2.213   7.464  19.398  0.00  0.00    +0.000 OA
BRANCH  23  25
ATOM     25  O   UNL     1       0.917   7.300  21.276  0.00  0.00    +0.000 OA
BRANCH  25  27
ATOM     26  C   UNL     1       0.073   9.232  22.485  0.00  0.00    +0.000 C 
ATOM     27  C   UNL     1       0.698   8.720  21.198  0.00  0.00    +0.000 C 
ENDBRANCH  25  27
ENDBRANCH  23  25
ENDBRANCH  17  23
ENDBRANCH   1  22
TORSDOF 4
ENDMDL
