MODEL 1
REMARK VINA RESULT:      -8.8      0.000      0.000
REMARK  Name = 
REMARK  6 active torsions:
REMARK  status: ('A' for Active; 'I' for Inactive)
REMARK    1  A    between atoms: C_5  and  N_6
REMARK    2  A    between atoms: N_9  and  C_10
REMARK    3  A    between atoms: C_10  and  C_11
REMARK    4  A    between atoms: N_18  and  C_19
REMARK    5  A    between atoms: C_19  and  C_20
REMARK    6  A    between atoms: N_24  and  C_25
REMARK                            x       y       z     vdW  Elec       q    Type
REMARK                         _______ _______ _______ _____ _____    ______ ____
ROOT
ATOM      1  C   UNL     1      -0.141  12.170  21.836  0.00  0.00    +0.000 A 
ATOM      2  C   UNL     1       0.177  13.537  21.833  0.00  0.00    +0.000 A 
ATOM      3  C   UNL     1      -0.611  14.450  22.540  0.00  0.00    +0.000 A 
ATOM      4  C   UNL     1      -1.755  14.013  23.204  0.00  0.00    +0.000 A 
ATOM      5  C   UNL     1      -2.100  12.659  23.200  0.00  0.00    +0.000 A 
ATOM      6  C   UNL     1      -1.262  11.741  22.553  0.00  0.00    +0.000 A 
ATOM      7  C   UNL     1      -3.413  12.183  23.749  0.00  0.00    +0.000 C 
ATOM      8  N   UNL     1      -4.601  12.728  23.059  0.00  0.00    +0.000 NA
ATOM      9  C   UNL     1      -4.840  14.103  23.567  0.00  0.00    +0.000 C 
ATOM     10  C   UNL     1      -3.774  15.171  23.239  0.00  0.00    +0.000 C 
ATOM     11  O   UNL     1      -2.509  14.939  23.875  0.00  0.00    +0.000 OA
ENDROOT
BRANCH   1  12
ATOM     12  C   UNL     1       0.665  11.170  21.034  0.00  0.00    +0.000 C 
BRANCH  12  16
ATOM     13  N   UNL     1       1.866   8.000  19.878  0.00  0.00    +0.000 N 
ATOM     14  C   UNL     1       1.613   9.105  18.939  0.00  0.00    +0.000 C 
ATOM     15  C   UNL     1       0.196   9.681  19.125  0.00  0.00    +0.000 C 
ATOM     16  N   UNL     1      -0.147  10.048  20.521  0.00  0.00    +0.000 NA
ATOM     17  C   UNL     1       0.046   8.834  21.350  0.00  0.00    +0.000 C 
ATOM     18  C   UNL     1       1.465   8.220  21.279  0.00  0.00    +0.000 C 
BRANCH  13  23
ATOM     19  F   UNL     1       3.605   3.020  18.202  0.00  0.00    +0.000 F 
ATOM     20  C   UNL     1       3.177   4.220  18.606  0.00  0.00    +0.000 A 
ATOM     21  C   UNL     1       3.378   5.329  17.799  0.00  0.00    +0.000 A 
ATOM     22  C   UNL     1       2.932   6.582  18.227  0.00  0.00    +0.000 A 
ATOM     23  C   UNL     1       2.284   6.753  19.466  0.00  0.00    +0.000 A 
ATOM     24  C   UNL     1       2.094   5.603  20.250  0.00  0.00    +0.000 A 
ATOM     25  C   UNL     1       2.539   4.347  19.830  0.00  0.00    +0.000 A 
ENDBRANCH  13  23
ENDBRANCH  12  16
ENDBRANCH   1  12
BRANCH   8  26
ATOM     26  C   UNL     1      -4.526  12.731  21.575  0.00  0.00    +0.000 C 
BRANCH  26  27
ATOM     27  C   UNL     1      -5.721  12.223  20.817  0.00  0.00    +0.000 A 
ATOM     28  C   UNL     1      -7.058  12.196  21.194  0.00  0.00    +0.000 A 
ATOM     29  C   UNL     1      -7.815  11.617  20.162  0.00  0.00    +0.000 A 
ATOM     30  C   UNL     1      -6.950  11.384  19.126  0.00  0.00    +0.000 A 
ATOM     31  N   UNL     1      -5.664  11.754  19.494  0.00  0.00    +0.000 N 
BRANCH  31  32
ATOM     32  C   UNL     1      -4.552  11.659  18.604  0.00  0.00    +0.000 A 
ATOM     33  C   UNL     1      -3.234  11.897  18.985  0.00  0.00    +0.000 A 
ATOM     34  C   UNL     1      -2.207  11.788  18.041  0.00  0.00    +0.000 A 
ATOM     35  C   UNL     1      -2.536  11.430  16.748  0.00  0.00    +0.000 A 
ATOM     36  N   UNL     1      -3.794  11.165  16.346  0.00  0.00    +0.000 NA
ATOM     37  C   UNL     1      -4.772  11.281  17.277  0.00  0.00    +0.000 A 
ENDBRANCH  31  32
ENDBRANCH  26  27
ENDBRANCH   8  26
TORSDOF 6
ENDMDL
MODEL 2
REMARK VINA RESULT:      -8.5      1.421      1.653
REMARK  Name = 
REMARK  6 active torsions:
REMARK  status: ('A' for Active; 'I' for Inactive)
REMARK    1  A    between atoms: C_5  and  N_6
REMARK    2  A    between atoms: N_9  and  C_10
REMARK    3  A    between atoms: C_10  and  C_11
REMARK    4  A    between atoms: N_18  and  C_19
REMARK    5  A    between atoms: C_19  and  C_20
REMARK    6  A    between atoms: N_24  and  C_25
REMARK                            x       y       z     vdW  Elec       q    Type
REMARK                         _______ _______ _______ _____ _____    ______ ____
ROOT
ATOM      1  C   UNL     1       0.578  12.115  20.324  0.00  0.00    +0.000 A 
ATOM      2  C   UNL     1       0.834  13.381  19.775  0.00  0.00    +0.000 A 
ATOM      3  C   UNL     1       0.072  14.488  20.159  0.00  0.00    +0.000 A 
ATOM      4  C   UNL     1      -0.988  14.328  21.049  0.00  0.00    +0.000 A 
ATOM      5  C   UNL     1      -1.271  13.071  21.590  0.00  0.00    +0.000 A 
ATOM      6  C   UNL     1      -0.454  11.982  21.258  0.00  0.00    +0.000 A 
ATOM      7  C   UNL     1      -2.508  12.830  22.406  0.00  0.00    +0.000 C 
ATOM      8  N   UNL     1      -3.776  13.065  21.682  0.00  0.00    +0.000 NA
ATOM      9  C   UNL     1      -4.029  14.527  21.655  0.00  0.00    +0.000 C 
ATOM     10  C   UNL     1      -3.044  15.398  20.845  0.00  0.00    +0.000 C 
ATOM     11  O   UNL     1      -1.719  15.434  21.393  0.00  0.00    +0.000 OA
ENDROOT
BRANCH   1  12
ATOM     12  C   UNL     1       1.353  10.891  19.883  0.00  0.00    +0.000 C 
BRANCH  12  16
ATOM     13  N   UNL     1       2.374   7.615  18.859  0.00  0.00    +0.000 N 
ATOM     14  C   UNL     1       2.276   8.718  17.889  0.00  0.00    +0.000 C 
ATOM     15  C   UNL     1       0.900   9.407  17.967  0.00  0.00    +0.000 C 
ATOM     16  N   UNL     1       0.492   9.827  19.330  0.00  0.00    +0.000 NA
ATOM     17  C   UNL     1       0.529   8.618  20.187  0.00  0.00    +0.000 C 
ATOM     18  C   UNL     1       1.896   7.893  20.224  0.00  0.00    +0.000 C 
BRANCH  13  23
ATOM     19  F   UNL     1       3.798   2.454  17.452  0.00  0.00    +0.000 F 
ATOM     20  C   UNL     1       3.452   3.703  17.783  0.00  0.00    +0.000 A 
ATOM     21  C   UNL     1       4.417   4.582  18.248  0.00  0.00    +0.000 A 
ATOM     22  C   UNL     1       4.051   5.884  18.597  0.00  0.00    +0.000 A 
ATOM     23  C   UNL     1       2.719   6.331  18.494  0.00  0.00    +0.000 A 
ATOM     24  C   UNL     1       1.773   5.411  18.012  0.00  0.00    +0.000 A 
ATOM     25  C   UNL     1       2.131   4.106  17.663  0.00  0.00    +0.000 A 
ENDBRANCH  13  23
ENDBRANCH  12  16
ENDBRANCH   1  12
BRANCH   8  26
ATOM     26  C   UNL     1      -3.834  12.504  20.307  0.00  0.00    +0.000 C 
BRANCH  26  27
ATOM     27  C   UNL     1      -5.148  11.946  19.838  0.00  0.00    +0.000 A 
ATOM     28  C   UNL     1      -6.412  12.077  20.399  0.00  0.00    +0.000 A 
ATOM     29  C   UNL     1      -7.338  11.370  19.615  0.00  0.00    +0.000 A 
ATOM     30  C   UNL     1      -6.650  10.895  18.529  0.00  0.00    +0.000 A 
ATOM     31  N   UNL     1      -5.311  11.240  18.634  0.00  0.00    +0.000 N 
BRANCH  31  32
ATOM     32  C   UNL     1      -4.352  10.910  17.630  0.00  0.00    +0.000 A 
ATOM     33  C   UNL     1      -3.320   9.993  17.818  0.00  0.00    +0.000 A 
ATOM     34  C   UNL     1      -2.420   9.737  16.777  0.00  0.00    +0.000 A 
ATOM     35  C   UNL     1      -2.593  10.400  15.579  0.00  0.00    +0.000 A 
ATOM     36  N   UNL     1      -3.592  11.273  15.347  0.00  0.00    +0.000 NA
ATOM     37  C   UNL     1      -4.449  11.507  16.371  0.00  0.00    +0.000 A 
ENDBRANCH  31  32
ENDBRANCH  26  27
ENDBRANCH   8  26
TORSDOF 6
ENDMDL
MODEL 3
REMARK VINA RESULT:      -8.3      1.174      1.273
REMARK  Name = 
REMARK  6 active torsions:
REMARK  status: ('A' for Active; 'I' for Inactive)
REMARK    1  A    between atoms: C_5  and  N_6
REMARK    2  A    between atoms: N_9  and  C_10
REMARK    3  A    between atoms: C_10  and  C_11
REMARK    4  A    between atoms: N_18  and  C_19
REMARK    5  A    between atoms: C_19  and  C_20
REMARK    6  A    between atoms: N_24  and  C_25
REMARK                            x       y       z     vdW  Elec       q    Type
REMARK                         _______ _______ _______ _____ _____    ______ ____
ROOT
ATOM      1  C   UNL     1      -0.196  12.003  21.660  0.00  0.00    +0.000 A 
ATOM      2  C   UNL     1       0.392  13.078  20.976  0.00  0.00    +0.000 A 
ATOM      3  C   UNL     1      -0.238  14.325  20.939  0.00  0.00    +0.000 A 
ATOM      4  C   UNL     1      -1.486  14.492  21.535  0.00  0.00    +0.000 A 
ATOM      5  C   UNL     1      -2.097  13.427  22.202  0.00  0.00    +0.000 A 
ATOM      6  C   UNL     1      -1.423  12.203  22.300  0.00  0.00    +0.000 A 
ATOM      7  C   UNL     1      -3.512  13.520  22.696  0.00  0.00    +0.000 C 
ATOM      8  N   UNL     1      -4.519  13.740  21.636  0.00  0.00    +0.000 NA
ATOM      9  C   UNL     1      -4.505  15.181  21.277  0.00  0.00    +0.000 C 
ATOM     10  C   UNL     1      -3.226  15.729  20.608  0.00  0.00    +0.000 C 
ATOM     11  O   UNL     1      -2.078  15.725  21.467  0.00  0.00    +0.000 OA
ENDROOT
BRANCH   1  12
ATOM     12  C   UNL     1       0.440  10.629  21.669  0.00  0.00    +0.000 C 
BRANCH  12  16
ATOM     13  N   UNL     1       1.941   7.979  19.785  0.00  0.00    +0.000 N 
ATOM     14  C   UNL     1       1.682   9.293  19.174  0.00  0.00    +0.000 C 
ATOM     15  C   UNL     1       0.218   9.727  19.385  0.00  0.00    +0.000 C 
ATOM     16  N   UNL     1      -0.252   9.664  20.790  0.00  0.00    +0.000 NA
ATOM     17  C   UNL     1      -0.037   8.275  21.260  0.00  0.00    +0.000 C 
ATOM     18  C   UNL     1       1.423   7.772  21.148  0.00  0.00    +0.000 C 
BRANCH  13  23
ATOM     19  F   UNL     1       4.146   3.765  16.952  0.00  0.00    +0.000 F 
ATOM     20  C   UNL     1       3.605   4.781  17.634  0.00  0.00    +0.000 A 
ATOM     21  C   UNL     1       3.901   6.086  17.272  0.00  0.00    +0.000 A 
ATOM     22  C   UNL     1       3.338   7.144  17.989  0.00  0.00    +0.000 A 
ATOM     23  C   UNL     1       2.475   6.922  19.079  0.00  0.00    +0.000 A 
ATOM     24  C   UNL     1       2.194   5.585  19.409  0.00  0.00    +0.000 A 
ATOM     25  C   UNL     1       2.756   4.521  18.698  0.00  0.00    +0.000 A 
ENDBRANCH  13  23
ENDBRANCH  12  16
ENDBRANCH   1  12
BRANCH   8  26
ATOM     26  C   UNL     1      -4.351  12.902  20.420  0.00  0.00    +0.000 C 
BRANCH  26  27
ATOM     27  C   UNL     1      -5.498  12.016  20.023  0.00  0.00    +0.000 A 
ATOM     28  C   UNL     1      -6.765  11.909  20.584  0.00  0.00    +0.000 A 
ATOM     29  C   UNL     1      -7.497  10.936  19.883  0.00  0.00    +0.000 A 
ATOM     30  C   UNL     1      -6.707  10.527  18.840  0.00  0.00    +0.000 A 
ATOM     31  N   UNL     1      -5.482  11.178  18.895  0.00  0.00    +0.000 N 
BRANCH  31  32
ATOM     32  C   UNL     1      -4.463  10.980  17.916  0.00  0.00    +0.000 A 
ATOM     33  C   UNL     1      -3.294  10.261  18.153  0.00  0.00    +0.000 A 
ATOM     34  C   UNL     1      -2.343  10.124  17.134  0.00  0.00    +0.000 A 
ATOM     35  C   UNL     1      -2.605  10.702  15.908  0.00  0.00    +0.000 A 
ATOM     36  N   UNL     1      -3.734  11.382  15.630  0.00  0.00    +0.000 NA
ATOM     37  C   UNL     1      -4.638  11.504  16.634  0.00  0.00    +0.000 A 
ENDBRANCH  31  32
ENDBRANCH  26  27
ENDBRANCH   8  26
TORSDOF 6
ENDMDL
MODEL 4
REMARK VINA RESULT:      -8.0      1.550      2.397
REMARK  Name = 
REMARK  6 active torsions:
REMARK  status: ('A' for Active; 'I' for Inactive)
REMARK    1  A    between atoms: C_5  and  N_6
REMARK    2  A    between atoms: N_9  and  C_10
REMARK    3  A    between atoms: C_10  and  C_11
REMARK    4  A    between atoms: N_18  and  C_19
REMARK    5  A    between atoms: C_19  and  C_20
REMARK    6  A    between atoms: N_24  and  C_25
REMARK                            x       y       z     vdW  Elec       q    Type
REMARK                         _______ _______ _______ _____ _____    ______ ____
ROOT
ATOM      1  C   UNL     1      -0.271  12.563  21.314  0.00  0.00    +0.000 A 
ATOM      2  C   UNL     1       0.288  13.777  21.742  0.00  0.00    +0.000 A 
ATOM      3  C   UNL     1      -0.340  14.536  22.734  0.00  0.00    +0.000 A 
ATOM      4  C   UNL     1      -1.559  14.118  23.262  0.00  0.00    +0.000 A 
ATOM      5  C   UNL     1      -2.141  12.923  22.832  0.00  0.00    +0.000 A 
ATOM      6  C   UNL     1      -1.467  12.131  21.893  0.00  0.00    +0.000 A 
ATOM      7  C   UNL     1      -3.532  12.536  23.245  0.00  0.00    +0.000 C 
ATOM      8  N   UNL     1      -4.585  13.478  22.813  0.00  0.00    +0.000 NA
ATOM      9  C   UNL     1      -4.585  14.632  23.746  0.00  0.00    +0.000 C 
ATOM     10  C   UNL     1      -3.336  15.541  23.743  0.00  0.00    +0.000 C 
ATOM     11  O   UNL     1      -2.150  14.894  24.223  0.00  0.00    +0.000 OA
ENDROOT
BRANCH   1  12
ATOM     12  C   UNL     1       0.361  11.751  20.203  0.00  0.00    +0.000 C 
BRANCH  12  16
ATOM     13  N   UNL     1       1.798   8.559  19.446  0.00  0.00    +0.000 N 
ATOM     14  C   UNL     1       1.391   9.482  18.374  0.00  0.00    +0.000 C 
ATOM     15  C   UNL     1      -0.063   9.955  18.568  0.00  0.00    +0.000 C 
ATOM     16  N   UNL     1      -0.365  10.498  19.914  0.00  0.00    +0.000 NA
ATOM     17  C   UNL     1      -0.013   9.446  20.898  0.00  0.00    +0.000 C 
ATOM     18  C   UNL     1       1.453   8.954  20.823  0.00  0.00    +0.000 C 
BRANCH  13  23
ATOM     19  F   UNL     1       3.920   3.553  18.410  0.00  0.00    +0.000 F 
ATOM     20  C   UNL     1       3.399   4.759  18.660  0.00  0.00    +0.000 A 
ATOM     21  C   UNL     1       3.533   5.772  17.724  0.00  0.00    +0.000 A 
ATOM     22  C   UNL     1       2.991   7.032  17.990  0.00  0.00    +0.000 A 
ATOM     23  C   UNL     1       2.312   7.305  19.194  0.00  0.00    +0.000 A 
ATOM     24  C   UNL     1       2.192   6.249  20.113  0.00  0.00    +0.000 A 
ATOM     25  C   UNL     1       2.733   4.987  19.854  0.00  0.00    +0.000 A 
ENDBRANCH  13  23
ENDBRANCH  12  16
ENDBRANCH   1  12
BRANCH   8  26
ATOM     26  C   UNL     1      -4.476  13.949  21.407  0.00  0.00    +0.000 C 
BRANCH  26  27
ATOM     27  C   UNL     1      -5.696  14.569  20.785  0.00  0.00    +0.000 A 
ATOM     28  C   UNL     1      -5.984  15.908  20.554  0.00  0.00    +0.000 A 
ATOM     29  C   UNL     1      -7.252  16.009  19.958  0.00  0.00    +0.000 A 
ATOM     30  C   UNL     1      -7.685  14.727  19.740  0.00  0.00    +0.000 A 
ATOM     31  N   UNL     1      -6.750  13.826  20.228  0.00  0.00    +0.000 N 
BRANCH  31  32
ATOM     32  C   UNL     1      -6.912  12.412  20.112  0.00  0.00    +0.000 A 
ATOM     33  C   UNL     1      -6.590  11.689  18.966  0.00  0.00    +0.000 A 
ATOM     34  C   UNL     1      -6.791  10.304  18.939  0.00  0.00    +0.000 A 
ATOM     35  C   UNL     1      -7.295   9.690  20.068  0.00  0.00    +0.000 A 
ATOM     36  N   UNL     1      -7.594  10.348  21.205  0.00  0.00    +0.000 NA
ATOM     37  C   UNL     1      -7.395  11.690  21.205  0.00  0.00    +0.000 A 
ENDBRANCH  31  32
ENDBRANCH  26  27
ENDBRANCH   8  26
TORSDOF 6
ENDMDL
MODEL 5
REMARK VINA RESULT:      -8.0      1.549      2.333
REMARK  Name = 
REMARK  6 active torsions:
REMARK  status: ('A' for Active; 'I' for Inactive)
REMARK    1  A    between atoms: C_5  and  N_6
REMARK    2  A    between atoms: N_9  and  C_10
REMARK    3  A    between atoms: C_10  and  C_11
REMARK    4  A    between atoms: N_18  and  C_19
REMARK    5  A    between atoms: C_19  and  C_20
REMARK    6  A    between atoms: N_24  and  C_25
REMARK                            x       y       z     vdW  Elec       q    Type
REMARK                         _______ _______ _______ _____ _____    ______ ____
ROOT
ATOM      1  C   UNL     1       0.262  10.587  20.097  0.00  0.00    +0.000 A 
ATOM      2  C   UNL     1       1.015  11.694  19.677  0.00  0.00    +0.000 A 
ATOM      3  C   UNL     1       0.736  12.971  20.172  0.00  0.00    +0.000 A 
ATOM      4  C   UNL     1      -0.335  13.160  21.043  0.00  0.00    +0.000 A 
ATOM      5  C   UNL     1      -1.110  12.073  21.455  0.00  0.00    +0.000 A 
ATOM      6  C   UNL     1      -0.774  10.786  21.014  0.00  0.00    +0.000 A 
ATOM      7  C   UNL     1      -2.372  12.264  22.244  0.00  0.00    +0.000 C 
ATOM      8  N   UNL     1      -3.417  13.046  21.550  0.00  0.00    +0.000 NA
ATOM      9  C   UNL     1      -3.074  14.486  21.670  0.00  0.00    +0.000 C 
ATOM     10  C   UNL     1      -1.797  14.969  20.950  0.00  0.00    +0.000 C 
ATOM     11  O   UNL     1      -0.586  14.427  21.496  0.00  0.00    +0.000 OA
ENDROOT
BRANCH   1  12
ATOM     12  C   UNL     1       0.510   9.203  19.534  0.00  0.00    +0.000 C 
BRANCH  12  16
ATOM     13  N   UNL     1       1.738   5.861  19.146  0.00  0.00    +0.000 N 
ATOM     14  C   UNL     1       1.337   6.374  20.466  0.00  0.00    +0.000 C 
ATOM     15  C   UNL     1       2.033   7.714  20.778  0.00  0.00    +0.000 C 
ATOM     16  N   UNL     1       1.902   8.742  19.717  0.00  0.00    +0.000 NA
ATOM     17  C   UNL     1       2.430   8.149  18.466  0.00  0.00    +0.000 C 
ATOM     18  C   UNL     1       1.744   6.829  18.036  0.00  0.00    +0.000 C 
BRANCH  13  23
ATOM     19  F   UNL     1       3.844   0.804  18.355  0.00  0.00    +0.000 F 
ATOM     20  C   UNL     1       3.330   2.022  18.552  0.00  0.00    +0.000 A 
ATOM     21  C   UNL     1       2.600   2.631  17.544  0.00  0.00    +0.000 A 
ATOM     22  C   UNL     1       2.068   3.905  17.752  0.00  0.00    +0.000 A 
ATOM     23  C   UNL     1       2.257   4.597  18.965  0.00  0.00    +0.000 A 
ATOM     24  C   UNL     1       2.997   3.942  19.963  0.00  0.00    +0.000 A 
ATOM     25  C   UNL     1       3.534   2.668  19.762  0.00  0.00    +0.000 A 
ENDBRANCH  13  23
ENDBRANCH  12  16
ENDBRANCH   1  12
BRANCH   8  26
ATOM     26  C   UNL     1      -3.638  12.684  20.126  0.00  0.00    +0.000 C 
BRANCH  26  27
ATOM     27  C   UNL     1      -4.947  12.038  19.767  0.00  0.00    +0.000 A 
ATOM     28  C   UNL     1      -6.190  12.167  20.374  0.00  0.00    +0.000 A 
ATOM     29  C   UNL     1      -7.119  11.361  19.696  0.00  0.00    +0.000 A 
ATOM     30  C   UNL     1      -6.459  10.822  18.623  0.00  0.00    +0.000 A 
ATOM     31  N   UNL     1      -5.132  11.226  18.636  0.00  0.00    +0.000 N 
BRANCH  31  32
ATOM     32  C   UNL     1      -4.204  10.849  17.618  0.00  0.00    +0.000 A 
ATOM     33  C   UNL     1      -3.073  10.073  17.853  0.00  0.00    +0.000 A 
ATOM     34  C   UNL     1      -2.213   9.758  16.794  0.00  0.00    +0.000 A 
ATOM     35  C   UNL     1      -2.526  10.222  15.532  0.00  0.00    +0.000 A 
ATOM     36  N   UNL     1      -3.624  10.952  15.258  0.00  0.00    +0.000 NA
ATOM     37  C   UNL     1      -4.439  11.248  16.300  0.00  0.00    +0.000 A 
ENDBRANCH  31  32
ENDBRANCH  26  27
ENDBRANCH   8  26
TORSDOF 6
ENDMDL
MODEL 6
REMARK VINA RESULT:      -8.0      1.490      3.284
REMARK  Name = 
REMARK  6 active torsions:
REMARK  status: ('A' for Active; 'I' for Inactive)
REMARK    1  A    between atoms: C_5  and  N_6
REMARK    2  A    between atoms: N_9  and  C_10
REMARK    3  A    between atoms: C_10  and  C_11
REMARK    4  A    between atoms: N_18  and  C_19
REMARK    5  A    between atoms: C_19  and  C_20
REMARK    6  A    between atoms: N_24  and  C_25
REMARK                            x       y       z     vdW  Elec       q    Type
REMARK                         _______ _______ _______ _____ _____    ______ ____
ROOT
ATOM      1  C   UNL     1       0.562  12.195  20.922  0.00  0.00    +0.000 A 
ATOM      2  C   UNL     1       1.023  13.500  21.154  0.00  0.00    +0.000 A 
ATOM      3  C   UNL     1       0.397  14.315  22.102  0.00  0.00    +0.000 A 
ATOM      4  C   UNL     1      -0.728  13.853  22.782  0.00  0.00    +0.000 A 
ATOM      5  C   UNL     1      -1.214  12.564  22.548  0.00  0.00    +0.000 A 
ATOM      6  C   UNL     1      -0.534  11.728  21.653  0.00  0.00    +0.000 A 
ATOM      7  C   UNL     1      -2.520  12.103  23.126  0.00  0.00    +0.000 C 
ATOM      8  N   UNL     1      -3.697  12.880  22.681  0.00  0.00    +0.000 NA
ATOM      9  C   UNL     1      -3.745  14.137  23.469  0.00  0.00    +0.000 C 
ATOM     10  C   UNL     1      -2.602  15.152  23.249  0.00  0.00    +0.000 C 
ATOM     11  O   UNL     1      -1.321  14.685  23.694  0.00  0.00    +0.000 OA
ENDROOT
BRANCH   1  12
ATOM     12  C   UNL     1       1.189  11.313  19.863  0.00  0.00    +0.000 C 
BRANCH  12  16
ATOM     13  N   UNL     1       2.046   7.873  19.359  0.00  0.00    +0.000 N 
ATOM     14  C   UNL     1       2.079   8.834  18.245  0.00  0.00    +0.000 C 
ATOM     15  C   UNL     1       0.750   9.607  18.137  0.00  0.00    +0.000 C 
ATOM     16  N   UNL     1       0.292  10.234  19.401  0.00  0.00    +0.000 NA
ATOM     17  C   UNL     1       0.198   9.156  20.414  0.00  0.00    +0.000 C 
ATOM     18  C   UNL     1       1.509   8.364  20.640  0.00  0.00    +0.000 C 
BRANCH  13  23
ATOM     19  F   UNL     1       3.108   2.476  18.732  0.00  0.00    +0.000 F 
ATOM     20  C   UNL     1       2.860   3.782  18.883  0.00  0.00    +0.000 A 
ATOM     21  C   UNL     1       2.420   4.261  20.107  0.00  0.00    +0.000 A 
ATOM     22  C   UNL     1       2.159   5.624  20.259  0.00  0.00    +0.000 A 
ATOM     23  C   UNL     1       2.325   6.532  19.195  0.00  0.00    +0.000 A 
ATOM     24  C   UNL     1       2.778   6.007  17.973  0.00  0.00    +0.000 A 
ATOM     25  C   UNL     1       3.041   4.645  17.813  0.00  0.00    +0.000 A 
ENDBRANCH  13  23
ENDBRANCH  12  16
ENDBRANCH   1  12
BRANCH   8  26
ATOM     26  C   UNL     1      -3.745  13.179  21.226  0.00  0.00    +0.000 C 
BRANCH  26  27
ATOM     27  C   UNL     1      -4.891  12.610  20.436  0.00  0.00    +0.000 A 
ATOM     28  C   UNL     1      -4.869  11.857  19.269  0.00  0.00    +0.000 A 
ATOM     29  C   UNL     1      -6.189  11.559  18.891  0.00  0.00    +0.000 A 
ATOM     30  C   UNL     1      -7.000  12.048  19.880  0.00  0.00    +0.000 A 
ATOM     31  N   UNL     1      -6.233  12.688  20.843  0.00  0.00    +0.000 N 
BRANCH  31  32
ATOM     32  C   UNL     1      -6.801  13.269  22.017  0.00  0.00    +0.000 A 
ATOM     33  C   UNL     1      -6.974  14.639  22.195  0.00  0.00    +0.000 A 
ATOM     34  C   UNL     1      -7.533  15.121  23.384  0.00  0.00    +0.000 A 
ATOM     35  C   UNL     1      -7.914  14.210  24.349  0.00  0.00    +0.000 A 
ATOM     36  N   UNL     1      -7.790  12.876  24.205  0.00  0.00    +0.000 NA
ATOM     37  C   UNL     1      -7.241  12.434  23.046  0.00  0.00    +0.000 A 
ENDBRANCH  31  32
ENDBRANCH  26  27
ENDBRANCH   8  26
TORSDOF 6
ENDMDL
MODEL 7
REMARK VINA RESULT:      -7.9      1.827      2.398
REMARK  Name = 
REMARK  6 active torsions:
REMARK  status: ('A' for Active; 'I' for Inactive)
REMARK    1  A    between atoms: C_5  and  N_6
REMARK    2  A    between atoms: N_9  and  C_10
REMARK    3  A    between atoms: C_10  and  C_11
REMARK    4  A    between atoms: N_18  and  C_19
REMARK    5  A    between atoms: C_19  and  C_20
REMARK    6  A    between atoms: N_24  and  C_25
REMARK                            x       y       z     vdW  Elec       q    Type
REMARK                         _______ _______ _______ _____ _____    ______ ____
ROOT
ATOM      1  C   UNL     1       1.444  12.396  19.409  0.00  0.00    +0.000 A 
ATOM      2  C   UNL     1       1.658  13.565  18.663  0.00  0.00    +0.000 A 
ATOM      3  C   UNL     1       1.077  14.774  19.057  0.00  0.00    +0.000 A 
ATOM      4  C   UNL     1       0.232  14.811  20.164  0.00  0.00    +0.000 A 
ATOM      5  C   UNL     1      -0.010  13.653  20.906  0.00  0.00    +0.000 A 
ATOM      6  C   UNL     1       0.637  12.462  20.549  0.00  0.00    +0.000 A 
ATOM      7  C   UNL     1      -1.049  13.618  21.989  0.00  0.00    +0.000 C 
ATOM      8  N   UNL     1      -2.427  13.891  21.526  0.00  0.00    +0.000 NA
ATOM      9  C   UNL     1      -2.579  15.359  21.369  0.00  0.00    +0.000 C 
ATOM     10  C   UNL     1      -1.741  16.041  20.266  0.00  0.00    +0.000 C 
ATOM     11  O   UNL     1      -0.328  16.012  20.512  0.00  0.00    +0.000 OA
ENDROOT
BRANCH   1  12
ATOM     12  C   UNL     1       2.017  11.064  18.972  0.00  0.00    +0.000 C 
BRANCH  12  16
ATOM     13  N   UNL     1       2.294   7.525  19.446  0.00  0.00    +0.000 N 
ATOM     14  C   UNL     1       2.574   8.141  18.138  0.00  0.00    +0.000 C 
ATOM     15  C   UNL     1       1.412   9.048  17.689  0.00  0.00    +0.000 C 
ATOM     16  N   UNL     1       0.981  10.049  18.695  0.00  0.00    +0.000 NA
ATOM     17  C   UNL     1       0.628   9.305  19.928  0.00  0.00    +0.000 C 
ATOM     18  C   UNL     1       1.761   8.414  20.493  0.00  0.00    +0.000 C 
BRANCH  13  23
ATOM     19  F   UNL     1       2.571   2.061  20.286  0.00  0.00    +0.000 F 
ATOM     20  C   UNL     1       2.496   3.380  20.079  0.00  0.00    +0.000 A 
ATOM     21  C   UNL     1       3.372   3.987  19.193  0.00  0.00    +0.000 A 
ATOM     22  C   UNL     1       3.293   5.366  18.983  0.00  0.00    +0.000 A 
ATOM     23  C   UNL     1       2.346   6.163  19.654  0.00  0.00    +0.000 A 
ATOM     24  C   UNL     1       1.473   5.509  20.538  0.00  0.00    +0.000 A 
ATOM     25  C   UNL     1       1.546   4.130  20.755  0.00  0.00    +0.000 A 
ENDBRANCH  13  23
ENDBRANCH  12  16
ENDBRANCH   1  12
BRANCH   8  26
ATOM     26  C   UNL     1      -2.825  13.193  20.276  0.00  0.00    +0.000 C 
BRANCH  26  27
ATOM     27  C   UNL     1      -4.229  12.662  20.194  0.00  0.00    +0.000 A 
ATOM     28  C   UNL     1      -5.323  12.931  21.007  0.00  0.00    +0.000 A 
ATOM     29  C   UNL     1      -6.427  12.193  20.550  0.00  0.00    +0.000 A 
ATOM     30  C   UNL     1      -6.026  11.556  19.406  0.00  0.00    +0.000 A 
ATOM     31  N   UNL     1      -4.689  11.832  19.158  0.00  0.00    +0.000 N 
BRANCH  31  32
ATOM     32  C   UNL     1      -4.001  11.331  18.011  0.00  0.00    +0.000 A 
ATOM     33  C   UNL     1      -4.408  11.568  16.701  0.00  0.00    +0.000 A 
ATOM     34  C   UNL     1      -3.676  11.030  15.637  0.00  0.00    +0.000 A 
ATOM     35  C   UNL     1      -2.551  10.283  15.924  0.00  0.00    +0.000 A 
ATOM     36  N   UNL     1      -2.108  10.053  17.175  0.00  0.00    +0.000 NA
ATOM     37  C   UNL     1      -2.837  10.581  18.189  0.00  0.00    +0.000 A 
ENDBRANCH  31  32
ENDBRANCH  26  27
ENDBRANCH   8  26
TORSDOF 6
ENDMDL
MODEL 8
REMARK VINA RESULT:      -7.9      5.271     11.286
REMARK  Name = 
REMARK  6 active torsions:
REMARK  status: ('A' for Active; 'I' for Inactive)
REMARK    1  A    between atoms: C_5  and  N_6
REMARK    2  A    between atoms: N_9  and  C_10
REMARK    3  A    between atoms: C_10  and  C_11
REMARK    4  A    between atoms: N_18  and  C_19
REMARK    5  A    between atoms: C_19  and  C_20
REMARK    6  A    between atoms: N_24  and  C_25
REMARK                            x       y       z     vdW  Elec       q    Type
REMARK                         _______ _______ _______ _____ _____    ______ ____
ROOT
ATOM      1  C   UNL     1       2.131   6.446  19.982  0.00  0.00    +0.000 A 
ATOM      2  C   UNL     1       0.932   5.717  19.972  0.00  0.00    +0.000 A 
ATOM      3  C   UNL     1       0.951   4.322  19.906  0.00  0.00    +0.000 A 
ATOM      4  C   UNL     1       2.164   3.647  19.788  0.00  0.00    +0.000 A 
ATOM      5  C   UNL     1       3.367   4.357  19.774  0.00  0.00    +0.000 A 
ATOM      6  C   UNL     1       3.342   5.751  19.919  0.00  0.00    +0.000 A 
ATOM      7  C   UNL     1       4.673   3.681  19.470  0.00  0.00    +0.000 C 
ATOM      8  N   UNL     1       4.747   3.068  18.127  0.00  0.00    +0.000 NA
ATOM      9  C   UNL     1       4.036   1.766  18.173  0.00  0.00    +0.000 C 
ATOM     10  C   UNL     1       2.511   1.803  18.411  0.00  0.00    +0.000 C 
ATOM     11  O   UNL     1       2.141   2.280  19.713  0.00  0.00    +0.000 OA
ENDROOT
BRANCH   1  12
ATOM     12  C   UNL     1       2.135   7.961  19.999  0.00  0.00    +0.000 C 
BRANCH  12  16
ATOM     13  N   UNL     1       1.427  11.440  19.534  0.00  0.00    +0.000 N 
ATOM     14  C   UNL     1       1.060  10.751  20.782  0.00  0.00    +0.000 C 
ATOM     15  C   UNL     1       0.250   9.471  20.494  0.00  0.00    +0.000 C 
ATOM     16  N   UNL     1       0.872   8.551  19.511  0.00  0.00    +0.000 NA
ATOM     17  C   UNL     1       1.098   9.326  18.269  0.00  0.00    +0.000 C 
ATOM     18  C   UNL     1       1.960  10.600  18.448  0.00  0.00    +0.000 C 
BRANCH  13  23
ATOM     19  F   UNL     1       0.196  16.765  18.655  0.00  0.00    +0.000 F 
ATOM     20  C   UNL     1       0.495  15.477  18.859  0.00  0.00    +0.000 A 
ATOM     21  C   UNL     1      -0.500  14.595  19.249  0.00  0.00    +0.000 A 
ATOM     22  C   UNL     1      -0.183  13.252  19.465  0.00  0.00    +0.000 A 
ATOM     23  C   UNL     1       1.130  12.766  19.301  0.00  0.00    +0.000 A 
ATOM     24  C   UNL     1       2.106  13.691  18.898  0.00  0.00    +0.000 A 
ATOM     25  C   UNL     1       1.797  15.037  18.682  0.00  0.00    +0.000 A 
ENDBRANCH  13  23
ENDBRANCH  12  16
ENDBRANCH   1  12
BRANCH   8  26
ATOM     26  C   UNL     1       4.222   3.906  17.018  0.00  0.00    +0.000 C 
BRANCH  26  27
ATOM     27  C   UNL     1       5.103   4.102  15.816  0.00  0.00    +0.000 A 
ATOM     28  C   UNL     1       4.880   3.747  14.491  0.00  0.00    +0.000 A 
ATOM     29  C   UNL     1       5.993   4.122  13.722  0.00  0.00    +0.000 A 
ATOM     30  C   UNL     1       6.844   4.788  14.563  0.00  0.00    +0.000 A 
ATOM     31  N   UNL     1       6.322   4.800  15.848  0.00  0.00    +0.000 N 
BRANCH  31  32
ATOM     32  C   UNL     1       6.973   5.455  16.937  0.00  0.00    +0.000 A 
ATOM     33  C   UNL     1       7.061   6.838  17.065  0.00  0.00    +0.000 A 
ATOM     34  C   UNL     1       7.727   7.394  18.164  0.00  0.00    +0.000 A 
ATOM     35  C   UNL     1       8.272   6.541  19.103  0.00  0.00    +0.000 A 
ATOM     36  N   UNL     1       8.186   5.199  19.030  0.00  0.00    +0.000 NA
ATOM     37  C   UNL     1       7.539   4.685  17.955  0.00  0.00    +0.000 A 
ENDBRANCH  31  32
ENDBRANCH  26  27
ENDBRANCH   8  26
TORSDOF 6
ENDMDL
MODEL 9
REMARK VINA RESULT:      -7.9      1.287      1.563
REMARK  Name = 
REMARK  6 active torsions:
REMARK  status: ('A' for Active; 'I' for Inactive)
REMARK    1  A    between atoms: C_5  and  N_6
REMARK    2  A    between atoms: N_9  and  C_10
REMARK    3  A    between atoms: C_10  and  C_11
REMARK    4  A    between atoms: N_18  and  C_19
REMARK    5  A    between atoms: C_19  and  C_20
REMARK    6  A    between atoms: N_24  and  C_25
REMARK                            x       y       z     vdW  Elec       q    Type
REMARK                         _______ _______ _______ _____ _____    ______ ____
ROOT
ATOM      1  C   UNL     1       0.420  12.451  20.235  0.00  0.00    +0.000 A 
ATOM      2  C   UNL     1       0.193  13.403  19.229  0.00  0.00    +0.000 A 
ATOM      3  C   UNL     1      -0.553  14.554  19.497  0.00  0.00    +0.000 A 
ATOM      4  C   UNL     1      -1.126  14.735  20.754  0.00  0.00    +0.000 A 
ATOM      5  C   UNL     1      -0.929  13.787  21.761  0.00  0.00    +0.000 A 
ATOM      6  C   UNL     1      -0.117  12.674  21.507  0.00  0.00    +0.000 A 
ATOM      7  C   UNL     1      -1.676  13.860  23.062  0.00  0.00    +0.000 C 
ATOM      8  N   UNL     1      -3.146  13.761  22.932  0.00  0.00    +0.000 NA
ATOM      9  C   UNL     1      -3.663  15.088  22.513  0.00  0.00    +0.000 C 
ATOM     10  C   UNL     1      -3.261  15.590  21.109  0.00  0.00    +0.000 C 
ATOM     11  O   UNL     1      -1.861  15.869  20.974  0.00  0.00    +0.000 OA
ENDROOT
BRANCH   1  12
ATOM     12  C   UNL     1       1.178  11.171  19.955  0.00  0.00    +0.000 C 
BRANCH  12  16
ATOM     13  N   UNL     1       2.066   7.712  19.687  0.00  0.00    +0.000 N 
ATOM     14  C   UNL     1       2.143   8.608  18.522  0.00  0.00    +0.000 C 
ATOM     15  C   UNL     1       0.817   9.366  18.314  0.00  0.00    +0.000 C 
ATOM     16  N   UNL     1       0.305  10.062  19.519  0.00  0.00    +0.000 NA
ATOM     17  C   UNL     1       0.172   9.044  20.588  0.00  0.00    +0.000 C 
ATOM     18  C   UNL     1       1.474   8.273  20.914  0.00  0.00    +0.000 C 
BRANCH  13  23
ATOM     19  F   UNL     1       3.293   2.324  19.364  0.00  0.00    +0.000 F 
ATOM     20  C   UNL     1       2.988   3.624  19.441  0.00  0.00    +0.000 A 
ATOM     21  C   UNL     1       3.367   4.480  18.419  0.00  0.00    +0.000 A 
ATOM     22  C   UNL     1       3.050   5.837  18.506  0.00  0.00    +0.000 A 
ATOM     23  C   UNL     1       2.356   6.366  19.612  0.00  0.00    +0.000 A 
ATOM     24  C   UNL     1       1.985   5.463  20.623  0.00  0.00    +0.000 A 
ATOM     25  C   UNL     1       2.300   4.105  20.544  0.00  0.00    +0.000 A 
ENDBRANCH  13  23
ENDBRANCH  12  16
ENDBRANCH   1  12
BRANCH   8  26
ATOM     26  C   UNL     1      -3.630  12.702  22.009  0.00  0.00    +0.000 C 
BRANCH  26  27
ATOM     27  C   UNL     1      -5.073  12.751  21.591  0.00  0.00    +0.000 A 
ATOM     28  C   UNL     1      -6.186  13.169  22.310  0.00  0.00    +0.000 A 
ATOM     29  C   UNL     1      -7.331  13.024  21.510  0.00  0.00    +0.000 A 
ATOM     30  C   UNL     1      -6.898  12.611  20.278  0.00  0.00    +0.000 A 
ATOM     31  N   UNL     1      -5.521  12.445  20.295  0.00  0.00    +0.000 N 
BRANCH  31  32
ATOM     32  C   UNL     1      -4.780  12.052  19.139  0.00  0.00    +0.000 A 
ATOM     33  C   UNL     1      -3.390  11.973  19.103  0.00  0.00    +0.000 A 
ATOM     34  C   UNL     1      -2.747  11.586  17.921  0.00  0.00    +0.000 A 
ATOM     35  C   UNL     1      -3.521  11.279  16.820  0.00  0.00    +0.000 A 
ATOM     36  N   UNL     1      -4.868  11.317  16.822  0.00  0.00    +0.000 NA
ATOM     37  C   UNL     1      -5.467  11.699  17.977  0.00  0.00    +0.000 A 
ENDBRANCH  31  32
ENDBRANCH  26  27
ENDBRANCH   8  26
TORSDOF 6
ENDMDL
