MODEL 1
REMARK VINA RESULT:      -8.1      0.000      0.000
REMARK  Name = 
REMARK  9 active torsions:
REMARK  status: ('A' for Active; 'I' for Inactive)
REMARK    1  A    between atoms: C_1  and  C_2
REMARK    2  A    between atoms: C_2  and  C_3
REMARK    3  A    between atoms: C_5  and  C_6
REMARK    4  A    between atoms: C_11  and  C_12
REMARK    5  A    between atoms: C_12  and  C_13
REMARK    6  A    between atoms: C_16  and  C_17
REMARK    7  A    between atoms: C_25  and  O_26
REMARK    8  A    between atoms: C_27  and  O_28
REMARK    9  A    between atoms: C_29  and  O_30
REMARK                            x       y       z     vdW  Elec       q    Type
REMARK                         _______ _______ _______ _____ _____    ______ ____
ROOT
ATOM      1  C   UNL     1       2.079   6.982  19.015  0.00  0.00    +0.000 A 
ATOM      2  C   UNL     1       1.972   6.905  20.404  0.00  0.00    +0.000 A 
ATOM      3  C   UNL     1       1.447   7.978  21.123  0.00  0.00    +0.000 A 
ATOM      4  C   UNL     1       1.045   9.154  20.467  0.00  0.00    +0.000 A 
ATOM      5 CL   UNL     1       0.368  10.412  21.429  0.00  0.00    +0.000 Cl
ATOM      6  C   UNL     1       1.195   9.275  19.075  0.00  0.00    +0.000 A 
ATOM      7  C   UNL     1       1.680   8.169  18.372  0.00  0.00    +0.000 A 
ENDROOT
BRANCH   1  10
ATOM      8  C   UNL     1       2.260   3.417  18.128  0.00  0.00    +0.000 C 
ATOM      9  O   UNL     1       1.895   4.669  18.692  0.00  0.00    +0.000 OA
ATOM     10  C   UNL     1       2.585   5.814  18.190  0.00  0.00    +0.000 C 
ATOM     11  C   UNL     1       4.114   5.668  18.339  0.00  0.00    +0.000 C 
ATOM     12  C   UNL     1       4.567   4.341  17.710  0.00  0.00    +0.000 C 
ATOM     13  C   UNL     1       3.766   3.158  18.280  0.00  0.00    +0.000 C 
BRANCH   8  15
ATOM     14  C   UNL     1       1.131   2.740  20.307  0.00  0.00    +0.000 C 
ATOM     15  C   UNL     1       1.441   2.346  18.867  0.00  0.00    +0.000 C 
ENDBRANCH   8  15
BRANCH  11  16
ATOM     16  O   UNL     1       4.816   6.764  17.737  0.00  0.00    +0.000 OA
ATOM     17  H   UNL     1       5.165   6.482  16.873  0.00  0.00    +0.000 HD
ENDBRANCH  11  16
BRANCH  12  18
ATOM     18  O   UNL     1       5.970   4.123  17.908  0.00  0.00    +0.000 OA
ATOM     19  H   UNL     1       6.456   4.910  17.584  0.00  0.00    +0.000 HD
ENDBRANCH  12  18
BRANCH  13  20
ATOM     20  O   UNL     1       4.107   1.931  17.627  0.00  0.00    +0.000 OA
ATOM     21  H   UNL     1       4.774   1.469  18.163  0.00  0.00    +0.000 HD
ENDBRANCH  13  20
ENDBRANCH   1  10
BRANCH   6  22
ATOM     22  C   UNL     1       0.872  10.528  18.294  0.00  0.00    +0.000 C 
BRANCH  22  23
ATOM     23  C   UNL     1      -0.594  10.769  18.097  0.00  0.00    +0.000 A 
ATOM     24  C   UNL     1      -1.244  11.849  18.657  0.00  0.00    +0.000 A 
ATOM     25  N   UNL     1      -2.569  12.060  18.561  0.00  0.00    +0.000 NA
ATOM     26  C   UNL     1      -3.265  11.138  17.872  0.00  0.00    +0.000 A 
ATOM     27  N   UNL     1      -2.735  10.071  17.246  0.00  0.00    +0.000 NA
ATOM     28  C   UNL     1      -1.405   9.914  17.375  0.00  0.00    +0.000 A 
BRANCH  26  29
ATOM     29  C   UNL     1      -4.705  11.266  17.891  0.00  0.00    +0.000 A 
ATOM     30  C   UNL     1      -5.546  12.270  17.330  0.00  0.00    +0.000 A 
ATOM     31  C   UNL     1      -6.832  11.948  17.695  0.00  0.00    +0.000 A 
ATOM     32  O   UNL     1      -6.845  10.811  18.437  0.00  0.00    +0.000 OA
ATOM     33  C   UNL     1      -5.554  10.404  18.553  0.00  0.00    +0.000 A 
ENDBRANCH  26  29
ENDBRANCH  22  23
ENDBRANCH   6  22
TORSDOF 8
ENDMDL
MODEL 2
REMARK VINA RESULT:      -8.0      4.727      9.458
REMARK  Name = 
REMARK  9 active torsions:
REMARK  status: ('A' for Active; 'I' for Inactive)
REMARK    1  A    between atoms: C_1  and  C_2
REMARK    2  A    between atoms: C_2  and  C_3
REMARK    3  A    between atoms: C_5  and  C_6
REMARK    4  A    between atoms: C_11  and  C_12
REMARK    5  A    between atoms: C_12  and  C_13
REMARK    6  A    between atoms: C_16  and  C_17
REMARK    7  A    between atoms: C_25  and  O_26
REMARK    8  A    between atoms: C_27  and  O_28
REMARK    9  A    between atoms: C_29  and  O_30
REMARK                            x       y       z     vdW  Elec       q    Type
REMARK                         _______ _______ _______ _____ _____    ______ ____
ROOT
ATOM      1  C   UNL     1       2.397   6.324  19.934  0.00  0.00    +0.000 A 
ATOM      2  C   UNL     1       1.428   5.342  20.147  0.00  0.00    +0.000 A 
ATOM      3  C   UNL     1       1.785   3.995  20.120  0.00  0.00    +0.000 A 
ATOM      4  C   UNL     1       3.109   3.606  19.854  0.00  0.00    +0.000 A 
ATOM      5 CL   UNL     1       3.469   1.923  19.883  0.00  0.00    +0.000 Cl
ATOM      6  C   UNL     1       4.090   4.576  19.582  0.00  0.00    +0.000 A 
ATOM      7  C   UNL     1       3.718   5.921  19.661  0.00  0.00    +0.000 A 
ENDROOT
BRANCH   1  10
ATOM      8  C   UNL     1       0.499   9.198  21.225  0.00  0.00    +0.000 C 
ATOM      9  O   UNL     1       1.046   7.904  21.015  0.00  0.00    +0.000 OA
ATOM     10  C   UNL     1       2.063   7.801  20.018  0.00  0.00    +0.000 C 
ATOM     11  C   UNL     1       1.577   8.325  18.651  0.00  0.00    +0.000 C 
ATOM     12  C   UNL     1       1.006   9.743  18.817  0.00  0.00    +0.000 C 
ATOM     13  C   UNL     1      -0.064   9.781  19.921  0.00  0.00    +0.000 C 
BRANCH   8  15
ATOM     14  C   UNL     1      -0.451  10.023  23.438  0.00  0.00    +0.000 C 
ATOM     15  C   UNL     1      -0.608   9.042  22.281  0.00  0.00    +0.000 C 
ENDBRANCH   8  15
BRANCH  11  16
ATOM     16  O   UNL     1       2.628   8.327  17.675  0.00  0.00    +0.000 OA
ATOM     17  H   UNL     1       3.261   7.619  17.888  0.00  0.00    +0.000 HD
ENDBRANCH  11  16
BRANCH  12  18
ATOM     18  O   UNL     1       0.459  10.231  17.586  0.00  0.00    +0.000 OA
ATOM     19  H   UNL     1       0.888  11.086  17.371  0.00  0.00    +0.000 HD
ENDBRANCH  12  18
BRANCH  13  20
ATOM     20  O   UNL     1      -0.527  11.115  20.156  0.00  0.00    +0.000 OA
ATOM     21  H   UNL     1       0.110  11.567  20.736  0.00  0.00    +0.000 HD
ENDBRANCH  13  20
ENDBRANCH   1  10
BRANCH   6  22
ATOM     22  C   UNL     1       5.517   4.255  19.202  0.00  0.00    +0.000 C 
BRANCH  22  23
ATOM     23  C   UNL     1       5.803   4.370  17.736  0.00  0.00    +0.000 A 
ATOM     24  C   UNL     1       4.836   4.148  16.777  0.00  0.00    +0.000 A 
ATOM     25  N   UNL     1       5.073   4.173  15.453  0.00  0.00    +0.000 NA
ATOM     26  C   UNL     1       6.340   4.431  15.084  0.00  0.00    +0.000 A 
ATOM     27  N   UNL     1       7.355   4.706  15.925  0.00  0.00    +0.000 NA
ATOM     28  C   UNL     1       7.057   4.669  17.237  0.00  0.00    +0.000 A 
BRANCH  26  29
ATOM     29  C   UNL     1       6.642   4.309  13.675  0.00  0.00    +0.000 A 
ATOM     30  C   UNL     1       6.132   3.404  12.701  0.00  0.00    +0.000 A 
ATOM     31  C   UNL     1       6.802   3.675  11.531  0.00  0.00    +0.000 A 
ATOM     32  O   UNL     1       7.686   4.689  11.713  0.00  0.00    +0.000 OA
ATOM     33  C   UNL     1       7.585   5.068  13.014  0.00  0.00    +0.000 A 
ENDBRANCH  26  29
ENDBRANCH  22  23
ENDBRANCH   6  22
TORSDOF 8
ENDMDL
MODEL 3
REMARK VINA RESULT:      -7.7      0.961      1.340
REMARK  Name = 
REMARK  9 active torsions:
REMARK  status: ('A' for Active; 'I' for Inactive)
REMARK    1  A    between atoms: C_1  and  C_2
REMARK    2  A    between atoms: C_2  and  C_3
REMARK    3  A    between atoms: C_5  and  C_6
REMARK    4  A    between atoms: C_11  and  C_12
REMARK    5  A    between atoms: C_12  and  C_13
REMARK    6  A    between atoms: C_16  and  C_17
REMARK    7  A    between atoms: C_25  and  O_26
REMARK    8  A    between atoms: C_27  and  O_28
REMARK    9  A    between atoms: C_29  and  O_30
REMARK                            x       y       z     vdW  Elec       q    Type
REMARK                         _______ _______ _______ _____ _____    ______ ____
ROOT
ATOM      1  C   UNL     1       2.485   7.014  18.649  0.00  0.00    +0.000 A 
ATOM      2  C   UNL     1       2.294   6.629  19.977  0.00  0.00    +0.000 A 
ATOM      3  C   UNL     1       1.646   7.487  20.864  0.00  0.00    +0.000 A 
ATOM      4  C   UNL     1       1.202   8.754  20.445  0.00  0.00    +0.000 A 
ATOM      5 CL   UNL     1       0.373   9.730  21.595  0.00  0.00    +0.000 Cl
ATOM      6  C   UNL     1       1.433   9.184  19.126  0.00  0.00    +0.000 A 
ATOM      7  C   UNL     1       2.043   8.288  18.244  0.00  0.00    +0.000 A 
ENDROOT
BRANCH   1  10
ATOM      8  C   UNL     1       3.113   3.715  17.148  0.00  0.00    +0.000 C 
ATOM      9  O   UNL     1       2.596   4.790  17.919  0.00  0.00    +0.000 OA
ATOM     10  C   UNL     1       3.128   6.084  17.637  0.00  0.00    +0.000 C 
ATOM     11  C   UNL     1       4.664   6.112  17.776  0.00  0.00    +0.000 C 
ATOM     12  C   UNL     1       5.277   4.986  16.928  0.00  0.00    +0.000 C 
ATOM     13  C   UNL     1       4.641   3.629  17.270  0.00  0.00    +0.000 C 
BRANCH   8  15
ATOM     14  C   UNL     1       1.234   2.727  18.554  0.00  0.00    +0.000 C 
ATOM     15  C   UNL     1       2.446   2.433  17.676  0.00  0.00    +0.000 C 
ENDBRANCH   8  15
BRANCH  11  16
ATOM     16  O   UNL     1       5.213   7.379  17.385  0.00  0.00    +0.000 OA
ATOM     17  H   UNL     1       4.917   8.061  18.014  0.00  0.00    +0.000 HD
ENDBRANCH  11  16
BRANCH  12  18
ATOM     18  O   UNL     1       6.699   4.919  17.100  0.00  0.00    +0.000 OA
ATOM     19  H   UNL     1       6.919   5.246  17.998  0.00  0.00    +0.000 HD
ENDBRANCH  12  18
BRANCH  13  20
ATOM     20  O   UNL     1       5.130   2.591  16.414  0.00  0.00    +0.000 OA
ATOM     21  H   UNL     1       4.370   2.155  15.990  0.00  0.00    +0.000 HD
ENDBRANCH  13  20
ENDBRANCH   1  10
BRANCH   6  22
ATOM     22  C   UNL     1       1.071  10.556  18.608  0.00  0.00    +0.000 C 
BRANCH  22  23
ATOM     23  C   UNL     1      -0.401  10.838  18.590  0.00  0.00    +0.000 A 
ATOM     24  C   UNL     1      -1.291  10.060  17.879  0.00  0.00    +0.000 A 
ATOM     25  N   UNL     1      -2.606  10.323  17.782  0.00  0.00    +0.000 NA
ATOM     26  C   UNL     1      -3.039  11.420  18.429  0.00  0.00    +0.000 A 
ATOM     27  N   UNL     1      -2.274  12.227  19.188  0.00  0.00    +0.000 NA
ATOM     28  C   UNL     1      -0.967  11.912  19.249  0.00  0.00    +0.000 A 
BRANCH  26  29
ATOM     29  C   UNL     1      -4.416  11.802  18.208  0.00  0.00    +0.000 A 
ATOM     30  C   UNL     1      -5.164  11.887  16.999  0.00  0.00    +0.000 A 
ATOM     31  C   UNL     1      -6.407  12.364  17.344  0.00  0.00    +0.000 A 
ATOM     32  O   UNL     1      -6.481  12.573  18.684  0.00  0.00    +0.000 OA
ATOM     33  C   UNL     1      -5.272  12.231  19.201  0.00  0.00    +0.000 A 
ENDBRANCH  26  29
ENDBRANCH  22  23
ENDBRANCH   6  22
TORSDOF 8
ENDMDL
MODEL 4
REMARK VINA RESULT:      -7.5      4.942      9.161
REMARK  Name = 
REMARK  9 active torsions:
REMARK  status: ('A' for Active; 'I' for Inactive)
REMARK    1  A    between atoms: C_1  and  C_2
REMARK    2  A    between atoms: C_2  and  C_3
REMARK    3  A    between atoms: C_5  and  C_6
REMARK    4  A    between atoms: C_11  and  C_12
REMARK    5  A    between atoms: C_12  and  C_13
REMARK    6  A    between atoms: C_16  and  C_17
REMARK    7  A    between atoms: C_25  and  O_26
REMARK    8  A    between atoms: C_27  and  O_28
REMARK    9  A    between atoms: C_29  and  O_30
REMARK                            x       y       z     vdW  Elec       q    Type
REMARK                         _______ _______ _______ _____ _____    ______ ____
ROOT
ATOM      1  C   UNL     1       2.593   6.441  19.349  0.00  0.00    +0.000 A 
ATOM      2  C   UNL     1       1.743   5.367  19.617  0.00  0.00    +0.000 A 
ATOM      3  C   UNL     1       2.181   4.062  19.402  0.00  0.00    +0.000 A 
ATOM      4  C   UNL     1       3.466   3.809  18.890  0.00  0.00    +0.000 A 
ATOM      5 CL   UNL     1       3.939   2.165  18.696  0.00  0.00    +0.000 Cl
ATOM      6  C   UNL     1       4.318   4.878  18.561  0.00  0.00    +0.000 A 
ATOM      7  C   UNL     1       3.874   6.175  18.829  0.00  0.00    +0.000 A 
ENDROOT
BRANCH   1  10
ATOM      8  C   UNL     1       0.655   9.015  21.123  0.00  0.00    +0.000 C 
ATOM      9  O   UNL     1       1.258   7.795  20.719  0.00  0.00    +0.000 OA
ATOM     10  C   UNL     1       2.178   7.873  19.630  0.00  0.00    +0.000 C 
ATOM     11  C   UNL     1       1.529   8.504  18.380  0.00  0.00    +0.000 C 
ATOM     12  C   UNL     1       0.890   9.850  18.757  0.00  0.00    +0.000 C 
ATOM     13  C   UNL     1      -0.068   9.692  19.949  0.00  0.00    +0.000 C 
BRANCH   8  15
ATOM     14  C   UNL     1      -0.285   9.672  23.396  0.00  0.00    +0.000 C 
ATOM     15  C   UNL     1      -0.332   8.667  22.250  0.00  0.00    +0.000 C 
ENDBRANCH   8  15
BRANCH  11  16
ATOM     16  O   UNL     1       2.478   8.687  17.320  0.00  0.00    +0.000 OA
ATOM     17  H   UNL     1       3.327   8.290  17.582  0.00  0.00    +0.000 HD
ENDBRANCH  11  16
BRANCH  12  18
ATOM     18  O   UNL     1       0.196  10.427  17.643  0.00  0.00    +0.000 OA
ATOM     19  H   UNL     1      -0.718  10.644  17.924  0.00  0.00    +0.000 HD
ENDBRANCH  12  18
BRANCH  13  20
ATOM     20  O   UNL     1      -0.587  10.956  20.375  0.00  0.00    +0.000 OA
ATOM     21  H   UNL     1      -1.378  10.799  20.919  0.00  0.00    +0.000 HD
ENDBRANCH  13  20
ENDBRANCH   1  10
BRANCH   6  22
ATOM     22  C   UNL     1       5.680   4.710  17.927  0.00  0.00    +0.000 C 
BRANCH  22  23
ATOM     23  C   UNL     1       6.525   5.948  17.949  0.00  0.00    +0.000 A 
ATOM     24  C   UNL     1       7.588   6.098  18.814  0.00  0.00    +0.000 A 
ATOM     25  N   UNL     1       8.324   7.220  18.911  0.00  0.00    +0.000 NA
ATOM     26  C   UNL     1       7.967   8.232  18.100  0.00  0.00    +0.000 A 
ATOM     27  N   UNL     1       6.979   8.186  17.187  0.00  0.00    +0.000 NA
ATOM     28  C   UNL     1       6.280   7.037  17.134  0.00  0.00    +0.000 A 
BRANCH  26  29
ATOM     29  C   UNL     1       8.646   9.493  18.300  0.00  0.00    +0.000 A 
ATOM     30  C   UNL     1       9.517   9.912  19.347  0.00  0.00    +0.000 A 
ATOM     31  C   UNL     1       9.831  11.226  19.088  0.00  0.00    +0.000 A 
ATOM     32  O   UNL     1       9.219  11.646  17.951  0.00  0.00    +0.000 OA
ATOM     33  C   UNL     1       8.503  10.592  17.480  0.00  0.00    +0.000 A 
ENDBRANCH  26  29
ENDBRANCH  22  23
ENDBRANCH   6  22
TORSDOF 8
ENDMDL
MODEL 5
REMARK VINA RESULT:      -7.5      1.186      2.562
REMARK  Name = 
REMARK  9 active torsions:
REMARK  status: ('A' for Active; 'I' for Inactive)
REMARK    1  A    between atoms: C_1  and  C_2
REMARK    2  A    between atoms: C_2  and  C_3
REMARK    3  A    between atoms: C_5  and  C_6
REMARK    4  A    between atoms: C_11  and  C_12
REMARK    5  A    between atoms: C_12  and  C_13
REMARK    6  A    between atoms: C_16  and  C_17
REMARK    7  A    between atoms: C_25  and  O_26
REMARK    8  A    between atoms: C_27  and  O_28
REMARK    9  A    between atoms: C_29  and  O_30
REMARK                            x       y       z     vdW  Elec       q    Type
REMARK                         _______ _______ _______ _____ _____    ______ ____
ROOT
ATOM      1  C   UNL     1       2.230   7.155  19.761  0.00  0.00    +0.000 A 
ATOM      2  C   UNL     1       1.794   7.186  21.086  0.00  0.00    +0.000 A 
ATOM      3  C   UNL     1       0.978   8.227  21.527  0.00  0.00    +0.000 A 
ATOM      4  C   UNL     1       0.607   9.268  20.658  0.00  0.00    +0.000 A 
ATOM      5 CL   UNL     1      -0.437  10.490  21.275  0.00  0.00    +0.000 Cl
ATOM      6  C   UNL     1       1.080   9.286  19.334  0.00  0.00    +0.000 A 
ATOM      7  C   UNL     1       1.858   8.208  18.903  0.00  0.00    +0.000 A 
ENDROOT
BRANCH   1  10
ATOM      8  C   UNL     1       4.912   5.728  17.688  0.00  0.00    +0.000 C 
ATOM      9  O   UNL     1       4.045   6.613  18.382  0.00  0.00    +0.000 OA
ATOM     10  C   UNL     1       3.065   6.008  19.225  0.00  0.00    +0.000 C 
ATOM     11  C   UNL     1       2.180   5.012  18.446  0.00  0.00    +0.000 C 
ATOM     12  C   UNL     1       3.072   4.005  17.702  0.00  0.00    +0.000 C 
ATOM     13  C   UNL     1       4.116   4.728  16.835  0.00  0.00    +0.000 C 
BRANCH   8  15
ATOM     14  C   UNL     1       7.271   6.592  17.277  0.00  0.00    +0.000 C 
ATOM     15  C   UNL     1       5.821   6.601  16.807  0.00  0.00    +0.000 C 
ENDBRANCH   8  15
BRANCH  11  16
ATOM     16  O   UNL     1       1.267   4.320  19.309  0.00  0.00    +0.000 OA
ATOM     17  H   UNL     1       0.943   4.936  19.989  0.00  0.00    +0.000 HD
ENDBRANCH  11  16
BRANCH  12  18
ATOM     18  O   UNL     1       2.291   3.118  16.891  0.00  0.00    +0.000 OA
ATOM     19  H   UNL     1       2.635   3.150  15.974  0.00  0.00    +0.000 HD
ENDBRANCH  12  18
BRANCH  13  20
ATOM     20  O   UNL     1       5.018   3.803  16.221  0.00  0.00    +0.000 OA
ATOM     21  H   UNL     1       5.573   4.286  15.584  0.00  0.00    +0.000 HD
ENDBRANCH  13  20
ENDBRANCH   1  10
BRANCH   6  22
ATOM     22  C   UNL     1       0.808  10.402  18.353  0.00  0.00    +0.000 C 
BRANCH  22  23
ATOM     23  C   UNL     1      -0.648  10.683  18.129  0.00  0.00    +0.000 A 
ATOM     24  C   UNL     1      -1.228  11.884  18.478  0.00  0.00    +0.000 A 
ATOM     25  N   UNL     1      -2.542  12.146  18.358  0.00  0.00    +0.000 NA
ATOM     26  C   UNL     1      -3.300  11.150  17.868  0.00  0.00    +0.000 A 
ATOM     27  N   UNL     1      -2.841   9.954  17.453  0.00  0.00    +0.000 NA
ATOM     28  C   UNL     1      -1.518   9.752  17.595  0.00  0.00    +0.000 A 
BRANCH  26  29
ATOM     29  C   UNL     1      -4.731  11.360  17.877  0.00  0.00    +0.000 A 
ATOM     30  C   UNL     1      -5.751  10.705  18.626  0.00  0.00    +0.000 A 
ATOM     31  C   UNL     1      -6.945  11.242  18.207  0.00  0.00    +0.000 A 
ATOM     32  O   UNL     1      -6.734  12.188  17.256  0.00  0.00    +0.000 OA
ATOM     33  C   UNL     1      -5.391  12.253  17.060  0.00  0.00    +0.000 A 
ENDBRANCH  26  29
ENDBRANCH  22  23
ENDBRANCH   6  22
TORSDOF 8
ENDMDL
MODEL 6
REMARK VINA RESULT:      -7.3      4.607      9.331
REMARK  Name = 
REMARK  9 active torsions:
REMARK  status: ('A' for Active; 'I' for Inactive)
REMARK    1  A    between atoms: C_1  and  C_2
REMARK    2  A    between atoms: C_2  and  C_3
REMARK    3  A    between atoms: C_5  and  C_6
REMARK    4  A    between atoms: C_11  and  C_12
REMARK    5  A    between atoms: C_12  and  C_13
REMARK    6  A    between atoms: C_16  and  C_17
REMARK    7  A    between atoms: C_25  and  O_26
REMARK    8  A    between atoms: C_27  and  O_28
REMARK    9  A    between atoms: C_29  and  O_30
REMARK                            x       y       z     vdW  Elec       q    Type
REMARK                         _______ _______ _______ _____ _____    ______ ____
ROOT
ATOM      1  C   UNL     1       2.111   7.171  19.918  0.00  0.00    +0.000 A 
ATOM      2  C   UNL     1       1.200   6.187  20.304  0.00  0.00    +0.000 A 
ATOM      3  C   UNL     1       1.622   4.867  20.451  0.00  0.00    +0.000 A 
ATOM      4  C   UNL     1       2.955   4.504  20.190  0.00  0.00    +0.000 A 
ATOM      5 CL   UNL     1       3.399   2.859  20.439  0.00  0.00    +0.000 Cl
ATOM      6  C   UNL     1       3.876   5.469  19.747  0.00  0.00    +0.000 A 
ATOM      7  C   UNL     1       3.441   6.794  19.651  0.00  0.00    +0.000 A 
ENDROOT
BRANCH   1  10
ATOM      8  C   UNL     1       0.358  10.193  21.069  0.00  0.00    +0.000 C 
ATOM      9  O   UNL     1       0.930   8.896  20.976  0.00  0.00    +0.000 OA
ATOM     10  C   UNL     1       1.707   8.629  19.808  0.00  0.00    +0.000 C 
ATOM     11  C   UNL     1       0.897   8.871  18.517  0.00  0.00    +0.000 C 
ATOM     12  C   UNL     1       0.284  10.280  18.551  0.00  0.00    +0.000 C 
ATOM     13  C   UNL     1      -0.516  10.503  19.845  0.00  0.00    +0.000 C 
BRANCH   8  15
ATOM     14  C   UNL     1       0.116   9.329  23.451  0.00  0.00    +0.000 C 
ATOM     15  C   UNL     1      -0.476  10.216  22.361  0.00  0.00    +0.000 C 
ENDBRANCH   8  15
BRANCH  11  16
ATOM     16  O   UNL     1       1.704   8.712  17.342  0.00  0.00    +0.000 OA
ATOM     17  H   UNL     1       2.440   8.107  17.542  0.00  0.00    +0.000 HD
ENDBRANCH  11  16
BRANCH  12  18
ATOM     18  O   UNL     1      -0.552  10.512  17.410  0.00  0.00    +0.000 OA
ATOM     19  H   UNL     1      -0.500  11.462  17.173  0.00  0.00    +0.000 HD
ENDBRANCH  12  18
BRANCH  13  20
ATOM     20  O   UNL     1      -1.003  11.846  19.935  0.00  0.00    +0.000 OA
ATOM     21  H   UNL     1      -0.354  12.379  20.426  0.00  0.00    +0.000 HD
ENDBRANCH  13  20
ENDBRANCH   1  10
BRANCH   6  22
ATOM     22  C   UNL     1       5.304   5.162  19.359  0.00  0.00    +0.000 C 
BRANCH  22  23
ATOM     23  C   UNL     1       5.524   5.020  17.883  0.00  0.00    +0.000 A 
ATOM     24  C   UNL     1       5.089   3.917  17.178  0.00  0.00    +0.000 A 
ATOM     25  N   UNL     1       5.329   3.722  15.868  0.00  0.00    +0.000 NA
ATOM     26  C   UNL     1       6.041   4.681  15.249  0.00  0.00    +0.000 A 
ATOM     27  N   UNL     1       6.478   5.818  15.822  0.00  0.00    +0.000 NA
ATOM     28  C   UNL     1       6.205   5.958  17.132  0.00  0.00    +0.000 A 
BRANCH  26  29
ATOM     29  C   UNL     1       6.438   4.413  13.884  0.00  0.00    +0.000 A 
ATOM     30  C   UNL     1       7.482   4.986  13.102  0.00  0.00    +0.000 A 
ATOM     31  C   UNL     1       7.382   4.424  11.851  0.00  0.00    +0.000 A 
ATOM     32  O   UNL     1       6.354   3.538  11.808  0.00  0.00    +0.000 OA
ATOM     33  C   UNL     1       5.786   3.537  13.042  0.00  0.00    +0.000 A 
ENDBRANCH  26  29
ENDBRANCH  22  23
ENDBRANCH   6  22
TORSDOF 8
ENDMDL
MODEL 7
REMARK VINA RESULT:      -7.0      1.944      3.256
REMARK  Name = 
REMARK  9 active torsions:
REMARK  status: ('A' for Active; 'I' for Inactive)
REMARK    1  A    between atoms: C_1  and  C_2
REMARK    2  A    between atoms: C_2  and  C_3
REMARK    3  A    between atoms: C_5  and  C_6
REMARK    4  A    between atoms: C_11  and  C_12
REMARK    5  A    between atoms: C_12  and  C_13
REMARK    6  A    between atoms: C_16  and  C_17
REMARK    7  A    between atoms: C_25  and  O_26
REMARK    8  A    between atoms: C_27  and  O_28
REMARK    9  A    between atoms: C_29  and  O_30
REMARK                            x       y       z     vdW  Elec       q    Type
REMARK                         _______ _______ _______ _____ _____    ______ ____
ROOT
ATOM      1  C   UNL     1       3.255   5.615  19.471  0.00  0.00    +0.000 A 
ATOM      2  C   UNL     1       2.346   4.970  20.311  0.00  0.00    +0.000 A 
ATOM      3  C   UNL     1       1.304   5.691  20.893  0.00  0.00    +0.000 A 
ATOM      4  C   UNL     1       1.169   7.072  20.666  0.00  0.00    +0.000 A 
ATOM      5 CL   UNL     1      -0.172   7.873  21.390  0.00  0.00    +0.000 Cl
ATOM      6  C   UNL     1       2.105   7.751  19.867  0.00  0.00    +0.000 A 
ATOM      7  C   UNL     1       3.113   6.999  19.258  0.00  0.00    +0.000 A 
ENDROOT
BRANCH   1  10
ATOM      8  C   UNL     1       6.733   5.143  18.371  0.00  0.00    +0.000 C 
ATOM      9  O   UNL     1       5.551   5.611  19.004  0.00  0.00    +0.000 OA
ATOM     10  C   UNL     1       4.363   4.855  18.768  0.00  0.00    +0.000 C 
ATOM     11  C   UNL     1       4.060   4.728  17.260  0.00  0.00    +0.000 C 
ATOM     12  C   UNL     1       5.301   4.187  16.530  0.00  0.00    +0.000 C 
ATOM     13  C   UNL     1       6.543   5.036  16.851  0.00  0.00    +0.000 C 
BRANCH   8  15
ATOM     14  C   UNL     1       7.730   7.441  17.921  0.00  0.00    +0.000 C 
ATOM     15  C   UNL     1       7.846   6.146  18.717  0.00  0.00    +0.000 C 
ENDBRANCH   8  15
BRANCH  11  16
ATOM     16  O   UNL     1       2.932   3.877  17.012  0.00  0.00    +0.000 OA
ATOM     17  H   UNL     1       3.208   3.145  16.432  0.00  0.00    +0.000 HD
ENDBRANCH  11  16
BRANCH  12  18
ATOM     18  O   UNL     1       5.092   4.140  15.113  0.00  0.00    +0.000 OA
ATOM     19  H   UNL     1       4.699   3.271  14.885  0.00  0.00    +0.000 HD
ENDBRANCH  12  18
BRANCH  13  20
ATOM     20  O   UNL     1       7.723   4.481  16.261  0.00  0.00    +0.000 OA
ATOM     21  H   UNL     1       8.498   4.807  16.751  0.00  0.00    +0.000 HD
ENDBRANCH  13  20
ENDBRANCH   1  10
BRANCH   6  22
ATOM     22  C   UNL     1       2.094   9.244  19.634  0.00  0.00    +0.000 C 
BRANCH  22  23
ATOM     23  C   UNL     1       0.827   9.761  19.021  0.00  0.00    +0.000 A 
ATOM     24  C   UNL     1       0.075  10.753  19.614  0.00  0.00    +0.000 A 
ATOM     25  N   UNL     1      -1.102  11.193  19.130  0.00  0.00    +0.000 NA
ATOM     26  C   UNL     1      -1.534  10.602  18.002  0.00  0.00    +0.000 A 
ATOM     27  N   UNL     1      -0.866   9.658  17.313  0.00  0.00    +0.000 NA
ATOM     28  C   UNL     1       0.305   9.261  17.844  0.00  0.00    +0.000 A 
BRANCH  26  29
ATOM     29  C   UNL     1      -2.865  10.952  17.557  0.00  0.00    +0.000 A 
ATOM     30  C   UNL     1      -3.965  11.492  18.282  0.00  0.00    +0.000 A 
ATOM     31  C   UNL     1      -5.013  11.572  17.397  0.00  0.00    +0.000 A 
ATOM     32  O   UNL     1      -4.636  11.125  16.171  0.00  0.00    +0.000 OA
ATOM     33  C   UNL     1      -3.334  10.750  16.276  0.00  0.00    +0.000 A 
ENDBRANCH  26  29
ENDBRANCH  22  23
ENDBRANCH   6  22
TORSDOF 8
ENDMDL
MODEL 8
REMARK VINA RESULT:      -7.0      3.712      5.358
REMARK  Name = 
REMARK  9 active torsions:
REMARK  status: ('A' for Active; 'I' for Inactive)
REMARK    1  A    between atoms: C_1  and  C_2
REMARK    2  A    between atoms: C_2  and  C_3
REMARK    3  A    between atoms: C_5  and  C_6
REMARK    4  A    between atoms: C_11  and  C_12
REMARK    5  A    between atoms: C_12  and  C_13
REMARK    6  A    between atoms: C_16  and  C_17
REMARK    7  A    between atoms: C_25  and  O_26
REMARK    8  A    between atoms: C_27  and  O_28
REMARK    9  A    between atoms: C_29  and  O_30
REMARK                            x       y       z     vdW  Elec       q    Type
REMARK                         _______ _______ _______ _____ _____    ______ ____
ROOT
ATOM      1  C   UNL     1       2.039   7.397  18.978  0.00  0.00    +0.000 A 
ATOM      2  C   UNL     1       1.973   7.207  20.359  0.00  0.00    +0.000 A 
ATOM      3  C   UNL     1       1.384   8.177  21.169  0.00  0.00    +0.000 A 
ATOM      4  C   UNL     1       0.875   9.364  20.613  0.00  0.00    +0.000 A 
ATOM      5 CL   UNL     1       0.126  10.488  21.681  0.00  0.00    +0.000 Cl
ATOM      6  C   UNL     1       0.980   9.601  19.231  0.00  0.00    +0.000 A 
ATOM      7  C   UNL     1       1.532   8.594  18.436  0.00  0.00    +0.000 A 
ENDROOT
BRANCH   1  10
ATOM      8  C   UNL     1       2.401   3.947  17.757  0.00  0.00    +0.000 C 
ATOM      9  O   UNL     1       1.969   5.120  18.430  0.00  0.00    +0.000 OA
ATOM     10  C   UNL     1       2.613   6.338  18.057  0.00  0.00    +0.000 C 
ATOM     11  C   UNL     1       4.145   6.247  18.226  0.00  0.00    +0.000 C 
ATOM     12  C   UNL     1       4.671   5.008  17.483  0.00  0.00    +0.000 C 
ATOM     13  C   UNL     1       3.915   3.742  17.917  0.00  0.00    +0.000 C 
BRANCH   8  15
ATOM     14  C   UNL     1       1.145   3.068  19.789  0.00  0.00    +0.000 C 
ATOM     15  C   UNL     1       1.619   2.773  18.370  0.00  0.00    +0.000 C 
ENDBRANCH   8  15
BRANCH  11  16
ATOM     16  O   UNL     1       4.806   7.427  17.748  0.00  0.00    +0.000 OA
ATOM     17  H   UNL     1       4.298   8.209  18.025  0.00  0.00    +0.000 HD
ENDBRANCH  11  16
BRANCH  12  18
ATOM     18  O   UNL     1       6.078   4.835  17.691  0.00  0.00    +0.000 OA
ATOM     19  H   UNL     1       6.417   5.609  18.187  0.00  0.00    +0.000 HD
ENDBRANCH  12  18
BRANCH  13  20
ATOM     20  O   UNL     1       4.324   2.600  17.157  0.00  0.00    +0.000 OA
ATOM     21  H   UNL     1       5.206   2.324  17.462  0.00  0.00    +0.000 HD
ENDBRANCH  13  20
ENDBRANCH   1  10
BRANCH   6  22
ATOM     22  C   UNL     1       0.541  10.879  18.556  0.00  0.00    +0.000 C 
BRANCH  22  23
ATOM     23  C   UNL     1       1.485  12.029  18.742  0.00  0.00    +0.000 A 
ATOM     24  C   UNL     1       1.247  13.035  19.655  0.00  0.00    +0.000 A 
ATOM     25  N   UNL     1       2.034  14.117  19.801  0.00  0.00    +0.000 NA
ATOM     26  C   UNL     1       3.102  14.184  18.987  0.00  0.00    +0.000 A 
ATOM     27  N   UNL     1       3.459  13.244  18.092  0.00  0.00    +0.000 NA
ATOM     28  C   UNL     1       2.635  12.184  17.993  0.00  0.00    +0.000 A 
BRANCH  26  29
ATOM     29  C   UNL     1       3.869  15.410  19.024  0.00  0.00    +0.000 A 
ATOM     30  C   UNL     1       5.195  15.678  18.580  0.00  0.00    +0.000 A 
ATOM     31  C   UNL     1       5.458  16.987  18.911  0.00  0.00    +0.000 A 
ATOM     32  O   UNL     1       4.383  17.548  19.522  0.00  0.00    +0.000 OA
ATOM     33  C   UNL     1       3.425  16.587  19.588  0.00  0.00    +0.000 A 
ENDBRANCH  26  29
ENDBRANCH  22  23
ENDBRANCH   6  22
TORSDOF 8
ENDMDL
MODEL 9
REMARK VINA RESULT:      -7.0      1.132      1.519
REMARK  Name = 
REMARK  9 active torsions:
REMARK  status: ('A' for Active; 'I' for Inactive)
REMARK    1  A    between atoms: C_1  and  C_2
REMARK    2  A    between atoms: C_2  and  C_3
REMARK    3  A    between atoms: C_5  and  C_6
REMARK    4  A    between atoms: C_11  and  C_12
REMARK    5  A    between atoms: C_12  and  C_13
REMARK    6  A    between atoms: C_16  and  C_17
REMARK    7  A    between atoms: C_25  and  O_26
REMARK    8  A    between atoms: C_27  and  O_28
REMARK    9  A    between atoms: C_29  and  O_30
REMARK                            x       y       z     vdW  Elec       q    Type
REMARK                         _______ _______ _______ _____ _____    ______ ____
ROOT
ATOM      1  C   UNL     1       1.877   7.514  19.713  0.00  0.00    +0.000 A 
ATOM      2  C   UNL     1       1.861   7.579  21.107  0.00  0.00    +0.000 A 
ATOM      3  C   UNL     1       1.312   8.690  21.746  0.00  0.00    +0.000 A 
ATOM      4  C   UNL     1       0.793   9.764  21.003  0.00  0.00    +0.000 A 
ATOM      5 CL   UNL     1       0.095  11.075  21.874  0.00  0.00    +0.000 Cl
ATOM      6  C   UNL     1       0.848   9.744  19.598  0.00  0.00    +0.000 A 
ATOM      7  C   UNL     1       1.361   8.600  18.980  0.00  0.00    +0.000 A 
ENDROOT
BRANCH   1  10
ATOM      8  C   UNL     1       2.852   3.975  19.495  0.00  0.00    +0.000 C 
ATOM      9  O   UNL     1       2.331   5.225  19.921  0.00  0.00    +0.000 OA
ATOM     10  C   UNL     1       2.407   6.296  18.980  0.00  0.00    +0.000 C 
ATOM     11  C   UNL     1       3.856   6.537  18.507  0.00  0.00    +0.000 C 
ATOM     12  C   UNL     1       4.457   5.217  18.000  0.00  0.00    +0.000 C 
ATOM     13  C   UNL     1       4.317   4.106  19.054  0.00  0.00    +0.000 C 
BRANCH   8  15
ATOM     14  C   UNL     1       1.324   3.031  21.298  0.00  0.00    +0.000 C 
ATOM     15  C   UNL     1       2.721   3.012  20.687  0.00  0.00    +0.000 C 
ENDBRANCH   8  15
BRANCH  11  16
ATOM     16  O   UNL     1       3.923   7.537  17.481  0.00  0.00    +0.000 OA
ATOM     17  H   UNL     1       4.857   7.717  17.273  0.00  0.00    +0.000 HD
ENDBRANCH  11  16
BRANCH  12  18
ATOM     18  O   UNL     1       5.834   5.378  17.636  0.00  0.00    +0.000 OA
ATOM     19  H   UNL     1       5.881   5.955  16.845  0.00  0.00    +0.000 HD
ENDBRANCH  12  18
BRANCH  13  20
ATOM     20  O   UNL     1       4.779   2.848  18.553  0.00  0.00    +0.000 OA
ATOM     21  H   UNL     1       5.043   2.291  19.306  0.00  0.00    +0.000 HD
ENDBRANCH  13  20
ENDBRANCH   1  10
BRANCH   6  22
ATOM     22  C   UNL     1       0.396  10.885  18.716  0.00  0.00    +0.000 C 
BRANCH  22  23
ATOM     23  C   UNL     1      -1.087  11.105  18.708  0.00  0.00    +0.000 A 
ATOM     24  C   UNL     1      -1.931  10.395  17.881  0.00  0.00    +0.000 A 
ATOM     25  N   UNL     1      -3.256  10.614  17.795  0.00  0.00    +0.000 NA
ATOM     26  C   UNL     1      -3.745  11.593  18.576  0.00  0.00    +0.000 A 
ATOM     27  N   UNL     1      -3.027  12.320  19.454  0.00  0.00    +0.000 NA
ATOM     28  C   UNL     1      -1.709  12.054  19.497  0.00  0.00    +0.000 A 
BRANCH  26  29
ATOM     29  C   UNL     1      -5.135  11.944  18.383  0.00  0.00    +0.000 A 
ATOM     30  C   UNL     1      -6.178  12.125  19.336  0.00  0.00    +0.000 A 
ATOM     31  C   UNL     1      -7.320  12.385  18.616  0.00  0.00    +0.000 A 
ATOM     32  O   UNL     1      -7.054  12.383  17.284  0.00  0.00    +0.000 OA
ATOM     33  C   UNL     1      -5.729  12.114  17.150  0.00  0.00    +0.000 A 
ENDBRANCH  26  29
ENDBRANCH  22  23
ENDBRANCH   6  22
TORSDOF 8
ENDMDL
