MODEL 1
REMARK VINA RESULT:      -7.8      0.000      0.000
REMARK  Name = 
REMARK  2 active torsions:
REMARK  status: ('A' for Active; 'I' for Inactive)
REMARK    1  A    between atoms: C_7  and  N_8
REMARK    2  A    between atoms: C_11  and  C_12
REMARK                            x       y       z     vdW  Elec       q    Type
REMARK                         _______ _______ _______ _____ _____    ______ ____
ROOT
ATOM      1  N   UNL     1       2.139   6.582  20.453  0.00  0.00    +0.000 N 
ATOM      2  C   UNL     1       2.943   5.614  19.958  0.00  0.00    +0.000 A 
ATOM      3  N   UNL     1       3.938   5.791  19.121  0.00  0.00    +0.000 NA
ATOM      4  C   UNL     1       4.358   4.579  18.611  0.00  0.00    +0.000 A 
ATOM      5  C   UNL     1       3.801   3.471  19.213  0.00  0.00    +0.000 A 
ATOM      6  S   UNL     1       2.699   3.971  20.428  0.00  0.00    +0.000 S 
ATOM      7  H   UNL     1       1.439   6.297  21.126  0.00  0.00    +0.000 HD
ENDROOT
BRANCH   1  14
ATOM      8 BR   UNL     1       0.825   9.096  22.292  0.00  0.00    +0.000 Br
ATOM      9  C   UNL     1       1.191   8.923  20.428  0.00  0.00    +0.000 A 
ATOM     10  C   UNL     1       0.902  10.070  19.673  0.00  0.00    +0.000 A 
ATOM     11  C   UNL     1       1.279  10.157  18.336  0.00  0.00    +0.000 A 
ATOM     12  C   UNL     1       1.953   9.097  17.744  0.00  0.00    +0.000 A 
ATOM     13  C   UNL     1       2.218   7.940  18.481  0.00  0.00    +0.000 A 
ATOM     14  C   UNL     1       1.831   7.814  19.831  0.00  0.00    +0.000 A 
ENDBRANCH   1  14
BRANCH   4  15
ATOM     15  C   UNL     1       5.294   4.533  17.500  0.00  0.00    +0.000 A 
ATOM     16  C   UNL     1       4.842   4.241  16.211  0.00  0.00    +0.000 A 
ATOM     17  C   UNL     1       5.757   4.173  15.160  0.00  0.00    +0.000 A 
ATOM     18  C   UNL     1       7.095   4.390  15.442  0.00  0.00    +0.000 A 
ATOM     19  N   UNL     1       7.573   4.658  16.673  0.00  0.00    +0.000 NA
ATOM     20  C   UNL     1       6.659   4.713  17.675  0.00  0.00    +0.000 A 
ENDBRANCH   4  15
TORSDOF 2
ENDMDL
MODEL 2
REMARK VINA RESULT:      -7.7      2.317      6.266
REMARK  Name = 
REMARK  2 active torsions:
REMARK  status: ('A' for Active; 'I' for Inactive)
REMARK    1  A    between atoms: C_7  and  N_8
REMARK    2  A    between atoms: C_11  and  C_12
REMARK                            x       y       z     vdW  Elec       q    Type
REMARK                         _______ _______ _______ _____ _____    ______ ____
ROOT
ATOM      1  N   UNL     1       4.735   3.502  17.658  0.00  0.00    +0.000 N 
ATOM      2  C   UNL     1       3.869   4.216  18.411  0.00  0.00    +0.000 A 
ATOM      3  N   UNL     1       3.286   5.338  18.062  0.00  0.00    +0.000 NA
ATOM      4  C   UNL     1       2.695   5.934  19.159  0.00  0.00    +0.000 A 
ATOM      5  C   UNL     1       2.672   5.159  20.299  0.00  0.00    +0.000 A 
ATOM      6  S   UNL     1       3.440   3.658  19.989  0.00  0.00    +0.000 S 
ATOM      7  H   UNL     1       5.069   2.630  18.046  0.00  0.00    +0.000 HD
ENDROOT
BRANCH   1  14
ATOM      8 BR   UNL     1       7.424   5.364  18.510  0.00  0.00    +0.000 Br
ATOM      9  C   UNL     1       6.678   4.882  16.822  0.00  0.00    +0.000 A 
ATOM     10  C   UNL     1       7.402   5.351  15.716  0.00  0.00    +0.000 A 
ATOM     11  C   UNL     1       7.083   4.933  14.427  0.00  0.00    +0.000 A 
ATOM     12  C   UNL     1       6.038   4.039  14.235  0.00  0.00    +0.000 A 
ATOM     13  C   UNL     1       5.294   3.591  15.330  0.00  0.00    +0.000 A 
ATOM     14  C   UNL     1       5.581   4.012  16.645  0.00  0.00    +0.000 A 
ENDBRANCH   1  14
BRANCH   4  15
ATOM     15  C   UNL     1       2.182   7.291  19.072  0.00  0.00    +0.000 A 
ATOM     16  C   UNL     1       2.306   8.015  17.884  0.00  0.00    +0.000 A 
ATOM     17  C   UNL     1       1.833   9.326  17.825  0.00  0.00    +0.000 A 
ATOM     18  C   UNL     1       1.263   9.869  18.963  0.00  0.00    +0.000 A 
ATOM     19  N   UNL     1       1.139   9.210  20.132  0.00  0.00    +0.000 NA
ATOM     20  C   UNL     1       1.612   7.938  20.160  0.00  0.00    +0.000 A 
ENDBRANCH   4  15
TORSDOF 2
ENDMDL
MODEL 3
REMARK VINA RESULT:      -7.6      2.381      6.310
REMARK  Name = 
REMARK  2 active torsions:
REMARK  status: ('A' for Active; 'I' for Inactive)
REMARK    1  A    between atoms: C_7  and  N_8
REMARK    2  A    between atoms: C_11  and  C_12
REMARK                            x       y       z     vdW  Elec       q    Type
REMARK                         _______ _______ _______ _____ _____    ______ ____
ROOT
ATOM      1  N   UNL     1       4.646   3.637  17.630  0.00  0.00    +0.000 N 
ATOM      2  C   UNL     1       3.797   4.400  18.355  0.00  0.00    +0.000 A 
ATOM      3  N   UNL     1       3.267   5.538  17.975  0.00  0.00    +0.000 NA
ATOM      4  C   UNL     1       2.683   6.179  19.050  0.00  0.00    +0.000 A 
ATOM      5  C   UNL     1       2.610   5.428  20.203  0.00  0.00    +0.000 A 
ATOM      6  S   UNL     1       3.320   3.891  19.935  0.00  0.00    +0.000 S 
ATOM      7  H   UNL     1       4.938   2.759  18.040  0.00  0.00    +0.000 HD
ENDROOT
BRANCH   1  14
ATOM      8 BR   UNL     1       7.421   5.361  18.497  0.00  0.00    +0.000 Br
ATOM      9  C   UNL     1       6.669   4.904  16.805  0.00  0.00    +0.000 A 
ATOM     10  C   UNL     1       7.429   5.323  15.703  0.00  0.00    +0.000 A 
ATOM     11  C   UNL     1       7.102   4.911  14.414  0.00  0.00    +0.000 A 
ATOM     12  C   UNL     1       6.013   4.073  14.218  0.00  0.00    +0.000 A 
ATOM     13  C   UNL     1       5.234   3.675  15.308  0.00  0.00    +0.000 A 
ATOM     14  C   UNL     1       5.529   4.092  16.623  0.00  0.00    +0.000 A 
ENDBRANCH   1  14
BRANCH   4  15
ATOM     15  C   UNL     1       2.228   7.553  18.928  0.00  0.00    +0.000 A 
ATOM     16  C   UNL     1       1.540   8.163  19.980  0.00  0.00    +0.000 A 
ATOM     17  C   UNL     1       1.085   9.474  19.837  0.00  0.00    +0.000 A 
ATOM     18  C   UNL     1       1.327  10.124  18.639  0.00  0.00    +0.000 A 
ATOM     19  N   UNL     1       1.972   9.566  17.596  0.00  0.00    +0.000 NA
ATOM     20  C   UNL     1       2.398   8.289  17.763  0.00  0.00    +0.000 A 
ENDBRANCH   4  15
TORSDOF 2
ENDMDL
MODEL 4
REMARK VINA RESULT:      -7.4      2.996      6.162
REMARK  Name = 
REMARK  2 active torsions:
REMARK  status: ('A' for Active; 'I' for Inactive)
REMARK    1  A    between atoms: C_7  and  N_8
REMARK    2  A    between atoms: C_11  and  C_12
REMARK                            x       y       z     vdW  Elec       q    Type
REMARK                         _______ _______ _______ _____ _____    ______ ____
ROOT
ATOM      1  N   UNL     1       4.867   7.172  16.992  0.00  0.00    +0.000 N 
ATOM      2  C   UNL     1       3.891   6.959  17.903  0.00  0.00    +0.000 A 
ATOM      3  N   UNL     1       3.797   5.925  18.705  0.00  0.00    +0.000 NA
ATOM      4  C   UNL     1       2.549   5.887  19.296  0.00  0.00    +0.000 A 
ATOM      5  C   UNL     1       1.772   7.005  19.081  0.00  0.00    +0.000 A 
ATOM      6  S   UNL     1       2.621   8.114  18.088  0.00  0.00    +0.000 S 
ATOM      7  H   UNL     1       4.830   8.041  16.475  0.00  0.00    +0.000 HD
ENDROOT
BRANCH   1  14
ATOM      8 BR   UNL     1       7.590   5.894  18.533  0.00  0.00    +0.000 Br
ATOM      9  C   UNL     1       6.849   5.618  16.798  0.00  0.00    +0.000 A 
ATOM     10  C   UNL     1       7.534   4.673  16.021  0.00  0.00    +0.000 A 
ATOM     11  C   UNL     1       7.012   4.236  14.806  0.00  0.00    +0.000 A 
ATOM     12  C   UNL     1       5.797   4.740  14.362  0.00  0.00    +0.000 A 
ATOM     13  C   UNL     1       5.123   5.703  15.117  0.00  0.00    +0.000 A 
ATOM     14  C   UNL     1       5.636   6.180  16.341  0.00  0.00    +0.000 A 
ENDBRANCH   1  14
BRANCH   4  15
ATOM     15  C   UNL     1       2.126   4.718  20.048  0.00  0.00    +0.000 A 
ATOM     16  C   UNL     1       1.196   3.829  19.503  0.00  0.00    +0.000 A 
ATOM     17  C   UNL     1       0.779   2.727  20.249  0.00  0.00    +0.000 A 
ATOM     18  C   UNL     1       1.303   2.560  21.519  0.00  0.00    +0.000 A 
ATOM     19  N   UNL     1       2.189   3.402  22.086  0.00  0.00    +0.000 NA
ATOM     20  C   UNL     1       2.572   4.467  21.338  0.00  0.00    +0.000 A 
ENDBRANCH   4  15
TORSDOF 2
ENDMDL
MODEL 5
REMARK VINA RESULT:      -7.4      0.692      1.152
REMARK  Name = 
REMARK  2 active torsions:
REMARK  status: ('A' for Active; 'I' for Inactive)
REMARK    1  A    between atoms: C_7  and  N_8
REMARK    2  A    between atoms: C_11  and  C_12
REMARK                            x       y       z     vdW  Elec       q    Type
REMARK                         _______ _______ _______ _____ _____    ______ ____
ROOT
ATOM      1  N   UNL     1       1.926   6.632  20.616  0.00  0.00    +0.000 N 
ATOM      2  C   UNL     1       2.717   5.621  20.191  0.00  0.00    +0.000 A 
ATOM      3  N   UNL     1       3.770   5.738  19.417  0.00  0.00    +0.000 NA
ATOM      4  C   UNL     1       4.168   4.498  18.958  0.00  0.00    +0.000 A 
ATOM      5  C   UNL     1       3.526   3.429  19.544  0.00  0.00    +0.000 A 
ATOM      6  S   UNL     1       2.373   4.000  20.676  0.00  0.00    +0.000 S 
ATOM      7  H   UNL     1       1.173   6.391  21.248  0.00  0.00    +0.000 HD
ENDROOT
BRANCH   1  14
ATOM      8 BR   UNL     1       0.677   9.260  22.337  0.00  0.00    +0.000 Br
ATOM      9  C   UNL     1       1.109   9.019  20.495  0.00  0.00    +0.000 A 
ATOM     10  C   UNL     1       0.915  10.160  19.702  0.00  0.00    +0.000 A 
ATOM     11  C   UNL     1       1.352  10.192  18.380  0.00  0.00    +0.000 A 
ATOM     12  C   UNL     1       1.990   9.083  17.843  0.00  0.00    +0.000 A 
ATOM     13  C   UNL     1       2.161   7.933  18.618  0.00  0.00    +0.000 A 
ATOM     14  C   UNL     1       1.712   7.863  19.953  0.00  0.00    +0.000 A 
ENDBRANCH   1  14
BRANCH   4  15
ATOM     15  C   UNL     1       5.170   4.389  17.911  0.00  0.00    +0.000 A 
ATOM     16  C   UNL     1       6.499   4.733  18.169  0.00  0.00    +0.000 A 
ATOM     17  C   UNL     1       7.443   4.649  17.146  0.00  0.00    +0.000 A 
ATOM     18  C   UNL     1       7.018   4.233  15.896  0.00  0.00    +0.000 A 
ATOM     19  N   UNL     1       5.744   3.907  15.602  0.00  0.00    +0.000 NA
ATOM     20  C   UNL     1       4.848   4.003  16.617  0.00  0.00    +0.000 A 
ENDBRANCH   4  15
TORSDOF 2
ENDMDL
MODEL 6
REMARK VINA RESULT:      -7.4      3.293      4.368
REMARK  Name = 
REMARK  2 active torsions:
REMARK  status: ('A' for Active; 'I' for Inactive)
REMARK    1  A    between atoms: C_7  and  N_8
REMARK    2  A    between atoms: C_11  and  C_12
REMARK                            x       y       z     vdW  Elec       q    Type
REMARK                         _______ _______ _______ _____ _____    ______ ____
ROOT
ATOM      1  N   UNL     1       4.486   4.922  19.286  0.00  0.00    +0.000 N 
ATOM      2  C   UNL     1       5.435   5.096  18.339  0.00  0.00    +0.000 A 
ATOM      3  N   UNL     1       5.251   5.035  17.042  0.00  0.00    +0.000 NA
ATOM      4  C   UNL     1       6.465   4.981  16.386  0.00  0.00    +0.000 A 
ATOM      5  C   UNL     1       7.567   5.194  17.187  0.00  0.00    +0.000 A 
ATOM      6  S   UNL     1       7.062   5.438  18.807  0.00  0.00    +0.000 S 
ATOM      7  H   UNL     1       4.771   5.043  20.250  0.00  0.00    +0.000 HD
ENDROOT
BRANCH   1  14
ATOM      8 BR   UNL     1       1.614   6.030  20.682  0.00  0.00    +0.000 Br
ATOM      9  C   UNL     1       2.056   4.421  19.759  0.00  0.00    +0.000 A 
ATOM     10  C   UNL     1       0.978   3.540  19.583  0.00  0.00    +0.000 A 
ATOM     11  C   UNL     1       1.103   2.412  18.777  0.00  0.00    +0.000 A 
ATOM     12  C   UNL     1       2.309   2.158  18.138  0.00  0.00    +0.000 A 
ATOM     13  C   UNL     1       3.396   3.014  18.332  0.00  0.00    +0.000 A 
ATOM     14  C   UNL     1       3.305   4.154  19.157  0.00  0.00    +0.000 A 
ENDBRANCH   1  14
BRANCH   4  15
ATOM     15  C   UNL     1       6.521   4.684  14.965  0.00  0.00    +0.000 A 
ATOM     16  C   UNL     1       5.579   3.830  14.387  0.00  0.00    +0.000 A 
ATOM     17  C   UNL     1       5.662   3.533  13.026  0.00  0.00    +0.000 A 
ATOM     18  C   UNL     1       6.695   4.095  12.296  0.00  0.00    +0.000 A 
ATOM     19  N   UNL     1       7.632   4.911  12.819  0.00  0.00    +0.000 NA
ATOM     20  C   UNL     1       7.527   5.177  14.146  0.00  0.00    +0.000 A 
ENDBRANCH   4  15
TORSDOF 2
ENDMDL
MODEL 7
REMARK VINA RESULT:      -7.4      3.667      4.833
REMARK  Name = 
REMARK  2 active torsions:
REMARK  status: ('A' for Active; 'I' for Inactive)
REMARK    1  A    between atoms: C_7  and  N_8
REMARK    2  A    between atoms: C_11  and  C_12
REMARK                            x       y       z     vdW  Elec       q    Type
REMARK                         _______ _______ _______ _____ _____    ______ ____
ROOT
ATOM      1  N   UNL     1       4.434   5.019  18.994  0.00  0.00    +0.000 N 
ATOM      2  C   UNL     1       5.368   5.233  18.040  0.00  0.00    +0.000 A 
ATOM      3  N   UNL     1       5.201   5.076  16.749  0.00  0.00    +0.000 NA
ATOM      4  C   UNL     1       6.420   5.107  16.100  0.00  0.00    +0.000 A 
ATOM      5  C   UNL     1       7.488   5.480  16.888  0.00  0.00    +0.000 A 
ATOM      6  S   UNL     1       6.947   5.767  18.490  0.00  0.00    +0.000 S 
ATOM      7  H   UNL     1       4.697   5.227  19.949  0.00  0.00    +0.000 HD
ENDROOT
BRANCH   1  14
ATOM      8 BR   UNL     1       4.647   1.972  20.442  0.00  0.00    +0.000 Br
ATOM      9  C   UNL     1       3.301   2.792  19.368  0.00  0.00    +0.000 A 
ATOM     10  C   UNL     1       2.158   2.003  19.171  0.00  0.00    +0.000 A 
ATOM     11  C   UNL     1       1.024   2.532  18.561  0.00  0.00    +0.000 A 
ATOM     12  C   UNL     1       1.024   3.857  18.146  0.00  0.00    +0.000 A 
ATOM     13  C   UNL     1       2.168   4.640  18.312  0.00  0.00    +0.000 A 
ATOM     14  C   UNL     1       3.339   4.127  18.909  0.00  0.00    +0.000 A 
ENDBRANCH   1  14
BRANCH   4  15
ATOM     15  C   UNL     1       6.518   4.733  14.699  0.00  0.00    +0.000 A 
ATOM     16  C   UNL     1       5.613   3.821  14.149  0.00  0.00    +0.000 A 
ATOM     17  C   UNL     1       5.737   3.451  12.810  0.00  0.00    +0.000 A 
ATOM     18  C   UNL     1       6.771   4.001  12.073  0.00  0.00    +0.000 A 
ATOM     19  N   UNL     1       7.673   4.870  12.569  0.00  0.00    +0.000 NA
ATOM     20  C   UNL     1       7.529   5.208  13.876  0.00  0.00    +0.000 A 
ENDBRANCH   4  15
TORSDOF 2
ENDMDL
MODEL 8
REMARK VINA RESULT:      -7.2      1.333      1.449
REMARK  Name = 
REMARK  2 active torsions:
REMARK  status: ('A' for Active; 'I' for Inactive)
REMARK    1  A    between atoms: C_7  and  N_8
REMARK    2  A    between atoms: C_11  and  C_12
REMARK                            x       y       z     vdW  Elec       q    Type
REMARK                         _______ _______ _______ _____ _____    ______ ____
ROOT
ATOM      1  N   UNL     1       1.592   7.296  20.866  0.00  0.00    +0.000 N 
ATOM      2  C   UNL     1       2.301   6.346  20.216  0.00  0.00    +0.000 A 
ATOM      3  N   UNL     1       3.153   6.552  19.240  0.00  0.00    +0.000 NA
ATOM      4  C   UNL     1       3.479   5.358  18.626  0.00  0.00    +0.000 A 
ATOM      5  C   UNL     1       3.015   4.230  19.269  0.00  0.00    +0.000 A 
ATOM      6  S   UNL     1       2.123   4.687  20.660  0.00  0.00    +0.000 S 
ATOM      7  H   UNL     1       1.005   6.988  21.630  0.00  0.00    +0.000 HD
ENDROOT
BRANCH   1  14
ATOM      8 BR   UNL     1       0.010   9.513  22.868  0.00  0.00    +0.000 Br
ATOM      9  C   UNL     1       0.447   9.543  21.012  0.00  0.00    +0.000 A 
ATOM     10  C   UNL     1       0.085  10.727  20.352  0.00  0.00    +0.000 A 
ATOM     11  C   UNL     1       0.495  10.968  19.044  0.00  0.00    +0.000 A 
ATOM     12  C   UNL     1       1.276  10.026  18.387  0.00  0.00    +0.000 A 
ATOM     13  C   UNL     1       1.616   8.832  19.027  0.00  0.00    +0.000 A 
ATOM     14  C   UNL     1       1.199   8.551  20.345  0.00  0.00    +0.000 A 
ENDBRANCH   1  14
BRANCH   4  15
ATOM     15  C   UNL     1       4.227   5.351  17.381  0.00  0.00    +0.000 A 
ATOM     16  C   UNL     1       4.565   4.141  16.770  0.00  0.00    +0.000 A 
ATOM     17  C   UNL     1       5.308   4.151  15.589  0.00  0.00    +0.000 A 
ATOM     18  C   UNL     1       5.696   5.373  15.069  0.00  0.00    +0.000 A 
ATOM     19  N   UNL     1       5.404   6.561  15.636  0.00  0.00    +0.000 NA
ATOM     20  C   UNL     1       4.684   6.519  16.786  0.00  0.00    +0.000 A 
ENDBRANCH   4  15
TORSDOF 2
ENDMDL
MODEL 9
REMARK VINA RESULT:      -7.2      3.658      4.907
REMARK  Name = 
REMARK  2 active torsions:
REMARK  status: ('A' for Active; 'I' for Inactive)
REMARK    1  A    between atoms: C_7  and  N_8
REMARK    2  A    between atoms: C_11  and  C_12
REMARK                            x       y       z     vdW  Elec       q    Type
REMARK                         _______ _______ _______ _____ _____    ______ ____
ROOT
ATOM      1  N   UNL     1       4.430   5.045  18.982  0.00  0.00    +0.000 N 
ATOM      2  C   UNL     1       5.381   5.248  18.042  0.00  0.00    +0.000 A 
ATOM      3  N   UNL     1       5.239   5.073  16.750  0.00  0.00    +0.000 NA
ATOM      4  C   UNL     1       6.470   5.098  16.124  0.00  0.00    +0.000 A 
ATOM      5  C   UNL     1       7.521   5.486  16.927  0.00  0.00    +0.000 A 
ATOM      6  S   UNL     1       6.950   5.794  18.513  0.00  0.00    +0.000 S 
ATOM      7  H   UNL     1       4.674   5.267  19.938  0.00  0.00    +0.000 HD
ENDROOT
BRANCH   1  14
ATOM      8 BR   UNL     1       4.647   1.998  20.428  0.00  0.00    +0.000 Br
ATOM      9  C   UNL     1       3.305   2.813  19.346  0.00  0.00    +0.000 A 
ATOM     10  C   UNL     1       2.166   2.019  19.141  0.00  0.00    +0.000 A 
ATOM     11  C   UNL     1       1.034   2.543  18.524  0.00  0.00    +0.000 A 
ATOM     12  C   UNL     1       1.030   3.868  18.110  0.00  0.00    +0.000 A 
ATOM     13  C   UNL     1       2.171   4.657  18.285  0.00  0.00    +0.000 A 
ATOM     14  C   UNL     1       3.339   4.149  18.889  0.00  0.00    +0.000 A 
ENDBRANCH   1  14
BRANCH   4  15
ATOM     15  C   UNL     1       6.594   4.705  14.731  0.00  0.00    +0.000 A 
ATOM     16  C   UNL     1       7.571   5.288  13.920  0.00  0.00    +0.000 A 
ATOM     17  C   UNL     1       7.660   4.920  12.577  0.00  0.00    +0.000 A 
ATOM     18  C   UNL     1       6.759   3.988  12.093  0.00  0.00    +0.000 A 
ATOM     19  N   UNL     1       5.793   3.414  12.837  0.00  0.00    +0.000 NA
ATOM     20  C   UNL     1       5.729   3.796  14.138  0.00  0.00    +0.000 A 
ENDBRANCH   4  15
TORSDOF 2
ENDMDL
