MODEL 1
REMARK VINA RESULT:      -8.1      0.000      0.000
REMARK  Name = 
REMARK  8 active torsions:
REMARK  status: ('A' for Active; 'I' for Inactive)
REMARK    1  A    between atoms: C_1  and  C_2
REMARK    2  A    between atoms: C_2  and  C_3
REMARK    3  A    between atoms: C_2  and  O_4
REMARK    4  A    between atoms: O_4  and  C_5
REMARK    5  A    between atoms: C_8  and  C_9
REMARK    6  A    between atoms: N_13  and  C_14
REMARK    7  A    between atoms: C_18  and  C_19
REMARK    8  A    between atoms: C_19  and  O_21
REMARK                            x       y       z     vdW  Elec       q    Type
REMARK                         _______ _______ _______ _____ _____    ______ ____
ROOT
ATOM      1  C   UNL     1       6.351   6.335  16.804  0.00  0.00    +0.000 C 
ATOM      2  C   UNL     1       7.176   5.752  17.941  0.00  0.00    +0.000 C 
ATOM      3  C   UNL     1       6.171   5.378  18.988  0.00  0.00    +0.000 C 
ATOM      4  O   UNL     1       6.492   4.776  20.004  0.00  0.00    +0.000 OA
ATOM      5  N   UNL     1       4.918   5.788  18.591  0.00  0.00    +0.000 N 
ATOM      6  C   UNL     1       4.953   6.431  17.374  0.00  0.00    +0.000 C 
ATOM      7  O   UNL     1       4.034   7.016  16.810  0.00  0.00    +0.000 OA
ENDROOT
BRANCH   1  11
ATOM      8  C   UNL     1       6.449   3.898  13.221  0.00  0.00    +0.000 A 
ATOM      9  C   UNL     1       5.439   3.730  14.163  0.00  0.00    +0.000 A 
ATOM     10  C   UNL     1       5.402   4.519  15.313  0.00  0.00    +0.000 A 
ATOM     11  C   UNL     1       6.388   5.486  15.551  0.00  0.00    +0.000 A 
ATOM     12  C   UNL     1       7.411   5.648  14.609  0.00  0.00    +0.000 A 
ATOM     13  C   UNL     1       7.439   4.857  13.453  0.00  0.00    +0.000 A 
BRANCH   8  14
ATOM     14  O   UNL     1       6.577   3.191  12.059  0.00  0.00    +0.000 OA
BRANCH  14  16
ATOM     15  C   UNL     1       4.447   2.844  11.044  0.00  0.00    +0.000 C 
ATOM     16  C   UNL     1       5.607   2.175  11.771  0.00  0.00    +0.000 C 
ATOM     17  C   UNL     1       6.233   1.091  10.896  0.00  0.00    +0.000 C 
ENDBRANCH  14  16
ENDBRANCH   8  14
ENDBRANCH   1  11
BRANCH   5  18
ATOM     18  C   UNL     1       3.726   5.595  19.348  0.00  0.00    +0.000 A 
ATOM     19  C   UNL     1       2.939   6.682  19.756  0.00  0.00    +0.000 A 
ATOM     20  C   UNL     1       1.761   6.489  20.484  0.00  0.00    +0.000 A 
ATOM     21  C   UNL     1       1.360   5.203  20.834  0.00  0.00    +0.000 A 
ATOM     22  C   UNL     1       2.135   4.103  20.458  0.00  0.00    +0.000 A 
ATOM     23  C   UNL     1       3.314   4.303  19.723  0.00  0.00    +0.000 A 
BRANCH  22  24
ATOM     24  C   UNL     1       1.705   2.759  20.924  0.00  0.00    +0.000 C 
ATOM     25  O   UNL     1       1.513   2.506  22.105  0.00  0.00    +0.000 OA
BRANCH  24  26
ATOM     26  O   UNL     1       1.521   1.853  19.944  0.00  0.00    +0.000 OA
ATOM     27  H   UNL     1       1.350   2.211  19.053  0.00  0.00    +0.000 HD
ENDBRANCH  24  26
ENDBRANCH  22  24
ENDBRANCH   5  18
TORSDOF 6
ENDMDL
MODEL 2
REMARK VINA RESULT:      -8.0      2.336      7.707
REMARK  Name = 
REMARK  8 active torsions:
REMARK  status: ('A' for Active; 'I' for Inactive)
REMARK    1  A    between atoms: C_1  and  C_2
REMARK    2  A    between atoms: C_2  and  C_3
REMARK    3  A    between atoms: C_2  and  O_4
REMARK    4  A    between atoms: O_4  and  C_5
REMARK    5  A    between atoms: C_8  and  C_9
REMARK    6  A    between atoms: N_13  and  C_14
REMARK    7  A    between atoms: C_18  and  C_19
REMARK    8  A    between atoms: C_19  and  O_21
REMARK                            x       y       z     vdW  Elec       q    Type
REMARK                         _______ _______ _______ _____ _____    ______ ____
ROOT
ATOM      1  C   UNL     1       4.478   4.495  18.300  0.00  0.00    +0.000 C 
ATOM      2  C   UNL     1       5.929   4.646  18.730  0.00  0.00    +0.000 C 
ATOM      3  C   UNL     1       6.705   4.670  17.448  0.00  0.00    +0.000 C 
ATOM      4  O   UNL     1       7.908   4.889  17.427  0.00  0.00    +0.000 OA
ATOM      5  N   UNL     1       5.853   4.445  16.390  0.00  0.00    +0.000 N 
ATOM      6  C   UNL     1       4.557   4.245  16.811  0.00  0.00    +0.000 C 
ATOM      7  O   UNL     1       3.594   3.904  16.133  0.00  0.00    +0.000 OA
ENDROOT
BRANCH   1  11
ATOM      8  C   UNL     1       2.068   7.977  19.228  0.00  0.00    +0.000 A 
ATOM      9  C   UNL     1       2.101   6.888  20.094  0.00  0.00    +0.000 A 
ATOM     10  C   UNL     1       2.883   5.770  19.800  0.00  0.00    +0.000 A 
ATOM     11  C   UNL     1       3.638   5.714  18.621  0.00  0.00    +0.000 A 
ATOM     12  C   UNL     1       3.596   6.804  17.744  0.00  0.00    +0.000 A 
ATOM     13  C   UNL     1       2.816   7.926  18.048  0.00  0.00    +0.000 A 
BRANCH   8  14
ATOM     14  O   UNL     1       1.350   9.123  19.420  0.00  0.00    +0.000 OA
BRANCH  14  16
ATOM     15  C   UNL     1      -0.422  10.033  18.109  0.00  0.00    +0.000 C 
ATOM     16  C   UNL     1       1.090   9.961  18.286  0.00  0.00    +0.000 C 
ATOM     17  C   UNL     1       1.668  11.354  18.523  0.00  0.00    +0.000 C 
ENDBRANCH  14  16
ENDBRANCH   8  14
ENDBRANCH   1  11
BRANCH   5  18
ATOM     18  C   UNL     1       6.255   4.400  15.023  0.00  0.00    +0.000 A 
ATOM     19  C   UNL     1       7.285   5.219  14.540  0.00  0.00    +0.000 A 
ATOM     20  C   UNL     1       7.689   5.160  13.203  0.00  0.00    +0.000 A 
ATOM     21  C   UNL     1       7.053   4.294  12.319  0.00  0.00    +0.000 A 
ATOM     22  C   UNL     1       6.010   3.479  12.768  0.00  0.00    +0.000 A 
ATOM     23  C   UNL     1       5.612   3.540  14.114  0.00  0.00    +0.000 A 
BRANCH  22  24
ATOM     24  C   UNL     1       5.312   2.630  11.769  0.00  0.00    +0.000 C 
ATOM     25  O   UNL     1       4.251   2.958  11.258  0.00  0.00    +0.000 OA
BRANCH  24  26
ATOM     26  O   UNL     1       5.951   1.486  11.454  0.00  0.00    +0.000 OA
ATOM     27  H   UNL     1       5.903   1.210  10.521  0.00  0.00    +0.000 HD
ENDBRANCH  24  26
ENDBRANCH  22  24
ENDBRANCH   5  18
TORSDOF 6
ENDMDL
MODEL 3
REMARK VINA RESULT:      -7.9      2.384      7.806
REMARK  Name = 
REMARK  8 active torsions:
REMARK  status: ('A' for Active; 'I' for Inactive)
REMARK    1  A    between atoms: C_1  and  C_2
REMARK    2  A    between atoms: C_2  and  C_3
REMARK    3  A    between atoms: C_2  and  O_4
REMARK    4  A    between atoms: O_4  and  C_5
REMARK    5  A    between atoms: C_8  and  C_9
REMARK    6  A    between atoms: N_13  and  C_14
REMARK    7  A    between atoms: C_18  and  C_19
REMARK    8  A    between atoms: C_19  and  O_21
REMARK                            x       y       z     vdW  Elec       q    Type
REMARK                         _______ _______ _______ _____ _____    ______ ____
ROOT
ATOM      1  C   UNL     1       4.506   4.564  18.195  0.00  0.00    +0.000 C 
ATOM      2  C   UNL     1       5.958   4.720  18.619  0.00  0.00    +0.000 C 
ATOM      3  C   UNL     1       6.731   4.718  17.335  0.00  0.00    +0.000 C 
ATOM      4  O   UNL     1       7.935   4.935  17.308  0.00  0.00    +0.000 OA
ATOM      5  N   UNL     1       5.878   4.474  16.283  0.00  0.00    +0.000 N 
ATOM      6  C   UNL     1       4.582   4.285  16.711  0.00  0.00    +0.000 C 
ATOM      7  O   UNL     1       3.617   3.933  16.041  0.00  0.00    +0.000 OA
ENDROOT
BRANCH   1  11
ATOM      8  C   UNL     1       2.114   8.078  19.040  0.00  0.00    +0.000 A 
ATOM      9  C   UNL     1       2.892   8.012  17.888  0.00  0.00    +0.000 A 
ATOM     10  C   UNL     1       3.656   6.878  17.611  0.00  0.00    +0.000 A 
ATOM     11  C   UNL     1       3.668   5.790  18.493  0.00  0.00    +0.000 A 
ATOM     12  C   UNL     1       2.895   5.860  19.658  0.00  0.00    +0.000 A 
ATOM     13  C   UNL     1       2.125   6.998  19.927  0.00  0.00    +0.000 A 
BRANCH   8  14
ATOM     14  O   UNL     1       1.322   9.130  19.404  0.00  0.00    +0.000 OA
BRANCH  14  16
ATOM     15  C   UNL     1      -0.553  10.150  18.341  0.00  0.00    +0.000 C 
ATOM     16  C   UNL     1       0.969  10.094  18.403  0.00  0.00    +0.000 C 
ATOM     17  C   UNL     1       1.540  11.462  18.771  0.00  0.00    +0.000 C 
ENDBRANCH  14  16
ENDBRANCH   8  14
ENDBRANCH   1  11
BRANCH   5  18
ATOM     18  C   UNL     1       6.276   4.402  14.917  0.00  0.00    +0.000 A 
ATOM     19  C   UNL     1       7.312   5.206  14.417  0.00  0.00    +0.000 A 
ATOM     20  C   UNL     1       7.713   5.120  13.080  0.00  0.00    +0.000 A 
ATOM     21  C   UNL     1       7.069   4.243  12.214  0.00  0.00    +0.000 A 
ATOM     22  C   UNL     1       6.021   3.444  12.679  0.00  0.00    +0.000 A 
ATOM     23  C   UNL     1       5.626   3.531  14.024  0.00  0.00    +0.000 A 
BRANCH  22  24
ATOM     24  C   UNL     1       5.316   2.582  11.696  0.00  0.00    +0.000 C 
ATOM     25  O   UNL     1       5.779   1.520  11.306  0.00  0.00    +0.000 OA
BRANCH  24  26
ATOM     26  O   UNL     1       4.119   3.049  11.290  0.00  0.00    +0.000 OA
ATOM     27  H   UNL     1       3.524   3.376  11.990  0.00  0.00    +0.000 HD
ENDBRANCH  24  26
ENDBRANCH  22  24
ENDBRANCH   5  18
TORSDOF 6
ENDMDL
MODEL 4
REMARK VINA RESULT:      -7.8      2.399      3.313
REMARK  Name = 
REMARK  8 active torsions:
REMARK  status: ('A' for Active; 'I' for Inactive)
REMARK    1  A    between atoms: C_1  and  C_2
REMARK    2  A    between atoms: C_2  and  C_3
REMARK    3  A    between atoms: C_2  and  O_4
REMARK    4  A    between atoms: O_4  and  C_5
REMARK    5  A    between atoms: C_8  and  C_9
REMARK    6  A    between atoms: N_13  and  C_14
REMARK    7  A    between atoms: C_18  and  C_19
REMARK    8  A    between atoms: C_19  and  O_21
REMARK                            x       y       z     vdW  Elec       q    Type
REMARK                         _______ _______ _______ _____ _____    ______ ____
ROOT
ATOM      1  C   UNL     1       5.654   4.924  17.878  0.00  0.00    +0.000 C 
ATOM      2  C   UNL     1       4.697   3.964  18.568  0.00  0.00    +0.000 C 
ATOM      3  C   UNL     1       3.505   4.802  18.920  0.00  0.00    +0.000 C 
ATOM      4  O   UNL     1       2.491   4.312  19.398  0.00  0.00    +0.000 OA
ATOM      5  N   UNL     1       3.754   6.116  18.594  0.00  0.00    +0.000 N 
ATOM      6  C   UNL     1       5.015   6.281  18.066  0.00  0.00    +0.000 C 
ATOM      7  O   UNL     1       5.580   7.335  17.792  0.00  0.00    +0.000 OA
ENDROOT
BRANCH   1  11
ATOM      8  C   UNL     1       6.256   4.003  13.685  0.00  0.00    +0.000 A 
ATOM      9  C   UNL     1       7.174   4.787  14.376  0.00  0.00    +0.000 A 
ATOM     10  C   UNL     1       6.985   5.077  15.728  0.00  0.00    +0.000 A 
ATOM     11  C   UNL     1       5.860   4.599  16.413  0.00  0.00    +0.000 A 
ATOM     12  C   UNL     1       4.931   3.820  15.715  0.00  0.00    +0.000 A 
ATOM     13  C   UNL     1       5.129   3.526  14.361  0.00  0.00    +0.000 A 
BRANCH   8  14
ATOM     14  O   UNL     1       6.345   3.649  12.369  0.00  0.00    +0.000 OA
BRANCH  14  16
ATOM     15  C   UNL     1       4.403   3.126  11.087  0.00  0.00    +0.000 C 
ATOM     16  C   UNL     1       5.552   2.548  11.905  0.00  0.00    +0.000 C 
ATOM     17  C   UNL     1       6.404   1.616  11.047  0.00  0.00    +0.000 C 
ENDBRANCH  14  16
ENDBRANCH   8  14
ENDBRANCH   1  11
BRANCH   5  18
ATOM     18  C   UNL     1       2.835   7.187  18.794  0.00  0.00    +0.000 A 
ATOM     19  C   UNL     1       2.465   8.035  17.741  0.00  0.00    +0.000 A 
ATOM     20  C   UNL     1       1.550   9.074  17.936  0.00  0.00    +0.000 A 
ATOM     21  C   UNL     1       1.005   9.297  19.196  0.00  0.00    +0.000 A 
ATOM     22  C   UNL     1       1.371   8.479  20.270  0.00  0.00    +0.000 A 
ATOM     23  C   UNL     1       2.286   7.435  20.066  0.00  0.00    +0.000 A 
BRANCH  22  24
ATOM     24  C   UNL     1       0.821   8.807  21.611  0.00  0.00    +0.000 C 
ATOM     25  O   UNL     1      -0.370   8.713  21.871  0.00  0.00    +0.000 OA
BRANCH  24  26
ATOM     26  O   UNL     1       1.739   9.191  22.519  0.00  0.00    +0.000 OA
ATOM     27  H   UNL     1       1.415   9.753  23.247  0.00  0.00    +0.000 HD
ENDBRANCH  24  26
ENDBRANCH  22  24
ENDBRANCH   5  18
TORSDOF 6
ENDMDL
MODEL 5
REMARK VINA RESULT:      -7.8      2.329      7.947
REMARK  Name = 
REMARK  8 active torsions:
REMARK  status: ('A' for Active; 'I' for Inactive)
REMARK    1  A    between atoms: C_1  and  C_2
REMARK    2  A    between atoms: C_2  and  C_3
REMARK    3  A    between atoms: C_2  and  O_4
REMARK    4  A    between atoms: O_4  and  C_5
REMARK    5  A    between atoms: C_8  and  C_9
REMARK    6  A    between atoms: N_13  and  C_14
REMARK    7  A    between atoms: C_18  and  C_19
REMARK    8  A    between atoms: C_19  and  O_21
REMARK                            x       y       z     vdW  Elec       q    Type
REMARK                         _______ _______ _______ _____ _____    ______ ____
ROOT
ATOM      1  C   UNL     1       4.483   4.590  18.198  0.00  0.00    +0.000 C 
ATOM      2  C   UNL     1       5.936   4.720  18.625  0.00  0.00    +0.000 C 
ATOM      3  C   UNL     1       6.712   4.704  17.343  0.00  0.00    +0.000 C 
ATOM      4  O   UNL     1       7.920   4.899  17.318  0.00  0.00    +0.000 OA
ATOM      5  N   UNL     1       5.857   4.473  16.289  0.00  0.00    +0.000 N 
ATOM      6  C   UNL     1       4.557   4.308  16.714  0.00  0.00    +0.000 C 
ATOM      7  O   UNL     1       3.587   3.972  16.043  0.00  0.00    +0.000 OA
ENDROOT
BRANCH   1  11
ATOM      8  C   UNL     1       2.141   8.136  19.053  0.00  0.00    +0.000 A 
ATOM      9  C   UNL     1       2.089   7.033  19.900  0.00  0.00    +0.000 A 
ATOM     10  C   UNL     1       2.849   5.894  19.630  0.00  0.00    +0.000 A 
ATOM     11  C   UNL     1       3.666   5.831  18.493  0.00  0.00    +0.000 A 
ATOM     12  C   UNL     1       3.710   6.936  17.635  0.00  0.00    +0.000 A 
ATOM     13  C   UNL     1       2.951   8.078  17.915  0.00  0.00    +0.000 A 
BRANCH   8  14
ATOM     14  O   UNL     1       1.451   9.302  19.225  0.00  0.00    +0.000 OA
BRANCH  14  16
ATOM     15  C   UNL     1       0.969   9.975  21.462  0.00  0.00    +0.000 C 
ATOM     16  C   UNL     1       0.401   9.334  20.201  0.00  0.00    +0.000 C 
ATOM     17  C   UNL     1      -0.778  10.147  19.672  0.00  0.00    +0.000 C 
ENDBRANCH  14  16
ENDBRANCH   8  14
ENDBRANCH   1  11
BRANCH   5  18
ATOM     18  C   UNL     1       6.257   4.393  14.924  0.00  0.00    +0.000 A 
ATOM     19  C   UNL     1       7.286   5.200  14.418  0.00  0.00    +0.000 A 
ATOM     20  C   UNL     1       7.689   5.106  13.083  0.00  0.00    +0.000 A 
ATOM     21  C   UNL     1       7.054   4.216  12.223  0.00  0.00    +0.000 A 
ATOM     22  C   UNL     1       6.012   3.412  12.695  0.00  0.00    +0.000 A 
ATOM     23  C   UNL     1       5.615   3.508  14.038  0.00  0.00    +0.000 A 
BRANCH  22  24
ATOM     24  C   UNL     1       5.314   2.536  11.719  0.00  0.00    +0.000 C 
ATOM     25  O   UNL     1       4.269   2.863  11.175  0.00  0.00    +0.000 OA
BRANCH  24  26
ATOM     26  O   UNL     1       5.935   1.368  11.463  0.00  0.00    +0.000 OA
ATOM     27  H   UNL     1       6.186   1.208  10.535  0.00  0.00    +0.000 HD
ENDBRANCH  24  26
ENDBRANCH  22  24
ENDBRANCH   5  18
TORSDOF 6
ENDMDL
MODEL 6
REMARK VINA RESULT:      -7.8      2.266      8.009
REMARK  Name = 
REMARK  8 active torsions:
REMARK  status: ('A' for Active; 'I' for Inactive)
REMARK    1  A    between atoms: C_1  and  C_2
REMARK    2  A    between atoms: C_2  and  C_3
REMARK    3  A    between atoms: C_2  and  O_4
REMARK    4  A    between atoms: O_4  and  C_5
REMARK    5  A    between atoms: C_8  and  C_9
REMARK    6  A    between atoms: N_13  and  C_14
REMARK    7  A    between atoms: C_18  and  C_19
REMARK    8  A    between atoms: C_19  and  O_21
REMARK                            x       y       z     vdW  Elec       q    Type
REMARK                         _______ _______ _______ _____ _____    ______ ____
ROOT
ATOM      1  C   UNL     1       4.553   4.575  18.336  0.00  0.00    +0.000 C 
ATOM      2  C   UNL     1       6.000   4.817  18.739  0.00  0.00    +0.000 C 
ATOM      3  C   UNL     1       6.756   4.840  17.445  0.00  0.00    +0.000 C 
ATOM      4  O   UNL     1       7.946   5.123  17.399  0.00  0.00    +0.000 OA
ATOM      5  N   UNL     1       5.904   4.535  16.408  0.00  0.00    +0.000 N 
ATOM      6  C   UNL     1       4.626   4.280  16.855  0.00  0.00    +0.000 C 
ATOM      7  O   UNL     1       3.674   3.866  16.203  0.00  0.00    +0.000 OA
ENDROOT
BRANCH   1  11
ATOM      8  C   UNL     1       1.982   7.964  19.167  0.00  0.00    +0.000 A 
ATOM      9  C   UNL     1       2.784   7.947  18.031  0.00  0.00    +0.000 A 
ATOM     10  C   UNL     1       3.607   6.853  17.758  0.00  0.00    +0.000 A 
ATOM     11  C   UNL     1       3.653   5.757  18.630  0.00  0.00    +0.000 A 
ATOM     12  C   UNL     1       2.854   5.778  19.779  0.00  0.00    +0.000 A 
ATOM     13  C   UNL     1       2.025   6.876  20.043  0.00  0.00    +0.000 A 
BRANCH   8  14
ATOM     14  O   UNL     1       1.134   8.973  19.525  0.00  0.00    +0.000 OA
BRANCH  14  16
ATOM     15  C   UNL     1       0.975  10.820  21.026  0.00  0.00    +0.000 C 
ATOM     16  C   UNL     1       1.015   9.301  20.916  0.00  0.00    +0.000 C 
ATOM     17  C   UNL     1      -0.261   8.689  21.489  0.00  0.00    +0.000 C 
ENDBRANCH  14  16
ENDBRANCH   8  14
ENDBRANCH   1  11
BRANCH   5  18
ATOM     18  C   UNL     1       6.289   4.466  15.038  0.00  0.00    +0.000 A 
ATOM     19  C   UNL     1       7.325   5.263  14.532  0.00  0.00    +0.000 A 
ATOM     20  C   UNL     1       7.713   5.181  13.191  0.00  0.00    +0.000 A 
ATOM     21  C   UNL     1       7.054   4.312  12.326  0.00  0.00    +0.000 A 
ATOM     22  C   UNL     1       6.005   3.519  12.798  0.00  0.00    +0.000 A 
ATOM     23  C   UNL     1       5.623   3.603  14.147  0.00  0.00    +0.000 A 
BRANCH  22  24
ATOM     24  C   UNL     1       5.283   2.667  11.819  0.00  0.00    +0.000 C 
ATOM     25  O   UNL     1       4.245   3.024  11.279  0.00  0.00    +0.000 OA
BRANCH  24  26
ATOM     26  O   UNL     1       5.874   1.485  11.554  0.00  0.00    +0.000 OA
ATOM     27  H   UNL     1       6.077   1.305  10.618  0.00  0.00    +0.000 HD
ENDBRANCH  24  26
ENDBRANCH  22  24
ENDBRANCH   5  18
TORSDOF 6
ENDMDL
MODEL 7
REMARK VINA RESULT:      -7.6      2.383      4.352
REMARK  Name = 
REMARK  8 active torsions:
REMARK  status: ('A' for Active; 'I' for Inactive)
REMARK    1  A    between atoms: C_1  and  C_2
REMARK    2  A    between atoms: C_2  and  C_3
REMARK    3  A    between atoms: C_2  and  O_4
REMARK    4  A    between atoms: O_4  and  C_5
REMARK    5  A    between atoms: C_8  and  C_9
REMARK    6  A    between atoms: N_13  and  C_14
REMARK    7  A    between atoms: C_18  and  C_19
REMARK    8  A    between atoms: C_19  and  O_21
REMARK                            x       y       z     vdW  Elec       q    Type
REMARK                         _______ _______ _______ _____ _____    ______ ____
ROOT
ATOM      1  C   UNL     1       4.386   3.894  18.080  0.00  0.00    +0.000 C 
ATOM      2  C   UNL     1       3.023   3.454  17.567  0.00  0.00    +0.000 C 
ATOM      3  C   UNL     1       2.084   4.535  18.010  0.00  0.00    +0.000 C 
ATOM      4  O   UNL     1       0.909   4.548  17.668  0.00  0.00    +0.000 OA
ATOM      5  N   UNL     1       2.763   5.446  18.788  0.00  0.00    +0.000 N 
ATOM      6  C   UNL     1       4.085   5.094  18.948  0.00  0.00    +0.000 C 
ATOM      7  O   UNL     1       4.918   5.626  19.676  0.00  0.00    +0.000 OA
ENDROOT
BRANCH   1  11
ATOM      8  C   UNL     1       7.164   4.873  14.900  0.00  0.00    +0.000 A 
ATOM      9  C   UNL     1       7.597   4.802  16.220  0.00  0.00    +0.000 A 
ATOM     10  C   UNL     1       6.705   4.478  17.243  0.00  0.00    +0.000 A 
ATOM     11  C   UNL     1       5.354   4.235  16.965  0.00  0.00    +0.000 A 
ATOM     12  C   UNL     1       4.915   4.318  15.639  0.00  0.00    +0.000 A 
ATOM     13  C   UNL     1       5.816   4.636  14.615  0.00  0.00    +0.000 A 
BRANCH   8  14
ATOM     14  O   UNL     1       7.949   5.169  13.821  0.00  0.00    +0.000 OA
BRANCH  14  16
ATOM     15  C   UNL     1       8.146   6.198  11.679  0.00  0.00    +0.000 C 
ATOM     16  C   UNL     1       7.334   5.227  12.527  0.00  0.00    +0.000 C 
ATOM     17  C   UNL     1       7.323   3.839  11.892  0.00  0.00    +0.000 C 
ENDBRANCH  14  16
ENDBRANCH   8  14
ENDBRANCH   1  11
BRANCH   5  18
ATOM     18  C   UNL     1       2.176   6.602  19.378  0.00  0.00    +0.000 A 
ATOM     19  C   UNL     1       1.665   6.574  20.683  0.00  0.00    +0.000 A 
ATOM     20  C   UNL     1       1.106   7.715  21.267  0.00  0.00    +0.000 A 
ATOM     21  C   UNL     1       1.030   8.901  20.544  0.00  0.00    +0.000 A 
ATOM     22  C   UNL     1       1.514   8.955  19.234  0.00  0.00    +0.000 A 
ATOM     23  C   UNL     1       2.079   7.806  18.656  0.00  0.00    +0.000 A 
BRANCH  22  24
ATOM     24  C   UNL     1       1.338  10.222  18.479  0.00  0.00    +0.000 C 
ATOM     25  O   UNL     1       0.675  11.154  18.911  0.00  0.00    +0.000 OA
BRANCH  24  26
ATOM     26  O   UNL     1       1.984  10.271  17.298  0.00  0.00    +0.000 OA
ATOM     27  H   UNL     1       2.954  10.178  17.334  0.00  0.00    +0.000 HD
ENDBRANCH  24  26
ENDBRANCH  22  24
ENDBRANCH   5  18
TORSDOF 6
ENDMDL
MODEL 8
REMARK VINA RESULT:      -7.6      5.118      8.844
REMARK  Name = 
REMARK  8 active torsions:
REMARK  status: ('A' for Active; 'I' for Inactive)
REMARK    1  A    between atoms: C_1  and  C_2
REMARK    2  A    between atoms: C_2  and  C_3
REMARK    3  A    between atoms: C_2  and  O_4
REMARK    4  A    between atoms: O_4  and  C_5
REMARK    5  A    between atoms: C_8  and  C_9
REMARK    6  A    between atoms: N_13  and  C_14
REMARK    7  A    between atoms: C_18  and  C_19
REMARK    8  A    between atoms: C_19  and  O_21
REMARK                            x       y       z     vdW  Elec       q    Type
REMARK                         _______ _______ _______ _____ _____    ______ ____
ROOT
ATOM      1  C   UNL     1       1.036  10.185  19.061  0.00  0.00    +0.000 C 
ATOM      2  C   UNL     1       1.978  10.015  17.880  0.00  0.00    +0.000 C 
ATOM      3  C   UNL     1       2.479   8.607  17.992  0.00  0.00    +0.000 C 
ATOM      4  O   UNL     1       3.184   8.102  17.128  0.00  0.00    +0.000 OA
ATOM      5  N   UNL     1       1.999   8.038  19.150  0.00  0.00    +0.000 N 
ATOM      6  C   UNL     1       1.226   8.922  19.870  0.00  0.00    +0.000 C 
ATOM      7  O   UNL     1       0.758   8.764  20.993  0.00  0.00    +0.000 OA
ENDROOT
BRANCH   1  11
ATOM      8  C   UNL     1      -3.097  10.729  17.875  0.00  0.00    +0.000 A 
ATOM      9  C   UNL     1      -2.575  11.426  18.960  0.00  0.00    +0.000 A 
ATOM     10  C   UNL     1      -1.242  11.258  19.338  0.00  0.00    +0.000 A 
ATOM     11  C   UNL     1      -0.407  10.373  18.643  0.00  0.00    +0.000 A 
ATOM     12  C   UNL     1      -0.935   9.663  17.558  0.00  0.00    +0.000 A 
ATOM     13  C   UNL     1      -2.271   9.842  17.180  0.00  0.00    +0.000 A 
BRANCH   8  14
ATOM     14  O   UNL     1      -4.379  10.824  17.412  0.00  0.00    +0.000 OA
BRANCH  14  16
ATOM     15  C   UNL     1      -5.964  12.600  17.263  0.00  0.00    +0.000 C 
ATOM     16  C   UNL     1      -5.329  11.568  18.187  0.00  0.00    +0.000 C 
ATOM     17  C   UNL     1      -6.392  10.629  18.751  0.00  0.00    +0.000 C 
ENDBRANCH  14  16
ENDBRANCH   8  14
ENDBRANCH   1  11
BRANCH   5  18
ATOM     18  C   UNL     1       2.278   6.707  19.574  0.00  0.00    +0.000 A 
ATOM     19  C   UNL     1       1.365   5.985  20.355  0.00  0.00    +0.000 A 
ATOM     20  C   UNL     1       1.634   4.672  20.755  0.00  0.00    +0.000 A 
ATOM     21  C   UNL     1       2.834   4.066  20.397  0.00  0.00    +0.000 A 
ATOM     22  C   UNL     1       3.772   4.768  19.635  0.00  0.00    +0.000 A 
ATOM     23  C   UNL     1       3.493   6.084  19.233  0.00  0.00    +0.000 A 
BRANCH  22  24
ATOM     24  C   UNL     1       5.069   4.104  19.346  0.00  0.00    +0.000 C 
ATOM     25  O   UNL     1       6.109   4.733  19.207  0.00  0.00    +0.000 OA
BRANCH  24  26
ATOM     26  O   UNL     1       5.013   2.760  19.274  0.00  0.00    +0.000 OA
ATOM     27  H   UNL     1       4.549   2.390  18.501  0.00  0.00    +0.000 HD
ENDBRANCH  24  26
ENDBRANCH  22  24
ENDBRANCH   5  18
TORSDOF 6
ENDMDL
MODEL 9
REMARK VINA RESULT:      -7.4      2.497      3.358
REMARK  Name = 
REMARK  8 active torsions:
REMARK  status: ('A' for Active; 'I' for Inactive)
REMARK    1  A    between atoms: C_1  and  C_2
REMARK    2  A    between atoms: C_2  and  C_3
REMARK    3  A    between atoms: C_2  and  O_4
REMARK    4  A    between atoms: O_4  and  C_5
REMARK    5  A    between atoms: C_8  and  C_9
REMARK    6  A    between atoms: N_13  and  C_14
REMARK    7  A    between atoms: C_18  and  C_19
REMARK    8  A    between atoms: C_19  and  O_21
REMARK                            x       y       z     vdW  Elec       q    Type
REMARK                         _______ _______ _______ _____ _____    ______ ____
ROOT
ATOM      1  C   UNL     1       5.507   5.136  18.059  0.00  0.00    +0.000 C 
ATOM      2  C   UNL     1       4.555   4.203  18.791  0.00  0.00    +0.000 C 
ATOM      3  C   UNL     1       3.351   5.044  19.087  0.00  0.00    +0.000 C 
ATOM      4  O   UNL     1       2.338   4.568  19.582  0.00  0.00    +0.000 OA
ATOM      5  N   UNL     1       3.587   6.342  18.695  0.00  0.00    +0.000 N 
ATOM      6  C   UNL     1       4.851   6.494  18.170  0.00  0.00    +0.000 C 
ATOM      7  O   UNL     1       5.406   7.539  17.845  0.00  0.00    +0.000 OA
ENDROOT
BRANCH   1  11
ATOM      8  C   UNL     1       6.137   3.988  13.927  0.00  0.00    +0.000 A 
ATOM      9  C   UNL     1       5.005   3.562  14.614  0.00  0.00    +0.000 A 
ATOM     10  C   UNL     1       4.797   3.938  15.942  0.00  0.00    +0.000 A 
ATOM     11  C   UNL     1       5.730   4.738  16.615  0.00  0.00    +0.000 A 
ATOM     12  C   UNL     1       6.875   5.157  15.927  0.00  0.00    +0.000 A 
ATOM     13  C   UNL     1       7.074   4.782  14.593  0.00  0.00    +0.000 A 
BRANCH   8  14
ATOM     14  O   UNL     1       6.435   3.690  12.627  0.00  0.00    +0.000 OA
BRANCH  14  16
ATOM     15  C   UNL     1       4.566   3.138  11.254  0.00  0.00    +0.000 C 
ATOM     16  C   UNL     1       5.765   2.582  12.012  0.00  0.00    +0.000 C 
ATOM     17  C   UNL     1       6.715   1.863  11.057  0.00  0.00    +0.000 C 
ENDBRANCH  14  16
ENDBRANCH   8  14
ENDBRANCH   1  11
BRANCH   5  18
ATOM     18  C   UNL     1       2.655   7.412  18.831  0.00  0.00    +0.000 A 
ATOM     19  C   UNL     1       2.325   8.232  17.743  0.00  0.00    +0.000 A 
ATOM     20  C   UNL     1       1.397   9.270  17.874  0.00  0.00    +0.000 A 
ATOM     21  C   UNL     1       0.797   9.517  19.104  0.00  0.00    +0.000 A 
ATOM     22  C   UNL     1       1.120   8.727  20.211  0.00  0.00    +0.000 A 
ATOM     23  C   UNL     1       2.050   7.684  20.072  0.00  0.00    +0.000 A 
BRANCH  22  24
ATOM     24  C   UNL     1       0.512   9.082  21.519  0.00  0.00    +0.000 C 
ATOM     25  O   UNL     1      -0.505   8.545  21.935  0.00  0.00    +0.000 OA
BRANCH  24  26
ATOM     26  O   UNL     1       1.180  10.020  22.219  0.00  0.00    +0.000 OA
ATOM     27  H   UNL     1       1.537   9.740  23.081  0.00  0.00    +0.000 HD
ENDBRANCH  24  26
ENDBRANCH  22  24
ENDBRANCH   5  18
TORSDOF 6
ENDMDL
