MODEL 1
REMARK VINA RESULT:      -7.3      0.000      0.000
REMARK  Name = 
REMARK  4 active torsions:
REMARK  status: ('A' for Active; 'I' for Inactive)
REMARK    1  A    between atoms: C_1  and  C_2
REMARK    2  A    between atoms: C_7  and  C_8
REMARK    3  A    between atoms: C_11  and  C_13
REMARK    4  A    between atoms: C_20  and  C_21
REMARK                            x       y       z     vdW  Elec       q    Type
REMARK                         _______ _______ _______ _____ _____    ______ ____
ROOT
ATOM      1  C   UNL     1       3.612   6.609  18.350  0.00  0.00    +0.000 C 
ATOM      2  C   UNL     1       2.587   7.687  18.574  0.00  0.00    +0.000 A 
ATOM      3  C   UNL     1       2.456   8.683  17.596  0.00  0.00    +0.000 A 
ATOM      4  C   UNL     1       1.561   9.728  17.773  0.00  0.00    +0.000 A 
ATOM      5  C   UNL     1       0.790   9.809  18.939  0.00  0.00    +0.000 A 
ATOM      6  C   UNL     1       0.893   8.817  19.946  0.00  0.00    +0.000 A 
ATOM      7  C   UNL     1       1.789   7.733  19.745  0.00  0.00    +0.000 A 
ATOM      8  C   UNL     1       1.947   6.635  20.770  0.00  0.00    +0.000 C 
ATOM      9  C   UNL     1       0.057   8.928  21.221  0.00  0.00    +0.000 C 
ATOM     10  N   UNL     1      -0.673  10.192  21.377  0.00  0.00    +0.000 N 
ATOM     11  C   UNL     1      -0.689  10.800  22.638  0.00  0.00    +0.000 C 
ATOM     12  O   UNL     1      -0.076  10.333  23.599  0.00  0.00    +0.000 OA
ATOM     13  C   UNL     1      -1.203  10.746  20.134  0.00  0.00    +0.000 C 
ATOM     14  C   UNL     1      -0.089  11.033  19.128  0.00  0.00    +0.000 C 
ENDROOT
BRANCH  11  15
ATOM     15  C   UNL     1      -1.455  12.058  22.881  0.00  0.00    +0.000 A 
ATOM     16  C   UNL     1      -2.760  12.067  23.381  0.00  0.00    +0.000 A 
ATOM     17  C   UNL     1      -3.452  13.271  23.539  0.00  0.00    +0.000 A 
ATOM     18  C   UNL     1      -2.807  14.482  23.294  0.00  0.00    +0.000 A 
ATOM     19  C   UNL     1      -1.473  14.490  22.891  0.00  0.00    +0.000 A 
ATOM     20  C   UNL     1      -0.801  13.284  22.675  0.00  0.00    +0.000 A 
ENDBRANCH  11  15
BRANCH  14  21
ATOM     21  C   UNL     1       0.701  12.288  19.494  0.00  0.00    +0.000 A 
ATOM     22  C   UNL     1       1.850  12.234  20.300  0.00  0.00    +0.000 A 
ATOM     23  C   UNL     1       2.586  13.387  20.572  0.00  0.00    +0.000 A 
ATOM     24  C   UNL     1       2.169  14.613  20.068  0.00  0.00    +0.000 A 
ATOM     25  C   UNL     1       1.005  14.694  19.304  0.00  0.00    +0.000 A 
ATOM     26  C   UNL     1       0.272  13.537  19.025  0.00  0.00    +0.000 A 
ENDBRANCH  14  21
TORSDOF 2
ENDMDL
MODEL 2
REMARK VINA RESULT:      -7.2      0.158      1.345
REMARK  Name = 
REMARK  4 active torsions:
REMARK  status: ('A' for Active; 'I' for Inactive)
REMARK    1  A    between atoms: C_1  and  C_2
REMARK    2  A    between atoms: C_7  and  C_8
REMARK    3  A    between atoms: C_11  and  C_13
REMARK    4  A    between atoms: C_20  and  C_21
REMARK                            x       y       z     vdW  Elec       q    Type
REMARK                         _______ _______ _______ _____ _____    ______ ____
ROOT
ATOM      1  C   UNL     1       3.610   6.646  18.315  0.00  0.00    +0.000 C 
ATOM      2  C   UNL     1       2.583   7.717  18.567  0.00  0.00    +0.000 A 
ATOM      3  C   UNL     1       2.440   8.728  17.606  0.00  0.00    +0.000 A 
ATOM      4  C   UNL     1       1.543   9.767  17.809  0.00  0.00    +0.000 A 
ATOM      5  C   UNL     1       0.783   9.826  18.983  0.00  0.00    +0.000 A 
ATOM      6  C   UNL     1       0.898   8.818  19.972  0.00  0.00    +0.000 A 
ATOM      7  C   UNL     1       1.796   7.741  19.746  0.00  0.00    +0.000 A 
ATOM      8  C   UNL     1       1.968   6.627  20.751  0.00  0.00    +0.000 C 
ATOM      9  C   UNL     1       0.074   8.905  21.257  0.00  0.00    +0.000 C 
ATOM     10  N   UNL     1      -0.659  10.163  21.440  0.00  0.00    +0.000 N 
ATOM     11  C   UNL     1      -0.666  10.751  22.711  0.00  0.00    +0.000 C 
ATOM     12  O   UNL     1      -0.042  10.271  23.658  0.00  0.00    +0.000 OA
ATOM     13  C   UNL     1      -1.202  10.736  20.212  0.00  0.00    +0.000 C 
ATOM     14  C   UNL     1      -0.098  11.043  19.199  0.00  0.00    +0.000 C 
ENDROOT
BRANCH  11  15
ATOM     15  C   UNL     1      -1.433  12.002  22.982  0.00  0.00    +0.000 A 
ATOM     16  C   UNL     1      -0.925  13.277  22.714  0.00  0.00    +0.000 A 
ATOM     17  C   UNL     1      -1.664  14.418  23.037  0.00  0.00    +0.000 A 
ATOM     18  C   UNL     1      -2.958  14.291  23.539  0.00  0.00    +0.000 A 
ATOM     19  C   UNL     1      -3.513  13.025  23.717  0.00  0.00    +0.000 A 
ATOM     20  C   UNL     1      -2.752  11.884  23.450  0.00  0.00    +0.000 A 
ENDBRANCH  11  15
BRANCH  14  21
ATOM     21  C   UNL     1       0.691  12.295  19.580  0.00  0.00    +0.000 A 
ATOM     22  C   UNL     1       0.332  13.570  19.115  0.00  0.00    +0.000 A 
ATOM     23  C   UNL     1       1.034  14.703  19.524  0.00  0.00    +0.000 A 
ATOM     24  C   UNL     1       2.122  14.576  20.378  0.00  0.00    +0.000 A 
ATOM     25  C   UNL     1       2.523  13.312  20.814  0.00  0.00    +0.000 A 
ATOM     26  C   UNL     1       1.814  12.178  20.410  0.00  0.00    +0.000 A 
ENDBRANCH  14  21
TORSDOF 2
ENDMDL
MODEL 3
REMARK VINA RESULT:      -6.8      2.729      5.217
REMARK  Name = 
REMARK  4 active torsions:
REMARK  status: ('A' for Active; 'I' for Inactive)
REMARK    1  A    between atoms: C_1  and  C_2
REMARK    2  A    between atoms: C_7  and  C_8
REMARK    3  A    between atoms: C_11  and  C_13
REMARK    4  A    between atoms: C_20  and  C_21
REMARK                            x       y       z     vdW  Elec       q    Type
REMARK                         _______ _______ _______ _____ _____    ______ ____
ROOT
ATOM      1  C   UNL     1      -0.306   9.347  23.325  0.00  0.00    +0.000 C 
ATOM      2  C   UNL     1      -0.120  10.240  22.128  0.00  0.00    +0.000 A 
ATOM      3  C   UNL     1       0.828   9.862  21.167  0.00  0.00    +0.000 A 
ATOM      4  C   UNL     1       1.075  10.672  20.068  0.00  0.00    +0.000 A 
ATOM      5  C   UNL     1       0.391  11.884  19.915  0.00  0.00    +0.000 A 
ATOM      6  C   UNL     1      -0.577  12.295  20.864  0.00  0.00    +0.000 A 
ATOM      7  C   UNL     1      -0.848  11.447  21.971  0.00  0.00    +0.000 A 
ATOM      8  C   UNL     1      -1.871  11.814  23.020  0.00  0.00    +0.000 C 
ATOM      9  C   UNL     1      -1.303  13.629  20.692  0.00  0.00    +0.000 C 
ATOM     10  N   UNL     1      -0.786  14.483  19.617  0.00  0.00    +0.000 N 
ATOM     11  C   UNL     1      -0.650  15.855  19.862  0.00  0.00    +0.000 C 
ATOM     12  O   UNL     1      -0.905  16.352  20.960  0.00  0.00    +0.000 OA
ATOM     13  C   UNL     1      -0.343  13.762  18.427  0.00  0.00    +0.000 C 
ATOM     14  C   UNL     1       0.783  12.780  18.753  0.00  0.00    +0.000 C 
ENDROOT
BRANCH  11  15
ATOM     15  C   UNL     1      -0.180  16.790  18.798  0.00  0.00    +0.000 A 
ATOM     16  C   UNL     1      -1.050  17.596  18.058  0.00  0.00    +0.000 A 
ATOM     17  C   UNL     1      -0.564  18.414  17.036  0.00  0.00    +0.000 A 
ATOM     18  C   UNL     1       0.808  18.508  16.812  0.00  0.00    +0.000 A 
ATOM     19  C   UNL     1       1.693  17.785  17.609  0.00  0.00    +0.000 A 
ATOM     20  C   UNL     1       1.203  16.921  18.592  0.00  0.00    +0.000 A 
ENDBRANCH  11  15
BRANCH  14  21
ATOM     21  C   UNL     1       2.116  13.493  18.969  0.00  0.00    +0.000 A 
ATOM     22  C   UNL     1       2.955  13.842  17.898  0.00  0.00    +0.000 A 
ATOM     23  C   UNL     1       4.139  14.544  18.118  0.00  0.00    +0.000 A 
ATOM     24  C   UNL     1       4.517  14.882  19.412  0.00  0.00    +0.000 A 
ATOM     25  C   UNL     1       3.721  14.503  20.493  0.00  0.00    +0.000 A 
ATOM     26  C   UNL     1       2.530  13.806  20.272  0.00  0.00    +0.000 A 
ENDBRANCH  14  21
TORSDOF 2
ENDMDL
MODEL 4
REMARK VINA RESULT:      -6.5      0.731      1.227
REMARK  Name = 
REMARK  4 active torsions:
REMARK  status: ('A' for Active; 'I' for Inactive)
REMARK    1  A    between atoms: C_1  and  C_2
REMARK    2  A    between atoms: C_7  and  C_8
REMARK    3  A    between atoms: C_11  and  C_13
REMARK    4  A    between atoms: C_20  and  C_21
REMARK                            x       y       z     vdW  Elec       q    Type
REMARK                         _______ _______ _______ _____ _____    ______ ____
ROOT
ATOM      1  C   UNL     1       3.179   6.713  18.734  0.00  0.00    +0.000 C 
ATOM      2  C   UNL     1       2.230   7.878  18.796  0.00  0.00    +0.000 A 
ATOM      3  C   UNL     1       2.202   8.761  17.708  0.00  0.00    +0.000 A 
ATOM      4  C   UNL     1       1.381   9.880  17.732  0.00  0.00    +0.000 A 
ATOM      5  C   UNL     1       0.584  10.147  18.851  0.00  0.00    +0.000 A 
ATOM      6  C   UNL     1       0.582   9.273  19.966  0.00  0.00    +0.000 A 
ATOM      7  C   UNL     1       1.402   8.114  19.923  0.00  0.00    +0.000 A 
ATOM      8  C   UNL     1       1.449   7.132  21.070  0.00  0.00    +0.000 C 
ATOM      9  C   UNL     1      -0.281   9.587  21.187  0.00  0.00    +0.000 C 
ATOM     10  N   UNL     1      -0.920  10.908  21.173  0.00  0.00    +0.000 N 
ATOM     11  C   UNL     1      -0.930  11.657  22.355  0.00  0.00    +0.000 C 
ATOM     12  O   UNL     1      -0.382  11.262  23.385  0.00  0.00    +0.000 OA
ATOM     13  C   UNL     1      -1.371  11.351  19.856  0.00  0.00    +0.000 C 
ATOM     14  C   UNL     1      -0.208  11.443  18.867  0.00  0.00    +0.000 C 
ENDROOT
BRANCH  11  15
ATOM     15  C   UNL     1      -1.608  12.985  22.426  0.00  0.00    +0.000 A 
ATOM     16  C   UNL     1      -2.981  13.125  22.653  0.00  0.00    +0.000 A 
ATOM     17  C   UNL     1      -3.575  14.390  22.656  0.00  0.00    +0.000 A 
ATOM     18  C   UNL     1      -2.784  15.530  22.533  0.00  0.00    +0.000 A 
ATOM     19  C   UNL     1      -1.401  15.408  22.406  0.00  0.00    +0.000 A 
ATOM     20  C   UNL     1      -0.815  14.141  22.343  0.00  0.00    +0.000 A 
ENDBRANCH  11  15
BRANCH  14  21
ATOM     21  C   UNL     1       0.660  12.673  19.120  0.00  0.00    +0.000 A 
ATOM     22  C   UNL     1       0.257  13.961  18.733  0.00  0.00    +0.000 A 
ATOM     23  C   UNL     1       1.042  15.075  19.028  0.00  0.00    +0.000 A 
ATOM     24  C   UNL     1       2.254  14.915  19.688  0.00  0.00    +0.000 A 
ATOM     25  C   UNL     1       2.694  13.639  20.040  0.00  0.00    +0.000 A 
ATOM     26  C   UNL     1       1.904  12.524  19.751  0.00  0.00    +0.000 A 
ENDBRANCH  14  21
TORSDOF 2
ENDMDL
MODEL 5
REMARK VINA RESULT:      -6.0      8.700     11.478
REMARK  Name = 
REMARK  4 active torsions:
REMARK  status: ('A' for Active; 'I' for Inactive)
REMARK    1  A    between atoms: C_1  and  C_2
REMARK    2  A    between atoms: C_7  and  C_8
REMARK    3  A    between atoms: C_11  and  C_13
REMARK    4  A    between atoms: C_20  and  C_21
REMARK                            x       y       z     vdW  Elec       q    Type
REMARK                         _______ _______ _______ _____ _____    ______ ____
ROOT
ATOM      1  C   UNL     1       7.758  12.253  26.415  0.00  0.00    +0.000 C 
ATOM      2  C   UNL     1       7.852  12.751  24.999  0.00  0.00    +0.000 A 
ATOM      3  C   UNL     1       7.366  11.922  23.978  0.00  0.00    +0.000 A 
ATOM      4  C   UNL     1       7.471  12.309  22.649  0.00  0.00    +0.000 A 
ATOM      5  C   UNL     1       8.078  13.525  22.313  0.00  0.00    +0.000 A 
ATOM      6  C   UNL     1       8.575  14.390  23.319  0.00  0.00    +0.000 A 
ATOM      7  C   UNL     1       8.437  14.002  24.679  0.00  0.00    +0.000 A 
ATOM      8  C   UNL     1       8.936  14.874  25.806  0.00  0.00    +0.000 C 
ATOM      9  C   UNL     1       9.250  15.706  22.935  0.00  0.00    +0.000 C 
ATOM     10  N   UNL     1       9.495  15.883  21.499  0.00  0.00    +0.000 N 
ATOM     11  C   UNL     1      10.724  16.417  21.093  0.00  0.00    +0.000 C 
ATOM     12  O   UNL     1      11.614  16.697  21.897  0.00  0.00    +0.000 OA
ATOM     13  C   UNL     1       8.448  15.347  20.633  0.00  0.00    +0.000 C 
ATOM     14  C   UNL     1       8.264  13.843  20.840  0.00  0.00    +0.000 C 
ENDROOT
BRANCH  11  15
ATOM     15  C   UNL     1      11.020  16.673  19.653  0.00  0.00    +0.000 A 
ATOM     16  C   UNL     1      10.765  17.899  19.032  0.00  0.00    +0.000 A 
ATOM     17  C   UNL     1      11.011  18.069  17.667  0.00  0.00    +0.000 A 
ATOM     18  C   UNL     1      11.608  17.044  16.934  0.00  0.00    +0.000 A 
ATOM     19  C   UNL     1      11.958  15.852  17.565  0.00  0.00    +0.000 A 
ATOM     20  C   UNL     1      11.657  15.661  18.916  0.00  0.00    +0.000 A 
ENDBRANCH  11  15
BRANCH  14  21
ATOM     21  C   UNL     1       9.387  13.037  20.190  0.00  0.00    +0.000 A 
ATOM     22  C   UNL     1      10.547  12.676  20.893  0.00  0.00    +0.000 A 
ATOM     23  C   UNL     1      11.531  11.890  20.293  0.00  0.00    +0.000 A 
ATOM     24  C   UNL     1      11.383  11.479  18.975  0.00  0.00    +0.000 A 
ATOM     25  C   UNL     1      10.260  11.867  18.244  0.00  0.00    +0.000 A 
ATOM     26  C   UNL     1       9.271  12.647  18.848  0.00  0.00    +0.000 A 
ENDBRANCH  14  21
TORSDOF 2
ENDMDL
MODEL 6
REMARK VINA RESULT:      -5.9      1.257      1.539
REMARK  Name = 
REMARK  4 active torsions:
REMARK  status: ('A' for Active; 'I' for Inactive)
REMARK    1  A    between atoms: C_1  and  C_2
REMARK    2  A    between atoms: C_7  and  C_8
REMARK    3  A    between atoms: C_11  and  C_13
REMARK    4  A    between atoms: C_20  and  C_21
REMARK                            x       y       z     vdW  Elec       q    Type
REMARK                         _______ _______ _______ _____ _____    ______ ____
ROOT
ATOM      1  C   UNL     1       2.768   6.925  19.247  0.00  0.00    +0.000 C 
ATOM      2  C   UNL     1       1.961   8.190  19.155  0.00  0.00    +0.000 A 
ATOM      3  C   UNL     1       2.132   8.998  18.022  0.00  0.00    +0.000 A 
ATOM      4  C   UNL     1       1.449  10.201  17.908  0.00  0.00    +0.000 A 
ATOM      5  C   UNL     1       0.594  10.629  18.930  0.00  0.00    +0.000 A 
ATOM      6  C   UNL     1       0.393   9.835  20.087  0.00  0.00    +0.000 A 
ATOM      7  C   UNL     1       1.072   8.591  20.185  0.00  0.00    +0.000 A 
ATOM      8  C   UNL     1       0.903   7.688  21.384  0.00  0.00    +0.000 C 
ATOM      9  C   UNL     1      -0.530  10.324  21.203  0.00  0.00    +0.000 C 
ATOM     10  N   UNL     1      -1.006  11.704  21.055  0.00  0.00    +0.000 N 
ATOM     11  C   UNL     1      -1.030  12.525  22.189  0.00  0.00    +0.000 C 
ATOM     12  O   UNL     1      -0.624  12.140  23.286  0.00  0.00    +0.000 OA
ATOM     13  C   UNL     1      -1.285  12.107  19.680  0.00  0.00    +0.000 C 
ATOM     14  C   UNL     1      -0.038  12.003  18.801  0.00  0.00    +0.000 C 
ENDROOT
BRANCH  11  15
ATOM     15  C   UNL     1      -1.551  13.922  22.123  0.00  0.00    +0.000 A 
ATOM     16  C   UNL     1      -2.902  14.237  22.293  0.00  0.00    +0.000 A 
ATOM     17  C   UNL     1      -3.345  15.557  22.168  0.00  0.00    +0.000 A 
ATOM     18  C   UNL     1      -2.425  16.584  21.970  0.00  0.00    +0.000 A 
ATOM     19  C   UNL     1      -1.064  16.294  21.897  0.00  0.00    +0.000 A 
ATOM     20  C   UNL     1      -0.628  14.968  21.963  0.00  0.00    +0.000 A 
ENDBRANCH  11  15
BRANCH  14  21
ATOM     21  C   UNL     1       0.944  13.142  19.066  0.00  0.00    +0.000 A 
ATOM     22  C   UNL     1       2.131  12.948  19.791  0.00  0.00    +0.000 A 
ATOM     23  C   UNL     1       3.038  13.992  19.969  0.00  0.00    +0.000 A 
ATOM     24  C   UNL     1       2.759  15.251  19.453  0.00  0.00    +0.000 A 
ATOM     25  C   UNL     1       1.563  15.476  18.770  0.00  0.00    +0.000 A 
ATOM     26  C   UNL     1       0.658  14.428  18.585  0.00  0.00    +0.000 A 
ENDBRANCH  14  21
TORSDOF 2
ENDMDL
MODEL 7
REMARK VINA RESULT:      -5.8      2.752      5.902
REMARK  Name = 
REMARK  4 active torsions:
REMARK  status: ('A' for Active; 'I' for Inactive)
REMARK    1  A    between atoms: C_1  and  C_2
REMARK    2  A    between atoms: C_7  and  C_8
REMARK    3  A    between atoms: C_11  and  C_13
REMARK    4  A    between atoms: C_20  and  C_21
REMARK                            x       y       z     vdW  Elec       q    Type
REMARK                         _______ _______ _______ _____ _____    ______ ____
ROOT
ATOM      1  C   UNL     1       1.004  10.205  19.612  0.00  0.00    +0.000 C 
ATOM      2  C   UNL     1       0.315  10.942  20.727  0.00  0.00    +0.000 A 
ATOM      3  C   UNL     1      -0.371  10.187  21.689  0.00  0.00    +0.000 A 
ATOM      4  C   UNL     1      -1.065  10.817  22.712  0.00  0.00    +0.000 A 
ATOM      5  C   UNL     1      -1.101  12.214  22.786  0.00  0.00    +0.000 A 
ATOM      6  C   UNL     1      -0.414  13.009  21.835  0.00  0.00    +0.000 A 
ATOM      7  C   UNL     1       0.319  12.358  20.807  0.00  0.00    +0.000 A 
ATOM      8  C   UNL     1       1.081  13.137  19.761  0.00  0.00    +0.000 C 
ATOM      9  C   UNL     1      -0.477  14.534  21.919  0.00  0.00    +0.000 C 
ATOM     10  N   UNL     1      -1.424  15.063  22.907  0.00  0.00    +0.000 N 
ATOM     11  C   UNL     1      -2.220  16.157  22.548  0.00  0.00    +0.000 C 
ATOM     12  O   UNL     1      -2.181  16.654  21.422  0.00  0.00    +0.000 OA
ATOM     13  C   UNL     1      -1.517  14.283  24.138  0.00  0.00    +0.000 C 
ATOM     14  C   UNL     1      -1.967  12.848  23.860  0.00  0.00    +0.000 C 
ENDROOT
BRANCH  11  15
ATOM     15  C   UNL     1      -3.166  16.779  23.521  0.00  0.00    +0.000 A 
ATOM     16  C   UNL     1      -2.798  17.821  24.377  0.00  0.00    +0.000 A 
ATOM     17  C   UNL     1      -3.708  18.331  25.307  0.00  0.00    +0.000 A 
ATOM     18  C   UNL     1      -5.024  17.871  25.318  0.00  0.00    +0.000 A 
ATOM     19  C   UNL     1      -5.429  16.903  24.402  0.00  0.00    +0.000 A 
ATOM     20  C   UNL     1      -4.503  16.350  23.512  0.00  0.00    +0.000 A 
ENDBRANCH  11  15
BRANCH  14  21
ATOM     21  C   UNL     1      -3.461  12.769  23.551  0.00  0.00    +0.000 A 
ATOM     22  C   UNL     1      -4.423  12.619  24.562  0.00  0.00    +0.000 A 
ATOM     23  C   UNL     1      -5.784  12.608  24.257  0.00  0.00    +0.000 A 
ATOM     24  C   UNL     1      -6.201  12.716  22.937  0.00  0.00    +0.000 A 
ATOM     25  C   UNL     1      -5.258  12.819  21.913  0.00  0.00    +0.000 A 
ATOM     26  C   UNL     1      -3.895  12.838  22.220  0.00  0.00    +0.000 A 
ENDBRANCH  14  21
TORSDOF 2
ENDMDL
MODEL 8
REMARK VINA RESULT:      -5.8      2.066      3.236
REMARK  Name = 
REMARK  4 active torsions:
REMARK  status: ('A' for Active; 'I' for Inactive)
REMARK    1  A    between atoms: C_1  and  C_2
REMARK    2  A    between atoms: C_7  and  C_8
REMARK    3  A    between atoms: C_11  and  C_13
REMARK    4  A    between atoms: C_20  and  C_21
REMARK                            x       y       z     vdW  Elec       q    Type
REMARK                         _______ _______ _______ _____ _____    ______ ____
ROOT
ATOM      1  C   UNL     1       1.391   7.986  20.937  0.00  0.00    +0.000 C 
ATOM      2  C   UNL     1       0.671   9.283  20.687  0.00  0.00    +0.000 A 
ATOM      3  C   UNL     1       0.685   9.802  19.385  0.00  0.00    +0.000 A 
ATOM      4  C   UNL     1       0.078  11.019  19.107  0.00  0.00    +0.000 A 
ATOM      5  C   UNL     1      -0.541  11.749  20.128  0.00  0.00    +0.000 A 
ATOM      6  C   UNL     1      -0.579  11.252  21.455  0.00  0.00    +0.000 A 
ATOM      7  C   UNL     1       0.017   9.992  21.727  0.00  0.00    +0.000 A 
ATOM      8  C   UNL     1       0.011   9.395  23.114  0.00  0.00    +0.000 C 
ATOM      9  C   UNL     1      -1.244  12.070  22.562  0.00  0.00    +0.000 C 
ATOM     10  N   UNL     1      -1.643  13.429  22.177  0.00  0.00    +0.000 N 
ATOM     11  C   UNL     1      -1.400  14.474  23.076  0.00  0.00    +0.000 C 
ATOM     12  O   UNL     1      -0.825  14.293  24.151  0.00  0.00    +0.000 OA
ATOM     13  C   UNL     1      -2.142  13.552  20.811  0.00  0.00    +0.000 C 
ATOM     14  C   UNL     1      -1.090  13.123  19.787  0.00  0.00    +0.000 C 
ENDROOT
BRANCH  11  15
ATOM     15  C   UNL     1      -1.826  15.872  22.773  0.00  0.00    +0.000 A 
ATOM     16  C   UNL     1      -3.104  16.356  23.067  0.00  0.00    +0.000 A 
ATOM     17  C   UNL     1      -3.469  17.658  22.712  0.00  0.00    +0.000 A 
ATOM     18  C   UNL     1      -2.525  18.517  22.152  0.00  0.00    +0.000 A 
ATOM     19  C   UNL     1      -1.219  18.076  21.946  0.00  0.00    +0.000 A 
ATOM     20  C   UNL     1      -0.871  16.757  22.245  0.00  0.00    +0.000 A 
ENDBRANCH  11  15
BRANCH  14  21
ATOM     21  C   UNL     1       0.001  14.179  19.616  0.00  0.00    +0.000 A 
ATOM     22  C   UNL     1       1.285  14.017  20.159  0.00  0.00    +0.000 A 
ATOM     23  C   UNL     1       2.280  14.968  19.938  0.00  0.00    +0.000 A 
ATOM     24  C   UNL     1       1.998  16.109  19.197  0.00  0.00    +0.000 A 
ATOM     25  C   UNL     1       0.715  16.311  18.687  0.00  0.00    +0.000 A 
ATOM     26  C   UNL     1      -0.279  15.353  18.902  0.00  0.00    +0.000 A 
ENDBRANCH  14  21
TORSDOF 2
ENDMDL
MODEL 9
REMARK VINA RESULT:      -5.8      2.476      6.999
REMARK  Name = 
REMARK  4 active torsions:
REMARK  status: ('A' for Active; 'I' for Inactive)
REMARK    1  A    between atoms: C_1  and  C_2
REMARK    2  A    between atoms: C_7  and  C_8
REMARK    3  A    between atoms: C_11  and  C_13
REMARK    4  A    between atoms: C_20  and  C_21
REMARK                            x       y       z     vdW  Elec       q    Type
REMARK                         _______ _______ _______ _____ _____    ______ ____
ROOT
ATOM      1  C   UNL     1      -7.254  13.147  24.198  0.00  0.00    +0.000 C 
ATOM      2  C   UNL     1      -6.129  13.226  23.202  0.00  0.00    +0.000 A 
ATOM      3  C   UNL     1      -6.417  13.730  21.926  0.00  0.00    +0.000 A 
ATOM      4  C   UNL     1      -5.430  13.781  20.952  0.00  0.00    +0.000 A 
ATOM      5  C   UNL     1      -4.140  13.313  21.227  0.00  0.00    +0.000 A 
ATOM      6  C   UNL     1      -3.813  12.801  22.507  0.00  0.00    +0.000 A 
ATOM      7  C   UNL     1      -4.819  12.780  23.510  0.00  0.00    +0.000 A 
ATOM      8  C   UNL     1      -4.544  12.256  24.899  0.00  0.00    +0.000 C 
ATOM      9  C   UNL     1      -2.404  12.278  22.788  0.00  0.00    +0.000 C 
ATOM     10  N   UNL     1      -1.532  12.182  21.612  0.00  0.00    +0.000 N 
ATOM     11  C   UNL     1      -0.727  11.045  21.471  0.00  0.00    +0.000 C 
ATOM     12  O   UNL     1      -0.765  10.112  22.274  0.00  0.00    +0.000 OA
ATOM     13  C   UNL     1      -1.706  13.254  20.636  0.00  0.00    +0.000 C 
ATOM     14  C   UNL     1      -3.134  13.290  20.091  0.00  0.00    +0.000 C 
ENDROOT
BRANCH  11  15
ATOM     15  C   UNL     1       0.222  10.905  20.328  0.00  0.00    +0.000 A 
ATOM     16  C   UNL     1       0.368   9.718  19.604  0.00  0.00    +0.000 A 
ATOM     17  C   UNL     1       1.311   9.623  18.577  0.00  0.00    +0.000 A 
ATOM     18  C   UNL     1       2.044  10.746  18.200  0.00  0.00    +0.000 A 
ATOM     19  C   UNL     1       1.837  11.962  18.849  0.00  0.00    +0.000 A 
ATOM     20  C   UNL     1       0.937  12.041  19.915  0.00  0.00    +0.000 A 
ENDBRANCH  11  15
BRANCH  14  21
ATOM     21  C   UNL     1      -3.389  12.167  19.087  0.00  0.00    +0.000 A 
ATOM     22  C   UNL     1      -2.379  11.684  18.238  0.00  0.00    +0.000 A 
ATOM     23  C   UNL     1      -2.623  10.619  17.372  0.00  0.00    +0.000 A 
ATOM     24  C   UNL     1      -3.885  10.040  17.320  0.00  0.00    +0.000 A 
ATOM     25  C   UNL     1      -4.914  10.536  18.122  0.00  0.00    +0.000 A 
ATOM     26  C   UNL     1      -4.667  11.598  18.995  0.00  0.00    +0.000 A 
ENDBRANCH  14  21
TORSDOF 2
ENDMDL
