MODEL 1
REMARK VINA RESULT:      -7.2      0.000      0.000
REMARK  Name = 
REMARK  4 active torsions:
REMARK  status: ('A' for Active; 'I' for Inactive)
REMARK    1  A    between atoms: C_1  and  C_2
REMARK    2  A    between atoms: C_6  and  C_7
REMARK    3  A    between atoms: C_11  and  C_13
REMARK    4  A    between atoms: C_21  and  O_22
REMARK                            x       y       z     vdW  Elec       q    Type
REMARK                         _______ _______ _______ _____ _____    ______ ____
ROOT
ATOM      1  C   UNL     1       3.861   4.570  18.373  0.00  0.00    +0.000 C 
ATOM      2  C   UNL     1       3.750   5.897  17.614  0.00  0.00    +0.000 C 
ATOM      3  C   UNL     1       4.893   5.992  16.609  0.00  0.00    +0.000 C 
ATOM      4  N   UNL     1       6.148   5.433  17.117  0.00  0.00    +0.000 N 
ATOM      5  C   UNL     1       7.130   4.790  16.355  0.00  0.00    +0.000 C 
ATOM      6  O   UNL     1       8.085   4.224  16.891  0.00  0.00    +0.000 OA
ATOM      7  C   UNL     1       6.270   5.417  18.584  0.00  0.00    +0.000 C 
ATOM      8  C   UNL     1       5.163   4.538  19.215  0.00  0.00    +0.000 C 
ENDROOT
BRANCH   5   9
ATOM      9  C   UNL     1       7.026   4.674  14.875  0.00  0.00    +0.000 A 
ATOM     10  C   UNL     1       6.202   3.793  14.181  0.00  0.00    +0.000 A 
ATOM     11  C   UNL     1       6.300   3.701  12.791  0.00  0.00    +0.000 A 
ATOM     12  C   UNL     1       7.151   4.563  12.117  0.00  0.00    +0.000 A 
ATOM     13  N   UNL     1       7.296   4.474  10.737  0.00  0.00    +0.000 N 
ATOM     14  N   UNL     1       7.904   5.470  12.750  0.00  0.00    +0.000 NA
ATOM     15  C   UNL     1       7.825   5.514  14.106  0.00  0.00    +0.000 A 
ATOM     16  H   UNL     1       6.406   4.510  10.258  0.00  0.00    +0.000 HD
ATOM     17  H   UNL     1       7.912   5.236  10.453  0.00  0.00    +0.000 HD
ENDBRANCH   5   9
BRANCH   1  23
ATOM     18  C   UNL     1       1.996   1.983  18.200  0.00  0.00    +0.000 C 
ATOM     19  C   UNL     1       1.782   3.163  19.095  0.00  0.00    +0.000 A 
ATOM     20  C   UNL     1       0.667   3.280  19.987  0.00  0.00    +0.000 A 
ATOM     21  C   UNL     1       0.678   4.453  20.704  0.00  0.00    +0.000 A 
ATOM     22  S   UNL     1       2.022   5.421  20.319  0.00  0.00    +0.000 S 
ATOM     23  C   UNL     1       2.607   4.279  19.176  0.00  0.00    +0.000 A 
ENDBRANCH   1  23
BRANCH   8  24
ATOM     24  O   UNL     1       5.614   3.181  19.329  0.00  0.00    +0.000 OA
ATOM     25  H   UNL     1       6.387   3.076  18.744  0.00  0.00    +0.000 HD
ENDBRANCH   8  24
TORSDOF 3
ENDMDL
MODEL 2
REMARK VINA RESULT:      -7.1      0.910      1.375
REMARK  Name = 
REMARK  4 active torsions:
REMARK  status: ('A' for Active; 'I' for Inactive)
REMARK    1  A    between atoms: C_1  and  C_2
REMARK    2  A    between atoms: C_6  and  C_7
REMARK    3  A    between atoms: C_11  and  C_13
REMARK    4  A    between atoms: C_21  and  O_22
REMARK                            x       y       z     vdW  Elec       q    Type
REMARK                         _______ _______ _______ _____ _____    ______ ____
ROOT
ATOM      1  C   UNL     1       3.753   4.423  18.329  0.00  0.00    +0.000 C 
ATOM      2  C   UNL     1       3.616   5.756  17.584  0.00  0.00    +0.000 C 
ATOM      3  C   UNL     1       4.778   5.901  16.607  0.00  0.00    +0.000 C 
ATOM      4  N   UNL     1       6.038   5.378  17.138  0.00  0.00    +0.000 N 
ATOM      5  C   UNL     1       7.059   4.776  16.392  0.00  0.00    +0.000 C 
ATOM      6  O   UNL     1       8.019   4.236  16.943  0.00  0.00    +0.000 OA
ATOM      7  C   UNL     1       6.127   5.346  18.608  0.00  0.00    +0.000 C 
ATOM      8  C   UNL     1       5.035   4.422  19.201  0.00  0.00    +0.000 C 
ENDROOT
BRANCH   5   9
ATOM      9  C   UNL     1       6.993   4.677  14.908  0.00  0.00    +0.000 A 
ATOM     10  C   UNL     1       6.188   3.804  14.183  0.00  0.00    +0.000 A 
ATOM     11  C   UNL     1       6.322   3.727  12.796  0.00  0.00    +0.000 A 
ATOM     12  C   UNL     1       7.190   4.597  12.154  0.00  0.00    +0.000 A 
ATOM     13  N   UNL     1       7.371   4.523  10.778  0.00  0.00    +0.000 N 
ATOM     14  N   UNL     1       7.926   5.497  12.816  0.00  0.00    +0.000 NA
ATOM     15  C   UNL     1       7.812   5.526  14.170  0.00  0.00    +0.000 A 
ATOM     16  H   UNL     1       6.494   4.564  10.276  0.00  0.00    +0.000 HD
ATOM     17  H   UNL     1       7.993   5.289  10.518  0.00  0.00    +0.000 HD
ENDBRANCH   5   9
BRANCH   1  23
ATOM     18  C   UNL     1       2.151   6.284  20.371  0.00  0.00    +0.000 C 
ATOM     19  C   UNL     1       1.797   4.879  19.999  0.00  0.00    +0.000 A 
ATOM     20  C   UNL     1       0.677   4.179  20.554  0.00  0.00    +0.000 A 
ATOM     21  C   UNL     1       0.553   2.899  20.067  0.00  0.00    +0.000 A 
ATOM     22  S   UNL     1       1.773   2.526  18.942  0.00  0.00    +0.000 S 
ATOM     23  C   UNL     1       2.491   4.080  19.097  0.00  0.00    +0.000 A 
ENDBRANCH   1  23
BRANCH   8  24
ATOM     24  O   UNL     1       5.527   3.080  19.309  0.00  0.00    +0.000 OA
ATOM     25  H   UNL     1       4.794   2.520  19.625  0.00  0.00    +0.000 HD
ENDBRANCH   8  24
TORSDOF 3
ENDMDL
MODEL 3
REMARK VINA RESULT:      -6.6      1.132      1.720
REMARK  Name = 
REMARK  4 active torsions:
REMARK  status: ('A' for Active; 'I' for Inactive)
REMARK    1  A    between atoms: C_1  and  C_2
REMARK    2  A    between atoms: C_6  and  C_7
REMARK    3  A    between atoms: C_11  and  C_13
REMARK    4  A    between atoms: C_21  and  O_22
REMARK                            x       y       z     vdW  Elec       q    Type
REMARK                         _______ _______ _______ _____ _____    ______ ____
ROOT
ATOM      1  C   UNL     1       3.771   4.377  18.292  0.00  0.00    +0.000 C 
ATOM      2  C   UNL     1       3.591   5.661  17.473  0.00  0.00    +0.000 C 
ATOM      3  C   UNL     1       4.795   5.837  16.554  0.00  0.00    +0.000 C 
ATOM      4  N   UNL     1       6.054   5.425  17.178  0.00  0.00    +0.000 N 
ATOM      5  C   UNL     1       7.152   4.859  16.519  0.00  0.00    +0.000 C 
ATOM      6  O   UNL     1       8.112   4.411  17.148  0.00  0.00    +0.000 OA
ATOM      7  C   UNL     1       6.061   5.470  18.650  0.00  0.00    +0.000 C 
ATOM      8  C   UNL     1       4.999   4.504  19.230  0.00  0.00    +0.000 C 
ENDROOT
BRANCH   5   9
ATOM      9  C   UNL     1       7.177   4.685  15.041  0.00  0.00    +0.000 A 
ATOM     10  C   UNL     1       7.966   5.402  14.148  0.00  0.00    +0.000 A 
ATOM     11  C   UNL     1       7.794   5.225  12.773  0.00  0.00    +0.000 A 
ATOM     12  C   UNL     1       6.904   4.262  12.325  0.00  0.00    +0.000 A 
ATOM     13  N   UNL     1       6.684   4.084  10.964  0.00  0.00    +0.000 N 
ATOM     14  N   UNL     1       6.181   3.505  13.160  0.00  0.00    +0.000 NA
ATOM     15  C   UNL     1       6.333   3.723  14.493  0.00  0.00    +0.000 A 
ATOM     16  H   UNL     1       7.547   3.943  10.455  0.00  0.00    +0.000 HD
ATOM     17  H   UNL     1       6.051   3.290  10.865  0.00  0.00    +0.000 HD
ENDBRANCH   5   9
BRANCH   1  23
ATOM     18  C   UNL     1       2.126   6.104  20.417  0.00  0.00    +0.000 C 
ATOM     19  C   UNL     1       1.779   4.727  19.946  0.00  0.00    +0.000 A 
ATOM     20  C   UNL     1       0.646   3.994  20.428  0.00  0.00    +0.000 A 
ATOM     21  C   UNL     1       0.533   2.749  19.856  0.00  0.00    +0.000 A 
ATOM     22  S   UNL     1       1.777   2.448  18.736  0.00  0.00    +0.000 S 
ATOM     23  C   UNL     1       2.492   3.987  19.009  0.00  0.00    +0.000 A 
ENDBRANCH   1  23
BRANCH   8  24
ATOM     24  O   UNL     1       5.570   3.204  19.433  0.00  0.00    +0.000 OA
ATOM     25  H   UNL     1       5.309   2.645  18.678  0.00  0.00    +0.000 HD
ENDBRANCH   8  24
TORSDOF 3
ENDMDL
MODEL 4
REMARK VINA RESULT:      -6.6      0.687      1.055
REMARK  Name = 
REMARK  4 active torsions:
REMARK  status: ('A' for Active; 'I' for Inactive)
REMARK    1  A    between atoms: C_1  and  C_2
REMARK    2  A    between atoms: C_6  and  C_7
REMARK    3  A    between atoms: C_11  and  C_13
REMARK    4  A    between atoms: C_21  and  O_22
REMARK                            x       y       z     vdW  Elec       q    Type
REMARK                         _______ _______ _______ _____ _____    ______ ____
ROOT
ATOM      1  C   UNL     1       3.882   4.599  18.351  0.00  0.00    +0.000 C 
ATOM      2  C   UNL     1       3.729   5.870  17.508  0.00  0.00    +0.000 C 
ATOM      3  C   UNL     1       4.896   5.962  16.530  0.00  0.00    +0.000 C 
ATOM      4  N   UNL     1       6.160   5.500  17.105  0.00  0.00    +0.000 N 
ATOM      5  C   UNL     1       7.196   4.862  16.412  0.00  0.00    +0.000 C 
ATOM      6  O   UNL     1       8.161   4.380  17.008  0.00  0.00    +0.000 OA
ATOM      7  C   UNL     1       6.239   5.580  18.574  0.00  0.00    +0.000 C 
ATOM      8  C   UNL     1       5.158   4.685  19.228  0.00  0.00    +0.000 C 
ENDROOT
BRANCH   5   9
ATOM      9  C   UNL     1       7.142   4.651  14.940  0.00  0.00    +0.000 A 
ATOM     10  C   UNL     1       7.881   5.346  13.988  0.00  0.00    +0.000 A 
ATOM     11  C   UNL     1       7.637   5.135  12.629  0.00  0.00    +0.000 A 
ATOM     12  C   UNL     1       6.724   4.162  12.253  0.00  0.00    +0.000 A 
ATOM     13  N   UNL     1       6.433   3.951  10.910  0.00  0.00    +0.000 N 
ATOM     14  N   UNL     1       6.048   3.427  13.144  0.00  0.00    +0.000 NA
ATOM     15  C   UNL     1       6.271   3.677  14.461  0.00  0.00    +0.000 A 
ATOM     16  H   UNL     1       7.267   3.796  10.360  0.00  0.00    +0.000 HD
ATOM     17  H   UNL     1       5.795   3.155  10.865  0.00  0.00    +0.000 HD
ENDBRANCH   5   9
BRANCH   1  23
ATOM     18  C   UNL     1       2.027   2.009  18.124  0.00  0.00    +0.000 C 
ATOM     19  C   UNL     1       1.800   3.176  19.031  0.00  0.00    +0.000 A 
ATOM     20  C   UNL     1       0.675   3.278  19.912  0.00  0.00    +0.000 A 
ATOM     21  C   UNL     1       0.674   4.441  20.645  0.00  0.00    +0.000 A 
ATOM     22  S   UNL     1       2.019   5.419  20.287  0.00  0.00    +0.000 S 
ATOM     23  C   UNL     1       2.621   4.293  19.135  0.00  0.00    +0.000 A 
ENDBRANCH   1  23
BRANCH   8  24
ATOM     24  O   UNL     1       5.672   3.362  19.439  0.00  0.00    +0.000 OA
ATOM     25  H   UNL     1       4.952   2.822  19.814  0.00  0.00    +0.000 HD
ENDBRANCH   8  24
TORSDOF 3
ENDMDL
MODEL 5
REMARK VINA RESULT:      -6.2      1.336      1.631
REMARK  Name = 
REMARK  4 active torsions:
REMARK  status: ('A' for Active; 'I' for Inactive)
REMARK    1  A    between atoms: C_1  and  C_2
REMARK    2  A    between atoms: C_6  and  C_7
REMARK    3  A    between atoms: C_11  and  C_13
REMARK    4  A    between atoms: C_21  and  O_22
REMARK                            x       y       z     vdW  Elec       q    Type
REMARK                         _______ _______ _______ _____ _____    ______ ____
ROOT
ATOM      1  C   UNL     1       4.183   5.538  18.427  0.00  0.00    +0.000 C 
ATOM      2  C   UNL     1       4.083   6.661  17.387  0.00  0.00    +0.000 C 
ATOM      3  C   UNL     1       5.081   6.390  16.266  0.00  0.00    +0.000 C 
ATOM      4  N   UNL     1       6.340   5.822  16.749  0.00  0.00    +0.000 N 
ATOM      5  C   UNL     1       7.150   4.912  16.059  0.00  0.00    +0.000 C 
ATOM      6  O   UNL     1       8.118   4.378  16.604  0.00  0.00    +0.000 OA
ATOM      7  C   UNL     1       6.661   6.128  18.153  0.00  0.00    +0.000 C 
ATOM      8  C   UNL     1       5.581   5.550  19.099  0.00  0.00    +0.000 C 
ENDROOT
BRANCH   5   9
ATOM      9  C   UNL     1       6.834   4.474  14.672  0.00  0.00    +0.000 A 
ATOM     10  C   UNL     1       7.542   4.820  13.525  0.00  0.00    +0.000 A 
ATOM     11  C   UNL     1       7.058   4.442  12.271  0.00  0.00    +0.000 A 
ATOM     12  C   UNL     1       5.928   3.642  12.199  0.00  0.00    +0.000 A 
ATOM     13  N   UNL     1       5.401   3.278  10.965  0.00  0.00    +0.000 N 
ATOM     14  N   UNL     1       5.265   3.233  13.287  0.00  0.00    +0.000 NA
ATOM     15  C   UNL     1       5.729   3.647  14.496  0.00  0.00    +0.000 A 
ATOM     16  H   UNL     1       6.096   2.854  10.365  0.00  0.00    +0.000 HD
ATOM     17  H   UNL     1       4.622   2.645  11.149  0.00  0.00    +0.000 HD
ENDBRANCH   5   9
BRANCH   1  23
ATOM     18  C   UNL     1       2.706   3.070  19.815  0.00  0.00    +0.000 C 
ATOM     19  C   UNL     1       2.373   4.515  20.008  0.00  0.00    +0.000 A 
ATOM     20  C   UNL     1       1.303   4.969  20.847  0.00  0.00    +0.000 A 
ATOM     21  C   UNL     1       1.184   6.338  20.865  0.00  0.00    +0.000 A 
ATOM     22  S   UNL     1       2.349   7.092  19.883  0.00  0.00    +0.000 S 
ATOM     23  C   UNL     1       3.030   5.585  19.412  0.00  0.00    +0.000 A 
ENDBRANCH   1  23
BRANCH   8  24
ATOM     24  O   UNL     1       5.925   4.212  19.486  0.00  0.00    +0.000 OA
ATOM     25  H   UNL     1       5.144   3.819  19.916  0.00  0.00    +0.000 HD
ENDBRANCH   8  24
TORSDOF 3
ENDMDL
MODEL 6
REMARK VINA RESULT:      -6.0      1.438      1.491
REMARK  Name = 
REMARK  4 active torsions:
REMARK  status: ('A' for Active; 'I' for Inactive)
REMARK    1  A    between atoms: C_1  and  C_2
REMARK    2  A    between atoms: C_6  and  C_7
REMARK    3  A    between atoms: C_11  and  C_13
REMARK    4  A    between atoms: C_21  and  O_22
REMARK                            x       y       z     vdW  Elec       q    Type
REMARK                         _______ _______ _______ _____ _____    ______ ____
ROOT
ATOM      1  C   UNL     1       4.092   4.460  18.792  0.00  0.00    +0.000 C 
ATOM      2  C   UNL     1       3.188   5.077  17.718  0.00  0.00    +0.000 C 
ATOM      3  C   UNL     1       4.030   5.410  16.490  0.00  0.00    +0.000 C 
ATOM      4  N   UNL     1       5.364   5.907  16.831  0.00  0.00    +0.000 N 
ATOM      5  C   UNL     1       6.533   5.702  16.089  0.00  0.00    +0.000 C 
ATOM      6  O   UNL     1       7.635   6.035  16.528  0.00  0.00    +0.000 OA
ATOM      7  C   UNL     1       5.474   6.524  18.164  0.00  0.00    +0.000 C 
ATOM      8  C   UNL     1       5.142   5.496  19.272  0.00  0.00    +0.000 C 
ENDROOT
BRANCH   5   9
ATOM      9  C   UNL     1       6.518   4.993  14.780  0.00  0.00    +0.000 A 
ATOM     10  C   UNL     1       5.595   4.032  14.383  0.00  0.00    +0.000 A 
ATOM     11  C   UNL     1       5.776   3.353  13.176  0.00  0.00    +0.000 A 
ATOM     12  C   UNL     1       6.823   3.721  12.347  0.00  0.00    +0.000 A 
ATOM     13  N   UNL     1       7.051   3.043  11.155  0.00  0.00    +0.000 N 
ATOM     14  N   UNL     1       7.688   4.691  12.667  0.00  0.00    +0.000 NA
ATOM     15  C   UNL     1       7.519   5.310  13.866  0.00  0.00    +0.000 A 
ATOM     16  H   UNL     1       6.222   3.003  10.576  0.00  0.00    +0.000 HD
ATOM     17  H   UNL     1       7.820   3.519  10.684  0.00  0.00    +0.000 HD
ENDBRANCH   5   9
BRANCH   1  23
ATOM     18  C   UNL     1       4.712   1.761  20.384  0.00  0.00    +0.000 C 
ATOM     19  C   UNL     1       3.538   2.662  20.603  0.00  0.00    +0.000 A 
ATOM     20  C   UNL     1       2.513   2.394  21.568  0.00  0.00    +0.000 A 
ATOM     21  C   UNL     1       1.533   3.358  21.587  0.00  0.00    +0.000 A 
ATOM     22  S   UNL     1       1.831   4.591  20.454  0.00  0.00    +0.000 S 
ATOM     23  C   UNL     1       3.283   3.843  19.916  0.00  0.00    +0.000 A 
ENDBRANCH   1  23
BRANCH   8  24
ATOM     24  O   UNL     1       6.330   4.804  19.678  0.00  0.00    +0.000 OA
ATOM     25  H   UNL     1       6.125   3.851  19.700  0.00  0.00    +0.000 HD
ENDBRANCH   8  24
TORSDOF 3
ENDMDL
MODEL 7
REMARK VINA RESULT:      -5.9      8.237     10.565
REMARK  Name = 
REMARK  4 active torsions:
REMARK  status: ('A' for Active; 'I' for Inactive)
REMARK    1  A    between atoms: C_1  and  C_2
REMARK    2  A    between atoms: C_6  and  C_7
REMARK    3  A    between atoms: C_11  and  C_13
REMARK    4  A    between atoms: C_21  and  O_22
REMARK                            x       y       z     vdW  Elec       q    Type
REMARK                         _______ _______ _______ _____ _____    ______ ____
ROOT
ATOM      1  C   UNL     1       0.993  13.862  19.059  0.00  0.00    +0.000 C 
ATOM      2  C   UNL     1       1.519  13.452  20.439  0.00  0.00    +0.000 C 
ATOM      3  C   UNL     1       1.288  11.957  20.636  0.00  0.00    +0.000 C 
ATOM      4  N   UNL     1       0.022  11.496  20.065  0.00  0.00    +0.000 N 
ATOM      5  C   UNL     1      -0.217  10.236  19.503  0.00  0.00    +0.000 C 
ATOM      6  O   UNL     1      -1.272   9.988  18.917  0.00  0.00    +0.000 OA
ATOM      7  C   UNL     1      -1.015  12.533  19.936  0.00  0.00    +0.000 C 
ATOM      8  C   UNL     1      -0.544  13.662  18.988  0.00  0.00    +0.000 C 
ENDROOT
BRANCH   5   9
ATOM      9  C   UNL     1       0.819   9.167  19.502  0.00  0.00    +0.000 A 
ATOM     10  C   UNL     1       1.652   8.839  18.437  0.00  0.00    +0.000 A 
ATOM     11  C   UNL     1       2.492   7.727  18.530  0.00  0.00    +0.000 A 
ATOM     12  C   UNL     1       2.549   7.025  19.723  0.00  0.00    +0.000 A 
ATOM     13  N   UNL     1       3.349   5.893  19.837  0.00  0.00    +0.000 N 
ATOM     14  N   UNL     1       1.813   7.358  20.790  0.00  0.00    +0.000 NA
ATOM     15  C   UNL     1       0.971   8.418  20.665  0.00  0.00    +0.000 A 
ATOM     16  H   UNL     1       4.304   6.073  19.559  0.00  0.00    +0.000 HD
ATOM     17  H   UNL     1       3.288   5.582  20.807  0.00  0.00    +0.000 HD
ENDBRANCH   5   9
BRANCH   1  23
ATOM     18  C   UNL     1       3.859  14.749  17.965  0.00  0.00    +0.000 C 
ATOM     19  C   UNL     1       2.696  15.655  18.219  0.00  0.00    +0.000 A 
ATOM     20  C   UNL     1       2.746  17.073  18.015  0.00  0.00    +0.000 A 
ATOM     21  C   UNL     1       1.559  17.697  18.320  0.00  0.00    +0.000 A 
ATOM     22  S   UNL     1       0.377  16.595  18.848  0.00  0.00    +0.000 S 
ATOM     23  C   UNL     1       1.446  15.259  18.681  0.00  0.00    +0.000 A 
ENDBRANCH   1  23
BRANCH   8  24
ATOM     24  O   UNL     1      -0.914  13.360  17.636  0.00  0.00    +0.000 OA
ATOM     25  H   UNL     1      -0.215  12.796  17.256  0.00  0.00    +0.000 HD
ENDBRANCH   8  24
TORSDOF 3
ENDMDL
MODEL 8
REMARK VINA RESULT:      -5.9      1.556      1.812
REMARK  Name = 
REMARK  4 active torsions:
REMARK  status: ('A' for Active; 'I' for Inactive)
REMARK    1  A    between atoms: C_1  and  C_2
REMARK    2  A    between atoms: C_6  and  C_7
REMARK    3  A    between atoms: C_11  and  C_13
REMARK    4  A    between atoms: C_21  and  O_22
REMARK                            x       y       z     vdW  Elec       q    Type
REMARK                         _______ _______ _______ _____ _____    ______ ____
ROOT
ATOM      1  C   UNL     1       4.217   4.479  18.718  0.00  0.00    +0.000 C 
ATOM      2  C   UNL     1       3.297   5.083  17.650  0.00  0.00    +0.000 C 
ATOM      3  C   UNL     1       4.120   5.399  16.406  0.00  0.00    +0.000 C 
ATOM      4  N   UNL     1       5.460   5.898  16.719  0.00  0.00    +0.000 N 
ATOM      5  C   UNL     1       6.616   5.683  15.960  0.00  0.00    +0.000 C 
ATOM      6  O   UNL     1       7.726   6.020  16.378  0.00  0.00    +0.000 OA
ATOM      7  C   UNL     1       5.592   6.533  18.041  0.00  0.00    +0.000 C 
ATOM      8  C   UNL     1       5.276   5.520  19.168  0.00  0.00    +0.000 C 
ENDROOT
BRANCH   5   9
ATOM      9  C   UNL     1       6.580   4.957  14.662  0.00  0.00    +0.000 A 
ATOM     10  C   UNL     1       5.663   3.975  14.300  0.00  0.00    +0.000 A 
ATOM     11  C   UNL     1       5.824   3.284  13.098  0.00  0.00    +0.000 A 
ATOM     12  C   UNL     1       6.844   3.658  12.238  0.00  0.00    +0.000 A 
ATOM     13  N   UNL     1       7.052   2.968  11.049  0.00  0.00    +0.000 N 
ATOM     14  N   UNL     1       7.700   4.646  12.524  0.00  0.00    +0.000 NA
ATOM     15  C   UNL     1       7.552   5.278  13.718  0.00  0.00    +0.000 A 
ATOM     16  H   UNL     1       6.210   2.907  10.492  0.00  0.00    +0.000 HD
ATOM     17  H   UNL     1       7.802   3.451  10.552  0.00  0.00    +0.000 HD
ENDBRANCH   5   9
BRANCH   1  23
ATOM     18  C   UNL     1       1.938   5.886  20.458  0.00  0.00    +0.000 C 
ATOM     19  C   UNL     1       2.443   4.489  20.635  0.00  0.00    +0.000 A 
ATOM     20  C   UNL     1       1.962   3.604  21.654  0.00  0.00    +0.000 A 
ATOM     21  C   UNL     1       2.577   2.375  21.626  0.00  0.00    +0.000 A 
ATOM     22  S   UNL     1       3.731   2.268  20.381  0.00  0.00    +0.000 S 
ATOM     23  C   UNL     1       3.425   3.878  19.863  0.00  0.00    +0.000 A 
ENDBRANCH   1  23
BRANCH   8  24
ATOM     24  O   UNL     1       6.470   4.832  19.564  0.00  0.00    +0.000 OA
ATOM     25  H   UNL     1       7.141   4.982  18.873  0.00  0.00    +0.000 HD
ENDBRANCH   8  24
TORSDOF 3
ENDMDL
MODEL 9
REMARK VINA RESULT:      -5.9      1.572      1.802
REMARK  Name = 
REMARK  4 active torsions:
REMARK  status: ('A' for Active; 'I' for Inactive)
REMARK    1  A    between atoms: C_1  and  C_2
REMARK    2  A    between atoms: C_6  and  C_7
REMARK    3  A    between atoms: C_11  and  C_13
REMARK    4  A    between atoms: C_21  and  O_22
REMARK                            x       y       z     vdW  Elec       q    Type
REMARK                         _______ _______ _______ _____ _____    ______ ____
ROOT
ATOM      1  C   UNL     1       4.211   4.493  18.743  0.00  0.00    +0.000 C 
ATOM      2  C   UNL     1       3.345   5.075  17.620  0.00  0.00    +0.000 C 
ATOM      3  C   UNL     1       4.233   5.396  16.422  0.00  0.00    +0.000 C 
ATOM      4  N   UNL     1       5.544   5.919  16.808  0.00  0.00    +0.000 N 
ATOM      5  C   UNL     1       6.746   5.717  16.119  0.00  0.00    +0.000 C 
ATOM      6  O   UNL     1       7.824   6.074  16.597  0.00  0.00    +0.000 OA
ATOM      7  C   UNL     1       5.590   6.565  18.131  0.00  0.00    +0.000 C 
ATOM      8  C   UNL     1       5.226   5.554  19.245  0.00  0.00    +0.000 C 
ENDROOT
BRANCH   5   9
ATOM      9  C   UNL     1       6.796   4.982  14.826  0.00  0.00    +0.000 A 
ATOM     10  C   UNL     1       7.531   5.352  13.704  0.00  0.00    +0.000 A 
ATOM     11  C   UNL     1       7.384   4.640  12.512  0.00  0.00    +0.000 A 
ATOM     12  C   UNL     1       6.577   3.513  12.496  0.00  0.00    +0.000 A 
ATOM     13  N   UNL     1       6.383   2.802  11.318  0.00  0.00    +0.000 N 
ATOM     14  N   UNL     1       5.912   3.089  13.577  0.00  0.00    +0.000 NA
ATOM     15  C   UNL     1       6.036   3.821  14.716  0.00  0.00    +0.000 A 
ATOM     16  H   UNL     1       7.258   2.540  10.883  0.00  0.00    +0.000 HD
ATOM     17  H   UNL     1       5.816   1.987  11.552  0.00  0.00    +0.000 HD
ENDBRANCH   5   9
BRANCH   1  23
ATOM     18  C   UNL     1       4.757   1.790  20.354  0.00  0.00    +0.000 C 
ATOM     19  C   UNL     1       3.587   2.704  20.541  0.00  0.00    +0.000 A 
ATOM     20  C   UNL     1       2.533   2.448  21.477  0.00  0.00    +0.000 A 
ATOM     21  C   UNL     1       1.564   3.423  21.467  0.00  0.00    +0.000 A 
ATOM     22  S   UNL     1       1.907   4.652  20.342  0.00  0.00    +0.000 S 
ATOM     23  C   UNL     1       3.364   3.887  19.846  0.00  0.00    +0.000 A 
ENDBRANCH   1  23
BRANCH   8  24
ATOM     24  O   UNL     1       6.406   4.887  19.715  0.00  0.00    +0.000 OA
ATOM     25  H   UNL     1       7.174   5.427  19.453  0.00  0.00    +0.000 HD
ENDBRANCH   8  24
TORSDOF 3
ENDMDL
