MODEL 1
REMARK VINA RESULT:      -8.6      0.000      0.000
REMARK  Name = 
REMARK  10 active torsions:
REMARK  status: ('A' for Active; 'I' for Inactive)
REMARK    1  A    between atoms: C_1  and  C_2
REMARK    2  A    between atoms: C_2  and  C_3
REMARK    3  A    between atoms: C_3  and  N_4
REMARK    4  A    between atoms: C_5  and  C_7
REMARK    5  A    between atoms: C_10  and  C_11
REMARK    6  A    between atoms: C_14  and  C_15
REMARK    7  A    between atoms: C_18  and  C_19
REMARK    8  A    between atoms: N_21  and  C_22
REMARK    9  A    between atoms: C_22  and  C_23
REMARK   10  A    between atoms: C_23  and  C_24
REMARK                            x       y       z     vdW  Elec       q    Type
REMARK                         _______ _______ _______ _____ _____    ______ ____
ROOT
ATOM      1  C   UNL     1       2.903   5.910  19.136  0.00  0.00    +0.000 A 
ATOM      2  C   UNL     1       2.480   5.139  20.199  0.00  0.00    +0.000 A 
ATOM      3  C   UNL     1       1.679   5.972  21.018  0.00  0.00    +0.000 A 
ATOM      4  C   UNL     1       1.662   7.220  20.425  0.00  0.00    +0.000 A 
ATOM      5  O   UNL     1       2.408   7.179  19.276  0.00  0.00    +0.000 OA
ENDROOT
BRANCH   1   9
ATOM      6  C   UNL     1       5.371   5.135  15.718  0.00  0.00    +0.000 A 
ATOM      7  C   UNL     1       5.155   6.446  16.155  0.00  0.00    +0.000 A 
ATOM      8  C   UNL     1       4.326   6.692  17.256  0.00  0.00    +0.000 A 
ATOM      9  C   UNL     1       3.707   5.636  17.946  0.00  0.00    +0.000 A 
ATOM     10  C   UNL     1       3.908   4.329  17.475  0.00  0.00    +0.000 A 
ATOM     11  C   UNL     1       4.729   4.079  16.363  0.00  0.00    +0.000 A 
BRANCH   6  13
ATOM     12  N   UNL     1       5.731   4.225  13.464  0.00  0.00    +0.000 N 
ATOM     13  C   UNL     1       6.258   4.883  14.541  0.00  0.00    +0.000 C 
ATOM     14  N   UNL     1       7.485   5.292  14.597  0.00  0.00    +0.000 NA
ATOM     15  H   UNL     1       4.773   4.466  13.221  0.00  0.00    +0.000 HD
ATOM     16  H   UNL     1       7.959   5.064  13.721  0.00  0.00    +0.000 HD
BRANCH  12  17
ATOM     17  C   UNL     1       6.484   3.534  12.435  0.00  0.00    +0.000 C 
BRANCH  17  19
ATOM     18  C   UNL     1       4.261   3.179  11.305  0.00  0.00    +0.000 C 
ATOM     19  C   UNL     1       5.572   2.536  11.722  0.00  0.00    +0.000 C 
ENDBRANCH  17  19
ENDBRANCH  12  17
ENDBRANCH   6  13
ENDBRANCH   1   9
BRANCH   4  20
ATOM     20  C   UNL     1       1.050   8.504  20.770  0.00  0.00    +0.000 A 
ATOM     21  C   UNL     1       0.575   8.748  22.069  0.00  0.00    +0.000 A 
ATOM     22  C   UNL     1       0.033   9.993  22.426  0.00  0.00    +0.000 A 
ATOM     23  C   UNL     1      -0.055  11.020  21.483  0.00  0.00    +0.000 A 
ATOM     24  C   UNL     1       0.381  10.774  20.175  0.00  0.00    +0.000 A 
ATOM     25  C   UNL     1       0.933   9.533  19.827  0.00  0.00    +0.000 A 
BRANCH  23  26
ATOM     26  C   UNL     1      -0.628  12.362  21.846  0.00  0.00    +0.000 C 
ATOM     27  N   UNL     1      -0.607  13.345  20.998  0.00  0.00    +0.000 NA
ATOM     28  N   UNL     1      -1.190  12.557  23.090  0.00  0.00    +0.000 N 
ATOM     29  H   UNL     1      -0.119  13.095  20.135  0.00  0.00    +0.000 HD
ATOM     30  H   UNL     1      -1.332  11.733  23.658  0.00  0.00    +0.000 HD
BRANCH  28  31
ATOM     31  C   UNL     1      -2.212  13.585  23.276  0.00  0.00    +0.000 C 
BRANCH  31  32
ATOM     32  C   UNL     1      -3.609  12.978  23.157  0.00  0.00    +0.000 C 
ATOM     33  C   UNL     1      -4.133  12.524  24.511  0.00  0.00    +0.000 C 
ENDBRANCH  31  32
ENDBRANCH  28  31
ENDBRANCH  23  26
ENDBRANCH   4  20
TORSDOF 8
ENDMDL
MODEL 2
REMARK VINA RESULT:      -8.6      0.390      1.343
REMARK  Name = 
REMARK  10 active torsions:
REMARK  status: ('A' for Active; 'I' for Inactive)
REMARK    1  A    between atoms: C_1  and  C_2
REMARK    2  A    between atoms: C_2  and  C_3
REMARK    3  A    between atoms: C_3  and  N_4
REMARK    4  A    between atoms: C_5  and  C_7
REMARK    5  A    between atoms: C_10  and  C_11
REMARK    6  A    between atoms: C_14  and  C_15
REMARK    7  A    between atoms: C_18  and  C_19
REMARK    8  A    between atoms: N_21  and  C_22
REMARK    9  A    between atoms: C_22  and  C_23
REMARK   10  A    between atoms: C_23  and  C_24
REMARK                            x       y       z     vdW  Elec       q    Type
REMARK                         _______ _______ _______ _____ _____    ______ ____
ROOT
ATOM      1  C   UNL     1       3.029   5.784  19.077  0.00  0.00    +0.000 A 
ATOM      2  C   UNL     1       2.559   4.981  20.097  0.00  0.00    +0.000 A 
ATOM      3  C   UNL     1       1.714   5.786  20.897  0.00  0.00    +0.000 A 
ATOM      4  C   UNL     1       1.717   7.050  20.338  0.00  0.00    +0.000 A 
ATOM      5  O   UNL     1       2.518   7.046  19.227  0.00  0.00    +0.000 OA
ENDROOT
BRANCH   1   9
ATOM      6  C   UNL     1       5.455   5.055  15.619  0.00  0.00    +0.000 A 
ATOM      7  C   UNL     1       4.896   3.989  16.332  0.00  0.00    +0.000 A 
ATOM      8  C   UNL     1       4.128   4.235  17.475  0.00  0.00    +0.000 A 
ATOM      9  C   UNL     1       3.893   5.547  17.922  0.00  0.00    +0.000 A 
ATOM     10  C   UNL     1       4.487   6.603  17.214  0.00  0.00    +0.000 A 
ATOM     11  C   UNL     1       5.270   6.360  16.073  0.00  0.00    +0.000 A 
BRANCH   6  13
ATOM     12  N   UNL     1       5.729   4.003  13.415  0.00  0.00    +0.000 N 
ATOM     13  C   UNL     1       6.275   4.781  14.399  0.00  0.00    +0.000 C 
ATOM     14  N   UNL     1       7.465   5.284  14.332  0.00  0.00    +0.000 NA
ATOM     15  H   UNL     1       4.740   4.151  13.229  0.00  0.00    +0.000 HD
ATOM     16  H   UNL     1       7.894   5.027  13.442  0.00  0.00    +0.000 HD
BRANCH  12  17
ATOM     17  C   UNL     1       6.461   3.293  12.384  0.00  0.00    +0.000 C 
BRANCH  17  19
ATOM     18  C   UNL     1       4.160   3.205  11.366  0.00  0.00    +0.000 C 
ATOM     19  C   UNL     1       5.485   2.482  11.534  0.00  0.00    +0.000 C 
ENDBRANCH  17  19
ENDBRANCH  12  17
ENDBRANCH   6  13
ENDBRANCH   1   9
BRANCH   4  20
ATOM     20  C   UNL     1       1.079   8.321  20.687  0.00  0.00    +0.000 A 
ATOM     21  C   UNL     1       1.034   9.379  19.766  0.00  0.00    +0.000 A 
ATOM     22  C   UNL     1       0.380  10.584  20.070  0.00  0.00    +0.000 A 
ATOM     23  C   UNL     1      -0.236  10.757  21.312  0.00  0.00    +0.000 A 
ATOM     24  C   UNL     1      -0.163   9.723  22.252  0.00  0.00    +0.000 A 
ATOM     25  C   UNL     1       0.480   8.517  21.939  0.00  0.00    +0.000 A 
BRANCH  23  26
ATOM     26  C   UNL     1      -0.945  12.038  21.655  0.00  0.00    +0.000 C 
ATOM     27  N   UNL     1      -1.443  12.792  20.724  0.00  0.00    +0.000 NA
ATOM     28  N   UNL     1      -1.078  12.419  22.974  0.00  0.00    +0.000 N 
ATOM     29  H   UNL     1      -1.236  12.434  19.789  0.00  0.00    +0.000 HD
ATOM     30  H   UNL     1      -0.823  11.734  23.672  0.00  0.00    +0.000 HD
BRANCH  28  31
ATOM     31  C   UNL     1      -2.184  13.286  23.375  0.00  0.00    +0.000 C 
BRANCH  31  32
ATOM     32  C   UNL     1      -3.417  12.454  23.727  0.00  0.00    +0.000 C 
ATOM     33  C   UNL     1      -4.657  12.973  23.014  0.00  0.00    +0.000 C 
ENDBRANCH  31  32
ENDBRANCH  28  31
ENDBRANCH  23  26
ENDBRANCH   4  20
TORSDOF 8
ENDMDL
MODEL 3
REMARK VINA RESULT:      -8.3      1.146      1.963
REMARK  Name = 
REMARK  10 active torsions:
REMARK  status: ('A' for Active; 'I' for Inactive)
REMARK    1  A    between atoms: C_1  and  C_2
REMARK    2  A    between atoms: C_2  and  C_3
REMARK    3  A    between atoms: C_3  and  N_4
REMARK    4  A    between atoms: C_5  and  C_7
REMARK    5  A    between atoms: C_10  and  C_11
REMARK    6  A    between atoms: C_14  and  C_15
REMARK    7  A    between atoms: C_18  and  C_19
REMARK    8  A    between atoms: N_21  and  C_22
REMARK    9  A    between atoms: C_22  and  C_23
REMARK   10  A    between atoms: C_23  and  C_24
REMARK                            x       y       z     vdW  Elec       q    Type
REMARK                         _______ _______ _______ _____ _____    ______ ____
ROOT
ATOM      1  C   UNL     1       2.911   5.857  19.081  0.00  0.00    +0.000 A 
ATOM      2  C   UNL     1       2.458   5.088  20.133  0.00  0.00    +0.000 A 
ATOM      3  C   UNL     1       1.677   5.935  20.955  0.00  0.00    +0.000 A 
ATOM      4  C   UNL     1       1.701   7.190  20.375  0.00  0.00    +0.000 A 
ATOM      5  O   UNL     1       2.453   7.138  19.231  0.00  0.00    +0.000 OA
ENDROOT
BRANCH   1   9
ATOM      6  C   UNL     1       5.377   5.048  15.670  0.00  0.00    +0.000 A 
ATOM      7  C   UNL     1       5.150   6.364  16.085  0.00  0.00    +0.000 A 
ATOM      8  C   UNL     1       4.321   6.620  17.184  0.00  0.00    +0.000 A 
ATOM      9  C   UNL     1       3.715   5.570  17.894  0.00  0.00    +0.000 A 
ATOM     10  C   UNL     1       3.927   4.258  17.444  0.00  0.00    +0.000 A 
ATOM     11  C   UNL     1       4.748   3.998  16.333  0.00  0.00    +0.000 A 
BRANCH   6  13
ATOM     12  N   UNL     1       5.750   4.078  13.442  0.00  0.00    +0.000 N 
ATOM     13  C   UNL     1       6.264   4.786  14.494  0.00  0.00    +0.000 C 
ATOM     14  N   UNL     1       7.478   5.233  14.528  0.00  0.00    +0.000 NA
ATOM     15  H   UNL     1       4.784   4.281  13.199  0.00  0.00    +0.000 HD
ATOM     16  H   UNL     1       7.953   4.992  13.656  0.00  0.00    +0.000 HD
BRANCH  12  17
ATOM     17  C   UNL     1       6.516   3.377  12.430  0.00  0.00    +0.000 C 
BRANCH  17  19
ATOM     18  C   UNL     1       4.213   3.238  11.422  0.00  0.00    +0.000 C 
ATOM     19  C   UNL     1       5.570   2.567  11.546  0.00  0.00    +0.000 C 
ENDBRANCH  17  19
ENDBRANCH  12  17
ENDBRANCH   6  13
ENDBRANCH   1   9
BRANCH   4  20
ATOM     20  C   UNL     1       1.125   8.488  20.729  0.00  0.00    +0.000 A 
ATOM     21  C   UNL     1       0.972   9.494  19.762  0.00  0.00    +0.000 A 
ATOM     22  C   UNL     1       0.374  10.725  20.077  0.00  0.00    +0.000 A 
ATOM     23  C   UNL     1      -0.076  10.977  21.375  0.00  0.00    +0.000 A 
ATOM     24  C   UNL     1       0.107   9.995  22.357  0.00  0.00    +0.000 A 
ATOM     25  C   UNL     1       0.694   8.763  22.033  0.00  0.00    +0.000 A 
BRANCH  23  26
ATOM     26  C   UNL     1      -0.724  12.287  21.733  0.00  0.00    +0.000 C 
ATOM     27  N   UNL     1      -0.623  12.772  22.933  0.00  0.00    +0.000 NA
ATOM     28  N   UNL     1      -1.428  12.989  20.778  0.00  0.00    +0.000 N 
ATOM     29  H   UNL     1      -0.125  12.138  23.561  0.00  0.00    +0.000 HD
ATOM     30  H   UNL     1      -1.349  12.664  19.824  0.00  0.00    +0.000 HD
BRANCH  28  31
ATOM     31  C   UNL     1      -1.571  14.439  20.897  0.00  0.00    +0.000 C 
BRANCH  31  32
ATOM     32  C   UNL     1      -0.657  15.150  19.901  0.00  0.00    +0.000 C 
ATOM     33  C   UNL     1       0.677  15.516  20.536  0.00  0.00    +0.000 C 
ENDBRANCH  31  32
ENDBRANCH  28  31
ENDBRANCH  23  26
ENDBRANCH   4  20
TORSDOF 8
ENDMDL
MODEL 4
REMARK VINA RESULT:      -8.3      1.163      2.121
REMARK  Name = 
REMARK  10 active torsions:
REMARK  status: ('A' for Active; 'I' for Inactive)
REMARK    1  A    between atoms: C_1  and  C_2
REMARK    2  A    between atoms: C_2  and  C_3
REMARK    3  A    between atoms: C_3  and  N_4
REMARK    4  A    between atoms: C_5  and  C_7
REMARK    5  A    between atoms: C_10  and  C_11
REMARK    6  A    between atoms: C_14  and  C_15
REMARK    7  A    between atoms: C_18  and  C_19
REMARK    8  A    between atoms: N_21  and  C_22
REMARK    9  A    between atoms: C_22  and  C_23
REMARK   10  A    between atoms: C_23  and  C_24
REMARK                            x       y       z     vdW  Elec       q    Type
REMARK                         _______ _______ _______ _____ _____    ______ ____
ROOT
ATOM      1  C   UNL     1       2.937   5.823  19.117  0.00  0.00    +0.000 A 
ATOM      2  C   UNL     1       2.380   4.992  20.068  0.00  0.00    +0.000 A 
ATOM      3  C   UNL     1       1.564   5.802  20.893  0.00  0.00    +0.000 A 
ATOM      4  C   UNL     1       1.671   7.096  20.418  0.00  0.00    +0.000 A 
ATOM      5  O   UNL     1       2.508   7.105  19.333  0.00  0.00    +0.000 OA
ENDROOT
BRANCH   1   9
ATOM      6  C   UNL     1       5.427   5.128  15.697  0.00  0.00    +0.000 A 
ATOM      7  C   UNL     1       4.902   4.054  16.423  0.00  0.00    +0.000 A 
ATOM      8  C   UNL     1       4.112   4.290  17.554  0.00  0.00    +0.000 A 
ATOM      9  C   UNL     1       3.822   5.600  17.975  0.00  0.00    +0.000 A 
ATOM     10  C   UNL     1       4.383   6.666  17.255  0.00  0.00    +0.000 A 
ATOM     11  C   UNL     1       5.188   6.432  16.127  0.00  0.00    +0.000 A 
BRANCH   6  13
ATOM     12  N   UNL     1       5.696   4.219  13.430  0.00  0.00    +0.000 N 
ATOM     13  C   UNL     1       6.270   4.865  14.491  0.00  0.00    +0.000 C 
ATOM     14  N   UNL     1       7.505   5.252  14.507  0.00  0.00    +0.000 NA
ATOM     15  H   UNL     1       4.735   4.477  13.219  0.00  0.00    +0.000 HD
ATOM     16  H   UNL     1       7.945   5.019  13.615  0.00  0.00    +0.000 HD
BRANCH  12  17
ATOM     17  C   UNL     1       6.402   3.518  12.375  0.00  0.00    +0.000 C 
BRANCH  17  19
ATOM     18  C   UNL     1       4.182   3.143  11.247  0.00  0.00    +0.000 C 
ATOM     19  C   UNL     1       5.468   2.495  11.731  0.00  0.00    +0.000 C 
ENDBRANCH  17  19
ENDBRANCH  12  17
ENDBRANCH   6  13
ENDBRANCH   1   9
BRANCH   4  20
ATOM     20  C   UNL     1       1.109   8.383  20.830  0.00  0.00    +0.000 A 
ATOM     21  C   UNL     1       0.708   8.600  22.158  0.00  0.00    +0.000 A 
ATOM     22  C   UNL     1       0.215   9.846  22.577  0.00  0.00    +0.000 A 
ATOM     23  C   UNL     1       0.104  10.901  21.668  0.00  0.00    +0.000 A 
ATOM     24  C   UNL     1       0.465  10.684  20.333  0.00  0.00    +0.000 A 
ATOM     25  C   UNL     1       0.968   9.441  19.923  0.00  0.00    +0.000 A 
BRANCH  23  26
ATOM     26  C   UNL     1      -0.417  12.245  22.098  0.00  0.00    +0.000 C 
ATOM     27  N   UNL     1      -1.209  12.355  23.120  0.00  0.00    +0.000 NA
ATOM     28  N   UNL     1      -0.049  13.380  21.406  0.00  0.00    +0.000 N 
ATOM     29  H   UNL     1      -1.452  11.445  23.516  0.00  0.00    +0.000 HD
ATOM     30  H   UNL     1       0.689  13.275  20.723  0.00  0.00    +0.000 HD
BRANCH  28  31
ATOM     31  C   UNL     1      -0.049  14.677  22.078  0.00  0.00    +0.000 C 
BRANCH  31  32
ATOM     32  C   UNL     1       1.325  15.336  21.972  0.00  0.00    +0.000 C 
ATOM     33  C   UNL     1       2.193  14.644  20.932  0.00  0.00    +0.000 C 
ENDBRANCH  31  32
ENDBRANCH  28  31
ENDBRANCH  23  26
ENDBRANCH   4  20
TORSDOF 8
ENDMDL
MODEL 5
REMARK VINA RESULT:      -8.3      0.980      1.444
REMARK  Name = 
REMARK  10 active torsions:
REMARK  status: ('A' for Active; 'I' for Inactive)
REMARK    1  A    between atoms: C_1  and  C_2
REMARK    2  A    between atoms: C_2  and  C_3
REMARK    3  A    between atoms: C_3  and  N_4
REMARK    4  A    between atoms: C_5  and  C_7
REMARK    5  A    between atoms: C_10  and  C_11
REMARK    6  A    between atoms: C_14  and  C_15
REMARK    7  A    between atoms: C_18  and  C_19
REMARK    8  A    between atoms: N_21  and  C_22
REMARK    9  A    between atoms: C_22  and  C_23
REMARK   10  A    between atoms: C_23  and  C_24
REMARK                            x       y       z     vdW  Elec       q    Type
REMARK                         _______ _______ _______ _____ _____    ______ ____
ROOT
ATOM      1  C   UNL     1       3.060   5.786  19.141  0.00  0.00    +0.000 A 
ATOM      2  C   UNL     1       2.614   4.983  20.170  0.00  0.00    +0.000 A 
ATOM      3  C   UNL     1       1.755   5.777  20.968  0.00  0.00    +0.000 A 
ATOM      4  C   UNL     1       1.728   7.035  20.397  0.00  0.00    +0.000 A 
ATOM      5  O   UNL     1       2.523   7.038  19.282  0.00  0.00    +0.000 OA
ENDROOT
BRANCH   1   9
ATOM      6  C   UNL     1       5.485   5.075  15.678  0.00  0.00    +0.000 A 
ATOM      7  C   UNL     1       4.982   4.004  16.425  0.00  0.00    +0.000 A 
ATOM      8  C   UNL     1       4.214   4.246  17.570  0.00  0.00    +0.000 A 
ATOM      9  C   UNL     1       3.924   5.558  17.983  0.00  0.00    +0.000 A 
ATOM     10  C   UNL     1       4.462   6.620  17.241  0.00  0.00    +0.000 A 
ATOM     11  C   UNL     1       5.245   6.381  16.099  0.00  0.00    +0.000 A 
BRANCH   6  13
ATOM     12  N   UNL     1       5.727   4.109  13.431  0.00  0.00    +0.000 N 
ATOM     13  C   UNL     1       6.305   4.805  14.457  0.00  0.00    +0.000 C 
ATOM     14  N   UNL     1       7.526   5.234  14.429  0.00  0.00    +0.000 NA
ATOM     15  H   UNL     1       4.752   4.328  13.239  0.00  0.00    +0.000 HD
ATOM     16  H   UNL     1       7.951   4.990  13.533  0.00  0.00    +0.000 HD
BRANCH  12  17
ATOM     17  C   UNL     1       6.429   3.402  12.377  0.00  0.00    +0.000 C 
BRANCH  17  19
ATOM     18  C   UNL     1       4.182   3.159  11.265  0.00  0.00    +0.000 C 
ATOM     19  C   UNL     1       5.463   2.451  11.672  0.00  0.00    +0.000 C 
ENDBRANCH  17  19
ENDBRANCH  12  17
ENDBRANCH   6  13
ENDBRANCH   1   9
BRANCH   4  20
ATOM     20  C   UNL     1       1.064   8.295  20.738  0.00  0.00    +0.000 A 
ATOM     21  C   UNL     1       0.432   8.460  21.981  0.00  0.00    +0.000 A 
ATOM     22  C   UNL     1      -0.164   9.680  22.340  0.00  0.00    +0.000 A 
ATOM     23  C   UNL     1      -0.147  10.760  21.454  0.00  0.00    +0.000 A 
ATOM     24  C   UNL     1       0.447  10.593  20.197  0.00  0.00    +0.000 A 
ATOM     25  C   UNL     1       1.051   9.377  19.848  0.00  0.00    +0.000 A 
BRANCH  23  26
ATOM     26  C   UNL     1      -0.775  12.077  21.821  0.00  0.00    +0.000 C 
ATOM     27  N   UNL     1      -0.624  12.576  23.009  0.00  0.00    +0.000 NA
ATOM     28  N   UNL     1      -1.515  12.770  20.887  0.00  0.00    +0.000 N 
ATOM     29  H   UNL     1      -0.104  11.948  23.625  0.00  0.00    +0.000 HD
ATOM     30  H   UNL     1      -1.476  12.432  19.935  0.00  0.00    +0.000 HD
BRANCH  28  31
ATOM     31  C   UNL     1      -1.648  14.222  20.992  0.00  0.00    +0.000 C 
BRANCH  31  32
ATOM     32  C   UNL     1      -3.110  14.613  21.203  0.00  0.00    +0.000 C 
ATOM     33  C   UNL     1      -4.042  13.445  20.915  0.00  0.00    +0.000 C 
ENDBRANCH  31  32
ENDBRANCH  28  31
ENDBRANCH  23  26
ENDBRANCH   4  20
TORSDOF 8
ENDMDL
MODEL 6
REMARK VINA RESULT:      -8.3      0.347     11.373
REMARK  Name = 
REMARK  10 active torsions:
REMARK  status: ('A' for Active; 'I' for Inactive)
REMARK    1  A    between atoms: C_1  and  C_2
REMARK    2  A    between atoms: C_2  and  C_3
REMARK    3  A    between atoms: C_3  and  N_4
REMARK    4  A    between atoms: C_5  and  C_7
REMARK    5  A    between atoms: C_10  and  C_11
REMARK    6  A    between atoms: C_14  and  C_15
REMARK    7  A    between atoms: C_18  and  C_19
REMARK    8  A    between atoms: N_21  and  C_22
REMARK    9  A    between atoms: C_22  and  C_23
REMARK   10  A    between atoms: C_23  and  C_24
REMARK                            x       y       z     vdW  Elec       q    Type
REMARK                         _______ _______ _______ _____ _____    ______ ____
ROOT
ATOM      1  C   UNL     1       1.643   7.153  20.439  0.00  0.00    +0.000 A 
ATOM      2  C   UNL     1       1.765   5.942  21.089  0.00  0.00    +0.000 A 
ATOM      3  C   UNL     1       2.594   5.126  20.283  0.00  0.00    +0.000 A 
ATOM      4  C   UNL     1       2.927   5.870  19.167  0.00  0.00    +0.000 A 
ATOM      5  O   UNL     1       2.348   7.108  19.266  0.00  0.00    +0.000 OA
ENDROOT
BRANCH   1   9
ATOM      6  C   UNL     1      -0.247  10.858  21.479  0.00  0.00    +0.000 A 
ATOM      7  C   UNL     1      -0.319   9.758  22.340  0.00  0.00    +0.000 A 
ATOM      8  C   UNL     1       0.278   8.545  21.980  0.00  0.00    +0.000 A 
ATOM      9  C   UNL     1       0.966   8.409  20.763  0.00  0.00    +0.000 A 
ATOM     10  C   UNL     1       1.001   9.512  19.896  0.00  0.00    +0.000 A 
ATOM     11  C   UNL     1       0.392  10.728  20.247  0.00  0.00    +0.000 A 
BRANCH   6  13
ATOM     12  N   UNL     1      -1.416  12.252  23.131  0.00  0.00    +0.000 N 
ATOM     13  C   UNL     1      -0.889  12.150  21.873  0.00  0.00    +0.000 C 
ATOM     14  N   UNL     1      -0.923  13.109  21.005  0.00  0.00    +0.000 NA
ATOM     15  H   UNL     1      -0.883  11.808  23.874  0.00  0.00    +0.000 HD
ATOM     16  H   UNL     1      -1.374  13.926  21.419  0.00  0.00    +0.000 HD
BRANCH  12  17
ATOM     17  C   UNL     1      -2.410  13.216  23.563  0.00  0.00    +0.000 C 
BRANCH  17  19
ATOM     18  C   UNL     1      -4.923  13.255  23.718  0.00  0.00    +0.000 C 
ATOM     19  C   UNL     1      -3.659  12.478  24.043  0.00  0.00    +0.000 C 
ENDBRANCH  17  19
ENDBRANCH  12  17
ENDBRANCH   6  13
ENDBRANCH   1   9
BRANCH   4  20
ATOM     20  C   UNL     1       3.722   5.608  17.967  0.00  0.00    +0.000 A 
ATOM     21  C   UNL     1       4.374   6.654  17.294  0.00  0.00    +0.000 A 
ATOM     22  C   UNL     1       5.182   6.408  16.171  0.00  0.00    +0.000 A 
ATOM     23  C   UNL     1       5.344   5.105  15.692  0.00  0.00    +0.000 A 
ATOM     24  C   UNL     1       4.668   4.060  16.333  0.00  0.00    +0.000 A 
ATOM     25  C   UNL     1       3.873   4.310  17.461  0.00  0.00    +0.000 A 
BRANCH  23  26
ATOM     26  C   UNL     1       6.208   4.820  14.495  0.00  0.00    +0.000 C 
ATOM     27  N   UNL     1       7.464   5.149  14.487  0.00  0.00    +0.000 NA
ATOM     28  N   UNL     1       5.669   4.195  13.390  0.00  0.00    +0.000 N 
ATOM     29  H   UNL     1       7.733   5.651  15.336  0.00  0.00    +0.000 HD
ATOM     30  H   UNL     1       4.739   3.813  13.493  0.00  0.00    +0.000 HD
BRANCH  28  31
ATOM     31  C   UNL     1       6.528   3.421  12.497  0.00  0.00    +0.000 C 
BRANCH  31  32
ATOM     32  C   UNL     1       5.690   2.501  11.611  0.00  0.00    +0.000 C 
ATOM     33  C   UNL     1       4.318   3.098  11.333  0.00  0.00    +0.000 C 
ENDBRANCH  31  32
ENDBRANCH  28  31
ENDBRANCH  23  26
ENDBRANCH   4  20
TORSDOF 8
ENDMDL
MODEL 7
REMARK VINA RESULT:      -8.2      1.235     11.074
REMARK  Name = 
REMARK  10 active torsions:
REMARK  status: ('A' for Active; 'I' for Inactive)
REMARK    1  A    between atoms: C_1  and  C_2
REMARK    2  A    between atoms: C_2  and  C_3
REMARK    3  A    between atoms: C_3  and  N_4
REMARK    4  A    between atoms: C_5  and  C_7
REMARK    5  A    between atoms: C_10  and  C_11
REMARK    6  A    between atoms: C_14  and  C_15
REMARK    7  A    between atoms: C_18  and  C_19
REMARK    8  A    between atoms: N_21  and  C_22
REMARK    9  A    between atoms: C_22  and  C_23
REMARK   10  A    between atoms: C_23  and  C_24
REMARK                            x       y       z     vdW  Elec       q    Type
REMARK                         _______ _______ _______ _____ _____    ______ ____
ROOT
ATOM      1  C   UNL     1       1.795   7.071  20.351  0.00  0.00    +0.000 A 
ATOM      2  C   UNL     1       1.715   5.802  20.886  0.00  0.00    +0.000 A 
ATOM      3  C   UNL     1       2.492   4.958  20.058  0.00  0.00    +0.000 A 
ATOM      4  C   UNL     1       3.000   5.748  19.044  0.00  0.00    +0.000 A 
ATOM      5  O   UNL     1       2.574   7.037  19.226  0.00  0.00    +0.000 OA
ENDROOT
BRANCH   1   9
ATOM      6  C   UNL     1       0.109  10.851  21.469  0.00  0.00    +0.000 A 
ATOM      7  C   UNL     1       0.445  10.590  20.137  0.00  0.00    +0.000 A 
ATOM      8  C   UNL     1       1.020   9.363  19.785  0.00  0.00    +0.000 A 
ATOM      9  C   UNL     1       1.259   8.372  20.752  0.00  0.00    +0.000 A 
ATOM     10  C   UNL     1       0.946   8.662  22.089  0.00  0.00    +0.000 A 
ATOM     11  C   UNL     1       0.381   9.897  22.448  0.00  0.00    +0.000 A 
BRANCH   6  13
ATOM     12  N   UNL     1      -0.746  13.066  20.833  0.00  0.00    +0.000 N 
ATOM     13  C   UNL     1      -0.505  12.165  21.834  0.00  0.00    +0.000 C 
ATOM     14  N   UNL     1      -0.772  12.394  23.079  0.00  0.00    +0.000 NA
ATOM     15  H   UNL     1      -1.084  12.676  19.956  0.00  0.00    +0.000 HD
ATOM     16  H   UNL     1      -1.198  13.318  23.171  0.00  0.00    +0.000 HD
BRANCH  12  17
ATOM     17  C   UNL     1      -0.935  14.494  20.997  0.00  0.00    +0.000 C 
BRANCH  17  19
ATOM     18  C   UNL     1      -0.158  14.224  18.617  0.00  0.00    +0.000 C 
ATOM     19  C   UNL     1      -0.625  15.204  19.680  0.00  0.00    +0.000 C 
ENDBRANCH  17  19
ENDBRANCH  12  17
ENDBRANCH   6  13
ENDBRANCH   1   9
BRANCH   4  20
ATOM     20  C   UNL     1       3.843   5.489  17.875  0.00  0.00    +0.000 A 
ATOM     21  C   UNL     1       4.052   4.179  17.416  0.00  0.00    +0.000 A 
ATOM     22  C   UNL     1       4.817   3.922  16.266  0.00  0.00    +0.000 A 
ATOM     23  C   UNL     1       5.398   4.976  15.557  0.00  0.00    +0.000 A 
ATOM     24  C   UNL     1       5.227   6.283  16.029  0.00  0.00    +0.000 A 
ATOM     25  C   UNL     1       4.453   6.535  17.170  0.00  0.00    +0.000 A 
BRANCH  23  26
ATOM     26  C   UNL     1       6.216   4.723  14.321  0.00  0.00    +0.000 C 
ATOM     27  N   UNL     1       7.442   5.141  14.238  0.00  0.00    +0.000 NA
ATOM     28  N   UNL     1       5.667   4.033  13.260  0.00  0.00    +0.000 N 
ATOM     29  H   UNL     1       7.718   5.683  15.060  0.00  0.00    +0.000 HD
ATOM     30  H   UNL     1       4.773   3.588  13.422  0.00  0.00    +0.000 HD
BRANCH  28  31
ATOM     31  C   UNL     1       6.532   3.300  12.339  0.00  0.00    +0.000 C 
BRANCH  31  32
ATOM     32  C   UNL     1       5.710   2.341  11.480  0.00  0.00    +0.000 C 
ATOM     33  C   UNL     1       6.526   1.122  11.075  0.00  0.00    +0.000 C 
ENDBRANCH  31  32
ENDBRANCH  28  31
ENDBRANCH  23  26
ENDBRANCH   4  20
TORSDOF 8
ENDMDL
MODEL 8
REMARK VINA RESULT:      -8.2      0.571      1.151
REMARK  Name = 
REMARK  10 active torsions:
REMARK  status: ('A' for Active; 'I' for Inactive)
REMARK    1  A    between atoms: C_1  and  C_2
REMARK    2  A    between atoms: C_2  and  C_3
REMARK    3  A    between atoms: C_3  and  N_4
REMARK    4  A    between atoms: C_5  and  C_7
REMARK    5  A    between atoms: C_10  and  C_11
REMARK    6  A    between atoms: C_14  and  C_15
REMARK    7  A    between atoms: C_18  and  C_19
REMARK    8  A    between atoms: N_21  and  C_22
REMARK    9  A    between atoms: C_22  and  C_23
REMARK   10  A    between atoms: C_23  and  C_24
REMARK                            x       y       z     vdW  Elec       q    Type
REMARK                         _______ _______ _______ _____ _____    ______ ____
ROOT
ATOM      1  C   UNL     1       3.029   5.759  19.139  0.00  0.00    +0.000 A 
ATOM      2  C   UNL     1       2.690   5.009  20.247  0.00  0.00    +0.000 A 
ATOM      3  C   UNL     1       1.855   5.820  21.052  0.00  0.00    +0.000 A 
ATOM      4  C   UNL     1       1.734   7.036  20.407  0.00  0.00    +0.000 A 
ATOM      5  O   UNL     1       2.449   6.995  19.239  0.00  0.00    +0.000 OA
ENDROOT
BRANCH   1   9
ATOM      6  C   UNL     1       5.455   4.972  15.694  0.00  0.00    +0.000 A 
ATOM      7  C   UNL     1       5.393   6.258  16.240  0.00  0.00    +0.000 A 
ATOM      8  C   UNL     1       4.577   6.512  17.348  0.00  0.00    +0.000 A 
ATOM      9  C   UNL     1       3.819   5.487  17.939  0.00  0.00    +0.000 A 
ATOM     10  C   UNL     1       3.868   4.210  17.360  0.00  0.00    +0.000 A 
ATOM     11  C   UNL     1       4.675   3.954  16.239  0.00  0.00    +0.000 A 
BRANCH   6  13
ATOM     12  N   UNL     1       5.786   4.063  13.435  0.00  0.00    +0.000 N 
ATOM     13  C   UNL     1       6.330   4.712  14.509  0.00  0.00    +0.000 C 
ATOM     14  N   UNL     1       7.562   5.105  14.556  0.00  0.00    +0.000 NA
ATOM     15  H   UNL     1       4.829   4.316  13.200  0.00  0.00    +0.000 HD
ATOM     16  H   UNL     1       8.026   4.874  13.677  0.00  0.00    +0.000 HD
BRANCH  12  17
ATOM     17  C   UNL     1       6.521   3.365  12.398  0.00  0.00    +0.000 C 
BRANCH  17  19
ATOM     18  C   UNL     1       6.394   1.260  11.022  0.00  0.00    +0.000 C 
ATOM     19  C   UNL     1       5.601   2.356  11.713  0.00  0.00    +0.000 C 
ENDBRANCH  17  19
ENDBRANCH  12  17
ENDBRANCH   6  13
ENDBRANCH   1   9
BRANCH   4  20
ATOM     20  C   UNL     1       1.041   8.288  20.714  0.00  0.00    +0.000 A 
ATOM     21  C   UNL     1       1.059   9.360  19.807  0.00  0.00    +0.000 A 
ATOM     22  C   UNL     1       0.356  10.548  20.066  0.00  0.00    +0.000 A 
ATOM     23  C   UNL     1      -0.374  10.690  21.249  0.00  0.00    +0.000 A 
ATOM     24  C   UNL     1      -0.367   9.642  22.177  0.00  0.00    +0.000 A 
ATOM     25  C   UNL     1       0.327   8.453  21.907  0.00  0.00    +0.000 A 
BRANCH  23  26
ATOM     26  C   UNL     1      -1.137  11.951  21.544  0.00  0.00    +0.000 C 
ATOM     27  N   UNL     1      -1.869  12.514  20.632  0.00  0.00    +0.000 NA
ATOM     28  N   UNL     1      -1.070  12.520  22.799  0.00  0.00    +0.000 N 
ATOM     29  H   UNL     1      -1.797  12.033  19.733  0.00  0.00    +0.000 HD
ATOM     30  H   UNL     1      -0.624  11.971  23.522  0.00  0.00    +0.000 HD
BRANCH  28  31
ATOM     31  C   UNL     1      -2.168  13.352  23.283  0.00  0.00    +0.000 C 
BRANCH  31  32
ATOM     32  C   UNL     1      -3.325  12.482  23.773  0.00  0.00    +0.000 C 
ATOM     33  C   UNL     1      -4.670  13.084  23.394  0.00  0.00    +0.000 C 
ENDBRANCH  31  32
ENDBRANCH  28  31
ENDBRANCH  23  26
ENDBRANCH   4  20
TORSDOF 8
ENDMDL
MODEL 9
REMARK VINA RESULT:      -8.2      0.621     11.394
REMARK  Name = 
REMARK  10 active torsions:
REMARK  status: ('A' for Active; 'I' for Inactive)
REMARK    1  A    between atoms: C_1  and  C_2
REMARK    2  A    between atoms: C_2  and  C_3
REMARK    3  A    between atoms: C_3  and  N_4
REMARK    4  A    between atoms: C_5  and  C_7
REMARK    5  A    between atoms: C_10  and  C_11
REMARK    6  A    between atoms: C_14  and  C_15
REMARK    7  A    between atoms: C_18  and  C_19
REMARK    8  A    between atoms: N_21  and  C_22
REMARK    9  A    between atoms: C_22  and  C_23
REMARK   10  A    between atoms: C_23  and  C_24
REMARK                            x       y       z     vdW  Elec       q    Type
REMARK                         _______ _______ _______ _____ _____    ______ ____
ROOT
ATOM      1  C   UNL     1       1.577   7.215  20.558  0.00  0.00    +0.000 A 
ATOM      2  C   UNL     1       1.477   5.935  21.065  0.00  0.00    +0.000 A 
ATOM      3  C   UNL     1       2.239   5.097  20.217  0.00  0.00    +0.000 A 
ATOM      4  C   UNL     1       2.758   5.901  19.219  0.00  0.00    +0.000 A 
ATOM      5  O   UNL     1       2.354   7.193  19.431  0.00  0.00    +0.000 OA
ENDROOT
BRANCH   1   9
ATOM      6  C   UNL     1      -0.037  11.003  21.750  0.00  0.00    +0.000 A 
ATOM      7  C   UNL     1       0.433  10.810  20.447  0.00  0.00    +0.000 A 
ATOM      8  C   UNL     1       0.984   9.578  20.075  0.00  0.00    +0.000 A 
ATOM      9  C   UNL     1       1.064   8.515  20.989  0.00  0.00    +0.000 A 
ATOM     10  C   UNL     1       0.617   8.735  22.301  0.00  0.00    +0.000 A 
ATOM     11  C   UNL     1       0.077   9.974  22.683  0.00  0.00    +0.000 A 
BRANCH   6  13
ATOM     12  N   UNL     1      -1.904  12.346  22.617  0.00  0.00    +0.000 N 
ATOM     13  C   UNL     1      -0.623  12.323  22.138  0.00  0.00    +0.000 C 
ATOM     14  N   UNL     1       0.105  13.384  21.995  0.00  0.00    +0.000 NA
ATOM     15  H   UNL     1      -2.162  11.578  23.232  0.00  0.00    +0.000 HD
ATOM     16  H   UNL     1      -0.420  14.201  22.314  0.00  0.00    +0.000 HD
BRANCH  12  17
ATOM     17  C   UNL     1      -2.779  13.501  22.656  0.00  0.00    +0.000 C 
BRANCH  17  19
ATOM     18  C   UNL     1      -3.869  15.162  24.205  0.00  0.00    +0.000 C 
ATOM     19  C   UNL     1      -2.869  14.024  24.089  0.00  0.00    +0.000 C 
ENDBRANCH  17  19
ENDBRANCH  12  17
ENDBRANCH   6  13
ENDBRANCH   1   9
BRANCH   4  20
ATOM     20  C   UNL     1       3.595   5.655  18.044  0.00  0.00    +0.000 A 
ATOM     21  C   UNL     1       4.200   6.720  17.357  0.00  0.00    +0.000 A 
ATOM     22  C   UNL     1       5.046   6.493  16.259  0.00  0.00    +0.000 A 
ATOM     23  C   UNL     1       5.297   5.191  15.820  0.00  0.00    +0.000 A 
ATOM     24  C   UNL     1       4.669   4.125  16.475  0.00  0.00    +0.000 A 
ATOM     25  C   UNL     1       3.834   4.356  17.577  0.00  0.00    +0.000 A 
BRANCH  23  26
ATOM     26  C   UNL     1       6.204   4.927  14.650  0.00  0.00    +0.000 C 
ATOM     27  N   UNL     1       7.478   5.165  14.730  0.00  0.00    +0.000 NA
ATOM     28  N   UNL     1       5.686   4.419  13.478  0.00  0.00    +0.000 N 
ATOM     29  H   UNL     1       7.733   5.588  15.625  0.00  0.00    +0.000 HD
ATOM     30  H   UNL     1       4.727   4.098  13.507  0.00  0.00    +0.000 HD
BRANCH  28  31
ATOM     31  C   UNL     1       6.539   3.648  12.576  0.00  0.00    +0.000 C 
BRANCH  31  32
ATOM     32  C   UNL     1       5.715   2.608  11.818  0.00  0.00    +0.000 C 
ATOM     33  C   UNL     1       4.374   3.178  11.379  0.00  0.00    +0.000 C 
ENDBRANCH  31  32
ENDBRANCH  28  31
ENDBRANCH  23  26
ENDBRANCH   4  20
TORSDOF 8
ENDMDL
