MODEL 1
REMARK VINA RESULT:      -8.6      0.000      0.000
REMARK  Name = 
REMARK  8 active torsions:
REMARK  status: ('A' for Active; 'I' for Inactive)
REMARK    1  A    between atoms: C_1  and  O_2
REMARK    2  A    between atoms: O_2  and  C_3
REMARK    3  A    between atoms: N_5  and  C_6
REMARK    4  A    between atoms: C_6  and  C_7
REMARK    5  A    between atoms: C_6  and  C_8
REMARK    6  A    between atoms: C_8  and  C_9
REMARK    7  A    between atoms: C_12  and  C_13
REMARK    8  A    between atoms: C_14  and  C_15
REMARK                            x       y       z     vdW  Elec       q    Type
REMARK                         _______ _______ _______ _____ _____    ______ ____
ROOT
ATOM      1  C   UNL     1       8.764   9.118  18.416  0.00  0.00    +0.000 C 
ATOM      2  C   UNL     1       8.026   8.175  18.288  0.00  0.00    +0.000 C 
ENDROOT
BRANCH   2   3
ATOM      3  C   UNL     1       7.146   7.048  18.202  0.00  0.00    +0.000 A 
ATOM      4  C   UNL     1       7.275   5.920  18.983  0.00  0.00    +0.000 A 
ATOM      5  N   UNL     1       6.446   4.847  18.921  0.00  0.00    +0.000 NA
ATOM      6  C   UNL     1       5.455   4.883  18.012  0.00  0.00    +0.000 A 
ATOM      7  N   UNL     1       4.550   3.869  17.948  0.00  0.00    +0.000 N 
ATOM      8  C   UNL     1       4.534   2.711  18.812  0.00  0.00    +0.000 C 
ATOM      9  C   UNL     1       3.162   2.054  18.513  0.00  0.00    +0.000 C 
ATOM     10  C   UNL     1       2.126   2.253  19.621  0.00  0.00    +0.000 C 
ATOM     11  C   UNL     1       1.555   3.637  19.363  0.00  0.00    +0.000 C 
ATOM     12  C   UNL     1       1.457   3.710  17.847  0.00  0.00    +0.000 C 
ATOM     13  C   UNL     1       2.588   2.823  17.299  0.00  0.00    +0.000 C 
ATOM     14  C   UNL     1       3.760   3.640  16.759  0.00  0.00    +0.000 C 
ATOM     15  N   UNL     1       5.275   5.933  17.189  0.00  0.00    +0.000 NA
ATOM     16  C   UNL     1       6.104   6.992  17.313  0.00  0.00    +0.000 A 
ENDBRANCH   2   3
BRANCH   1  20
ATOM     17  C   UNL     1      10.921  12.718  19.105  0.00  0.00    +0.000 A 
ATOM     18  C   UNL     1      10.850  12.157  17.824  0.00  0.00    +0.000 A 
ATOM     19  C   UNL     1      10.174  10.950  17.610  0.00  0.00    +0.000 A 
ATOM     20  C   UNL     1       9.598  10.261  18.679  0.00  0.00    +0.000 A 
ATOM     21  C   UNL     1       9.777  10.747  19.975  0.00  0.00    +0.000 A 
ATOM     22  C   UNL     1      10.433  11.972  20.188  0.00  0.00    +0.000 A 
BRANCH  17  23
ATOM     23  C   UNL     1      11.438  14.134  19.299  0.00  0.00    +0.000 C 
BRANCH  23  24
ATOM     24  C   UNL     1      10.294  15.185  19.367  0.00  0.00    +0.000 C 
ATOM     25  C   UNL     1       9.873  15.483  20.812  0.00  0.00    +0.000 C 
BRANCH  24  28
ATOM     26  C   UNL     1       8.216  15.708  18.123  0.00  0.00    +0.000 C 
ATOM     27  O   UNL     1       8.256  16.911  18.318  0.00  0.00    +0.000 OA
ATOM     28  N   UNL     1       9.135  14.811  18.566  0.00  0.00    +0.000 N 
ATOM     29  H   UNL     1       8.897  13.833  18.442  0.00  0.00    +0.000 HD
BRANCH  26  31
ATOM     30  C   UNL     1       7.380  13.649  17.483  0.00  0.00    +0.000 C 
ATOM     31  O   UNL     1       7.230  15.069  17.443  0.00  0.00    +0.000 OA
ENDBRANCH  26  31
ENDBRANCH  24  28
ENDBRANCH  23  24
ENDBRANCH  17  23
ENDBRANCH   1  20
TORSDOF 6
ENDMDL
MODEL 2
REMARK VINA RESULT:      -8.6      0.781      1.233
REMARK  Name = 
REMARK  8 active torsions:
REMARK  status: ('A' for Active; 'I' for Inactive)
REMARK    1  A    between atoms: C_1  and  O_2
REMARK    2  A    between atoms: O_2  and  C_3
REMARK    3  A    between atoms: N_5  and  C_6
REMARK    4  A    between atoms: C_6  and  C_7
REMARK    5  A    between atoms: C_6  and  C_8
REMARK    6  A    between atoms: C_8  and  C_9
REMARK    7  A    between atoms: C_12  and  C_13
REMARK    8  A    between atoms: C_14  and  C_15
REMARK                            x       y       z     vdW  Elec       q    Type
REMARK                         _______ _______ _______ _____ _____    ______ ____
ROOT
ATOM      1  C   UNL     1       8.920   9.178  18.578  0.00  0.00    +0.000 C 
ATOM      2  C   UNL     1       8.204   8.219  18.451  0.00  0.00    +0.000 C 
ENDROOT
BRANCH   2   3
ATOM      3  C   UNL     1       7.305   7.109  18.338  0.00  0.00    +0.000 A 
ATOM      4  C   UNL     1       7.396   5.975  19.114  0.00  0.00    +0.000 A 
ATOM      5  N   UNL     1       6.548   4.917  19.026  0.00  0.00    +0.000 NA
ATOM      6  C   UNL     1       5.580   4.976  18.095  0.00  0.00    +0.000 A 
ATOM      7  N   UNL     1       4.658   3.979  18.003  0.00  0.00    +0.000 N 
ATOM      8  C   UNL     1       4.601   2.817  18.860  0.00  0.00    +0.000 C 
ATOM      9  C   UNL     1       3.225   2.187  18.524  0.00  0.00    +0.000 C 
ATOM     10  C   UNL     1       2.167   2.399  19.609  0.00  0.00    +0.000 C 
ATOM     11  C   UNL     1       1.627   3.795  19.346  0.00  0.00    +0.000 C 
ATOM     12  C   UNL     1       1.566   3.879  17.828  0.00  0.00    +0.000 C 
ATOM     13  C   UNL     1       2.693   2.974  17.302  0.00  0.00    +0.000 C 
ATOM     14  C   UNL     1       3.893   3.772  16.795  0.00  0.00    +0.000 C 
ATOM     15  N   UNL     1       5.439   6.034  17.274  0.00  0.00    +0.000 NA
ATOM     16  C   UNL     1       6.284   7.077  17.424  0.00  0.00    +0.000 A 
ENDBRANCH   2   3
BRANCH   1  20
ATOM     17  C   UNL     1      10.820  12.956  19.027  0.00  0.00    +0.000 A 
ATOM     18  C   UNL     1      10.661  12.379  17.762  0.00  0.00    +0.000 A 
ATOM     19  C   UNL     1      10.072  11.116  17.623  0.00  0.00    +0.000 A 
ATOM     20  C   UNL     1       9.676  10.391  18.749  0.00  0.00    +0.000 A 
ATOM     21  C   UNL     1       9.951  10.904  20.018  0.00  0.00    +0.000 A 
ATOM     22  C   UNL     1      10.518  12.182  20.157  0.00  0.00    +0.000 A 
BRANCH  17  23
ATOM     23  C   UNL     1      11.232  14.413  19.163  0.00  0.00    +0.000 C 
BRANCH  23  24
ATOM     24  C   UNL     1      10.472  15.344  18.176  0.00  0.00    +0.000 C 
ATOM     25  C   UNL     1      11.365  16.475  17.649  0.00  0.00    +0.000 C 
BRANCH  24  28
ATOM     26  C   UNL     1       8.012  15.385  18.473  0.00  0.00    +0.000 C 
ATOM     27  O   UNL     1       7.786  14.425  17.756  0.00  0.00    +0.000 OA
ATOM     28  N   UNL     1       9.245  15.888  18.743  0.00  0.00    +0.000 N 
ATOM     29  H   UNL     1       9.264  16.769  19.247  0.00  0.00    +0.000 HD
BRANCH  26  31
ATOM     30  C   UNL     1       7.422  17.495  19.214  0.00  0.00    +0.000 C 
ATOM     31  O   UNL     1       7.060  16.118  19.105  0.00  0.00    +0.000 OA
ENDBRANCH  26  31
ENDBRANCH  24  28
ENDBRANCH  23  24
ENDBRANCH  17  23
ENDBRANCH   1  20
TORSDOF 6
ENDMDL
MODEL 3
REMARK VINA RESULT:      -8.4      1.805      2.123
REMARK  Name = 
REMARK  8 active torsions:
REMARK  status: ('A' for Active; 'I' for Inactive)
REMARK    1  A    between atoms: C_1  and  O_2
REMARK    2  A    between atoms: O_2  and  C_3
REMARK    3  A    between atoms: N_5  and  C_6
REMARK    4  A    between atoms: C_6  and  C_7
REMARK    5  A    between atoms: C_6  and  C_8
REMARK    6  A    between atoms: C_8  and  C_9
REMARK    7  A    between atoms: C_12  and  C_13
REMARK    8  A    between atoms: C_14  and  C_15
REMARK                            x       y       z     vdW  Elec       q    Type
REMARK                         _______ _______ _______ _____ _____    ______ ____
ROOT
ATOM      1  C   UNL     1       8.537   9.451  18.081  0.00  0.00    +0.000 C 
ATOM      2  C   UNL     1       7.840   8.470  18.029  0.00  0.00    +0.000 C 
ENDROOT
BRANCH   2   3
ATOM      3  C   UNL     1       7.017   7.298  18.036  0.00  0.00    +0.000 A 
ATOM      4  C   UNL     1       7.232   6.221  18.867  0.00  0.00    +0.000 A 
ATOM      5  N   UNL     1       6.457   5.106  18.891  0.00  0.00    +0.000 NA
ATOM      6  C   UNL     1       5.433   5.045  18.021  0.00  0.00    +0.000 A 
ATOM      7  N   UNL     1       4.580   3.985  18.043  0.00  0.00    +0.000 N 
ATOM      8  C   UNL     1       4.655   2.875  18.966  0.00  0.00    +0.000 C 
ATOM      9  C   UNL     1       3.308   2.137  18.753  0.00  0.00    +0.000 C 
ATOM     10  C   UNL     1       2.304   2.343  19.889  0.00  0.00    +0.000 C 
ATOM     11  C   UNL     1       1.654   3.681  19.583  0.00  0.00    +0.000 C 
ATOM     12  C   UNL     1       1.497   3.670  18.070  0.00  0.00    +0.000 C 
ATOM     13  C   UNL     1       2.652   2.811  17.525  0.00  0.00    +0.000 C 
ATOM     14  C   UNL     1       3.761   3.656  16.899  0.00  0.00    +0.000 C 
ATOM     15  N   UNL     1       5.171   6.040  17.153  0.00  0.00    +0.000 NA
ATOM     16  C   UNL     1       5.948   7.144  17.191  0.00  0.00    +0.000 A 
ENDBRANCH   2   3
BRANCH   1  20
ATOM     17  C   UNL     1      10.656  13.045  18.905  0.00  0.00    +0.000 A 
ATOM     18  C   UNL     1       9.512  13.055  18.098  0.00  0.00    +0.000 A 
ATOM     19  C   UNL     1       8.842  11.863  17.796  0.00  0.00    +0.000 A 
ATOM     20  C   UNL     1       9.330  10.639  18.256  0.00  0.00    +0.000 A 
ATOM     21  C   UNL     1      10.541  10.609  18.950  0.00  0.00    +0.000 A 
ATOM     22  C   UNL     1      11.200  11.807  19.276  0.00  0.00    +0.000 A 
BRANCH  17  23
ATOM     23  C   UNL     1      11.240  14.347  19.431  0.00  0.00    +0.000 C 
BRANCH  23  24
ATOM     24  C   UNL     1      10.360  14.992  20.539  0.00  0.00    +0.000 C 
ATOM     25  C   UNL     1      10.967  16.299  21.065  0.00  0.00    +0.000 C 
BRANCH  24  28
ATOM     26  C   UNL     1       8.847  13.569  21.891  0.00  0.00    +0.000 C 
ATOM     27  O   UNL     1       7.848  13.788  21.227  0.00  0.00    +0.000 OA
ATOM     28  N   UNL     1      10.081  14.081  21.642  0.00  0.00    +0.000 N 
ATOM     29  H   UNL     1      10.782  13.918  22.357  0.00  0.00    +0.000 HD
BRANCH  26  31
ATOM     30  C   UNL     1       7.853  11.799  22.999  0.00  0.00    +0.000 C 
ATOM     31  O   UNL     1       8.882  12.790  23.002  0.00  0.00    +0.000 OA
ENDBRANCH  26  31
ENDBRANCH  24  28
ENDBRANCH  23  24
ENDBRANCH  17  23
ENDBRANCH   1  20
TORSDOF 6
ENDMDL
MODEL 4
REMARK VINA RESULT:      -8.4      3.755     11.465
REMARK  Name = 
REMARK  8 active torsions:
REMARK  status: ('A' for Active; 'I' for Inactive)
REMARK    1  A    between atoms: C_1  and  O_2
REMARK    2  A    between atoms: O_2  and  C_3
REMARK    3  A    between atoms: N_5  and  C_6
REMARK    4  A    between atoms: C_6  and  C_7
REMARK    5  A    between atoms: C_6  and  C_8
REMARK    6  A    between atoms: C_8  and  C_9
REMARK    7  A    between atoms: C_12  and  C_13
REMARK    8  A    between atoms: C_14  and  C_15
REMARK                            x       y       z     vdW  Elec       q    Type
REMARK                         _______ _______ _______ _____ _____    ______ ____
ROOT
ATOM      1  C   UNL     1       7.847   8.303  17.859  0.00  0.00    +0.000 C 
ATOM      2  C   UNL     1       8.364   9.371  18.066  0.00  0.00    +0.000 C 
ENDROOT
BRANCH   2   3
ATOM      3  C   UNL     1       8.916  10.668  18.316  0.00  0.00    +0.000 A 
ATOM      4  C   UNL     1       8.573  11.793  17.600  0.00  0.00    +0.000 A 
ATOM      5  N   UNL     1       9.080  13.032  17.829  0.00  0.00    +0.000 NA
ATOM      6  C   UNL     1      10.002  13.152  18.801  0.00  0.00    +0.000 A 
ATOM      7  N   UNL     1      10.498  14.377  19.124  0.00  0.00    +0.000 N 
ATOM      8  C   UNL     1      10.100  15.625  18.513  0.00  0.00    +0.000 C 
ATOM      9  C   UNL     1      10.730  16.698  19.436  0.00  0.00    +0.000 C 
ATOM     10  C   UNL     1       9.719  17.412  20.335  0.00  0.00    +0.000 C 
ATOM     11  C   UNL     1       9.524  16.470  21.511  0.00  0.00    +0.000 C 
ATOM     12  C   UNL     1      10.921  15.928  21.774  0.00  0.00    +0.000 C 
ATOM     13  C   UNL     1      11.643  15.922  20.415  0.00  0.00    +0.000 C 
ATOM     14  C   UNL     1      11.756  14.519  19.821  0.00  0.00    +0.000 C 
ATOM     15  N   UNL     1      10.417  12.099  19.529  0.00  0.00    +0.000 NA
ATOM     16  C   UNL     1       9.857  10.894  19.288  0.00  0.00    +0.000 A 
ENDBRANCH   2   3
BRANCH   1  20
ATOM     17  C   UNL     1       5.593   4.702  17.659  0.00  0.00    +0.000 A 
ATOM     18  C   UNL     1       6.886   4.710  18.195  0.00  0.00    +0.000 A 
ATOM     19  C   UNL     1       7.640   5.891  18.221  0.00  0.00    +0.000 A 
ATOM     20  C   UNL     1       7.132   7.068  17.669  0.00  0.00    +0.000 A 
ATOM     21  C   UNL     1       5.898   7.036  17.017  0.00  0.00    +0.000 A 
ATOM     22  C   UNL     1       5.130   5.858  17.014  0.00  0.00    +0.000 A 
BRANCH  17  23
ATOM     23  C   UNL     1       4.689   3.495  17.847  0.00  0.00    +0.000 C 
BRANCH  23  24
ATOM     24  C   UNL     1       4.130   3.386  19.294  0.00  0.00    +0.000 C 
ATOM     25  C   UNL     1       4.754   2.215  20.065  0.00  0.00    +0.000 C 
BRANCH  24  28
ATOM     26  C   UNL     1       1.918   3.953  20.258  0.00  0.00    +0.000 C 
ATOM     27  O   UNL     1       2.350   4.684  21.133  0.00  0.00    +0.000 OA
ATOM     28  N   UNL     1       2.676   3.304  19.335  0.00  0.00    +0.000 N 
ATOM     29  H   UNL     1       2.188   2.628  18.757  0.00  0.00    +0.000 HD
BRANCH  26  31
ATOM     30  C   UNL     1       0.401   2.754  18.987  0.00  0.00    +0.000 C 
ATOM     31  O   UNL     1       0.606   3.656  20.076  0.00  0.00    +0.000 OA
ENDBRANCH  26  31
ENDBRANCH  24  28
ENDBRANCH  23  24
ENDBRANCH  17  23
ENDBRANCH   1  20
TORSDOF 6
ENDMDL
MODEL 5
REMARK VINA RESULT:      -8.2      1.159      1.530
REMARK  Name = 
REMARK  8 active torsions:
REMARK  status: ('A' for Active; 'I' for Inactive)
REMARK    1  A    between atoms: C_1  and  O_2
REMARK    2  A    between atoms: O_2  and  C_3
REMARK    3  A    between atoms: N_5  and  C_6
REMARK    4  A    between atoms: C_6  and  C_7
REMARK    5  A    between atoms: C_6  and  C_8
REMARK    6  A    between atoms: C_8  and  C_9
REMARK    7  A    between atoms: C_12  and  C_13
REMARK    8  A    between atoms: C_14  and  C_15
REMARK                            x       y       z     vdW  Elec       q    Type
REMARK                         _______ _______ _______ _____ _____    ______ ____
ROOT
ATOM      1  C   UNL     1       8.374   9.190  18.134  0.00  0.00    +0.000 C 
ATOM      2  C   UNL     1       7.716   8.182  18.128  0.00  0.00    +0.000 C 
ENDROOT
BRANCH   2   3
ATOM      3  C   UNL     1       6.878   7.020  18.122  0.00  0.00    +0.000 A 
ATOM      4  C   UNL     1       7.061   5.945  18.964  0.00  0.00    +0.000 A 
ATOM      5  N   UNL     1       6.271   4.840  18.977  0.00  0.00    +0.000 NA
ATOM      6  C   UNL     1       5.267   4.787  18.085  0.00  0.00    +0.000 A 
ATOM      7  N   UNL     1       4.400   3.738  18.093  0.00  0.00    +0.000 N 
ATOM      8  C   UNL     1       4.440   2.633  19.023  0.00  0.00    +0.000 C 
ATOM      9  C   UNL     1       3.090   1.910  18.785  0.00  0.00    +0.000 C 
ATOM     10  C   UNL     1       2.063   2.135  19.896  0.00  0.00    +0.000 C 
ATOM     11  C   UNL     1       1.437   3.480  19.569  0.00  0.00    +0.000 C 
ATOM     12  C   UNL     1       1.314   3.461  18.053  0.00  0.00    +0.000 C 
ATOM     13  C   UNL     1       2.470   2.585  17.539  0.00  0.00    +0.000 C 
ATOM     14  C   UNL     1       3.603   3.412  16.933  0.00  0.00    +0.000 C 
ATOM     15  N   UNL     1       5.037   5.780  17.205  0.00  0.00    +0.000 NA
ATOM     16  C   UNL     1       5.827   6.874  17.254  0.00  0.00    +0.000 A 
ENDBRANCH   2   3
BRANCH   1  20
ATOM     17  C   UNL     1      10.198  13.028  18.320  0.00  0.00    +0.000 A 
ATOM     18  C   UNL     1       9.019  12.828  17.591  0.00  0.00    +0.000 A 
ATOM     19  C   UNL     1       8.445  11.554  17.500  0.00  0.00    +0.000 A 
ATOM     20  C   UNL     1       9.064  10.453  18.093  0.00  0.00    +0.000 A 
ATOM     21  C   UNL     1      10.306  10.622  18.709  0.00  0.00    +0.000 A 
ATOM     22  C   UNL     1      10.870  11.905  18.824  0.00  0.00    +0.000 A 
BRANCH  17  23
ATOM     23  C   UNL     1      10.687  14.435  18.622  0.00  0.00    +0.000 C 
BRANCH  23  24
ATOM     24  C   UNL     1      10.624  15.370  17.381  0.00  0.00    +0.000 C 
ATOM     25  C   UNL     1      11.919  16.171  17.199  0.00  0.00    +0.000 C 
BRANCH  24  28
ATOM     26  C   UNL     1       9.173  17.066  18.458  0.00  0.00    +0.000 C 
ATOM     27  O   UNL     1       9.825  17.152  19.484  0.00  0.00    +0.000 OA
ATOM     28  N   UNL     1       9.473  16.263  17.403  0.00  0.00    +0.000 N 
ATOM     29  H   UNL     1       8.766  16.199  16.679  0.00  0.00    +0.000 HD
BRANCH  26  31
ATOM     30  C   UNL     1       6.883  17.115  18.785  0.00  0.00    +0.000 C 
ATOM     31  O   UNL     1       8.027  17.751  18.211  0.00  0.00    +0.000 OA
ENDBRANCH  26  31
ENDBRANCH  24  28
ENDBRANCH  23  24
ENDBRANCH  17  23
ENDBRANCH   1  20
TORSDOF 6
ENDMDL
MODEL 6
REMARK VINA RESULT:      -8.1      1.705      2.363
REMARK  Name = 
REMARK  8 active torsions:
REMARK  status: ('A' for Active; 'I' for Inactive)
REMARK    1  A    between atoms: C_1  and  O_2
REMARK    2  A    between atoms: O_2  and  C_3
REMARK    3  A    between atoms: N_5  and  C_6
REMARK    4  A    between atoms: C_6  and  C_7
REMARK    5  A    between atoms: C_6  and  C_8
REMARK    6  A    between atoms: C_8  and  C_9
REMARK    7  A    between atoms: C_12  and  C_13
REMARK    8  A    between atoms: C_14  and  C_15
REMARK                            x       y       z     vdW  Elec       q    Type
REMARK                         _______ _______ _______ _____ _____    ______ ____
ROOT
ATOM      1  C   UNL     1       8.575   9.421  17.991  0.00  0.00    +0.000 C 
ATOM      2  C   UNL     1       7.897   8.427  17.969  0.00  0.00    +0.000 C 
ENDROOT
BRANCH   2   3
ATOM      3  C   UNL     1       7.061   7.264  18.000  0.00  0.00    +0.000 A 
ATOM      4  C   UNL     1       7.245   6.217  18.875  0.00  0.00    +0.000 A 
ATOM      5  N   UNL     1       6.457   5.112  18.924  0.00  0.00    +0.000 NA
ATOM      6  C   UNL     1       5.453   5.028  18.033  0.00  0.00    +0.000 A 
ATOM      7  N   UNL     1       4.588   3.979  18.074  0.00  0.00    +0.000 N 
ATOM      8  C   UNL     1       4.630   2.904  19.039  0.00  0.00    +0.000 C 
ATOM      9  C   UNL     1       3.281   2.171  18.823  0.00  0.00    +0.000 C 
ATOM     10  C   UNL     1       2.253   2.430  19.926  0.00  0.00    +0.000 C 
ATOM     11  C   UNL     1       1.624   3.762  19.555  0.00  0.00    +0.000 C 
ATOM     12  C   UNL     1       1.502   3.695  18.040  0.00  0.00    +0.000 C 
ATOM     13  C   UNL     1       2.661   2.805  17.555  0.00  0.00    +0.000 C 
ATOM     14  C   UNL     1       3.792   3.614  16.925  0.00  0.00    +0.000 C 
ATOM     15  N   UNL     1       5.222   5.992  17.122  0.00  0.00    +0.000 NA
ATOM     16  C   UNL     1       6.010   7.088  17.136  0.00  0.00    +0.000 A 
ENDBRANCH   2   3
BRANCH   1  20
ATOM     17  C   UNL     1      10.533  13.146  18.608  0.00  0.00    +0.000 A 
ATOM     18  C   UNL     1       9.286  13.087  17.973  0.00  0.00    +0.000 A 
ATOM     19  C   UNL     1       8.665  11.854  17.736  0.00  0.00    +0.000 A 
ATOM     20  C   UNL     1       9.300  10.661  18.085  0.00  0.00    +0.000 A 
ATOM     21  C   UNL     1      10.598  10.708  18.599  0.00  0.00    +0.000 A 
ATOM     22  C   UNL     1      11.211  11.945  18.862  0.00  0.00    +0.000 A 
BRANCH  17  23
ATOM     23  C   UNL     1      11.093  14.477  19.082  0.00  0.00    +0.000 C 
BRANCH  23  24
ATOM     24  C   UNL     1       9.995  15.421  19.648  0.00  0.00    +0.000 C 
ATOM     25  C   UNL     1       9.730  16.615  18.722  0.00  0.00    +0.000 C 
BRANCH  24  28
ATOM     26  C   UNL     1      10.030  15.142  22.110  0.00  0.00    +0.000 C 
ATOM     27  O   UNL     1       9.555  14.019  22.113  0.00  0.00    +0.000 OA
ATOM     28  N   UNL     1      10.286  15.882  21.000  0.00  0.00    +0.000 N 
ATOM     29  H   UNL     1      10.554  16.846  21.161  0.00  0.00    +0.000 HD
BRANCH  26  31
ATOM     30  C   UNL     1       9.836  17.169  23.208  0.00  0.00    +0.000 C 
ATOM     31  O   UNL     1      10.364  15.842  23.224  0.00  0.00    +0.000 OA
ENDBRANCH  26  31
ENDBRANCH  24  28
ENDBRANCH  23  24
ENDBRANCH  17  23
ENDBRANCH   1  20
TORSDOF 6
ENDMDL
MODEL 7
REMARK VINA RESULT:      -8.1      3.239     11.231
REMARK  Name = 
REMARK  8 active torsions:
REMARK  status: ('A' for Active; 'I' for Inactive)
REMARK    1  A    between atoms: C_1  and  O_2
REMARK    2  A    between atoms: O_2  and  C_3
REMARK    3  A    between atoms: N_5  and  C_6
REMARK    4  A    between atoms: C_6  and  C_7
REMARK    5  A    between atoms: C_6  and  C_8
REMARK    6  A    between atoms: C_8  and  C_9
REMARK    7  A    between atoms: C_12  and  C_13
REMARK    8  A    between atoms: C_14  and  C_15
REMARK                            x       y       z     vdW  Elec       q    Type
REMARK                         _______ _______ _______ _____ _____    ______ ____
ROOT
ATOM      1  C   UNL     1       8.152   8.630  18.093  0.00  0.00    +0.000 C 
ATOM      2  C   UNL     1       8.654   9.712  18.261  0.00  0.00    +0.000 C 
ENDROOT
BRANCH   2   3
ATOM      3  C   UNL     1       9.227  11.017  18.400  0.00  0.00    +0.000 A 
ATOM      4  C   UNL     1       8.800  12.116  17.688  0.00  0.00    +0.000 A 
ATOM      5  N   UNL     1       9.327  13.362  17.814  0.00  0.00    +0.000 NA
ATOM      6  C   UNL     1      10.353  13.516  18.669  0.00  0.00    +0.000 A 
ATOM      7  N   UNL     1      10.879  14.751  18.890  0.00  0.00    +0.000 N 
ATOM      8  C   UNL     1      10.409  15.976  18.285  0.00  0.00    +0.000 C 
ATOM      9  C   UNL     1      11.137  17.082  19.091  0.00  0.00    +0.000 C 
ATOM     10  C   UNL     1      10.233  17.828  20.074  0.00  0.00    +0.000 C 
ATOM     11  C   UNL     1      10.178  16.928  21.297  0.00  0.00    +0.000 C 
ATOM     12  C   UNL     1      11.597  16.394  21.418  0.00  0.00    +0.000 C 
ATOM     13  C   UNL     1      12.159  16.340  19.986  0.00  0.00    +0.000 C 
ATOM     14  C   UNL     1      12.208  14.917  19.433  0.00  0.00    +0.000 C 
ATOM     15  N   UNL     1      10.853  12.488  19.382  0.00  0.00    +0.000 NA
ATOM     16  C   UNL     1      10.273  11.276  19.249  0.00  0.00    +0.000 A 
ENDBRANCH   2   3
BRANCH   1  20
ATOM     17  C   UNL     1       5.927   5.039  17.604  0.00  0.00    +0.000 A 
ATOM     18  C   UNL     1       7.080   5.067  18.399  0.00  0.00    +0.000 A 
ATOM     19  C   UNL     1       7.832   6.242  18.523  0.00  0.00    +0.000 A 
ATOM     20  C   UNL     1       7.471   7.392  17.819  0.00  0.00    +0.000 A 
ATOM     21  C   UNL     1       6.400   7.334  16.926  0.00  0.00    +0.000 A 
ATOM     22  C   UNL     1       5.629   6.163  16.820  0.00  0.00    +0.000 A 
BRANCH  17  23
ATOM     23  C   UNL     1       4.982   3.849  17.659  0.00  0.00    +0.000 C 
BRANCH  23  24
ATOM     24  C   UNL     1       4.370   3.636  19.071  0.00  0.00    +0.000 C 
ATOM     25  C   UNL     1       3.388   2.458  19.101  0.00  0.00    +0.000 C 
BRANCH  24  28
ATOM     26  C   UNL     1       2.711   5.475  18.978  0.00  0.00    +0.000 C 
ATOM     27  O   UNL     1       2.191   5.118  17.935  0.00  0.00    +0.000 OA
ATOM     28  N   UNL     1       3.737   4.838  19.601  0.00  0.00    +0.000 N 
ATOM     29  H   UNL     1       4.151   5.326  20.387  0.00  0.00    +0.000 HD
BRANCH  26  31
ATOM     30  C   UNL     1       2.283   7.745  18.852  0.00  0.00    +0.000 C 
ATOM     31  O   UNL     1       2.356   6.583  19.679  0.00  0.00    +0.000 OA
ENDBRANCH  26  31
ENDBRANCH  24  28
ENDBRANCH  23  24
ENDBRANCH  17  23
ENDBRANCH   1  20
TORSDOF 6
ENDMDL
MODEL 8
REMARK VINA RESULT:      -8.1      1.063      1.153
REMARK  Name = 
REMARK  8 active torsions:
REMARK  status: ('A' for Active; 'I' for Inactive)
REMARK    1  A    between atoms: C_1  and  O_2
REMARK    2  A    between atoms: O_2  and  C_3
REMARK    3  A    between atoms: N_5  and  C_6
REMARK    4  A    between atoms: C_6  and  C_7
REMARK    5  A    between atoms: C_6  and  C_8
REMARK    6  A    between atoms: C_8  and  C_9
REMARK    7  A    between atoms: C_12  and  C_13
REMARK    8  A    between atoms: C_14  and  C_15
REMARK                            x       y       z     vdW  Elec       q    Type
REMARK                         _______ _______ _______ _____ _____    ______ ____
ROOT
ATOM      1  C   UNL     1       8.537   9.434  18.069  0.00  0.00    +0.000 C 
ATOM      2  C   UNL     1       7.862   8.437  18.026  0.00  0.00    +0.000 C 
ENDROOT
BRANCH   2   3
ATOM      3  C   UNL     1       7.036   7.267  18.035  0.00  0.00    +0.000 A 
ATOM      4  C   UNL     1       7.228   6.206  18.891  0.00  0.00    +0.000 A 
ATOM      5  N   UNL     1       6.450   5.093  18.918  0.00  0.00    +0.000 NA
ATOM      6  C   UNL     1       5.447   5.018  18.025  0.00  0.00    +0.000 A 
ATOM      7  N   UNL     1       4.590   3.961  18.047  0.00  0.00    +0.000 N 
ATOM      8  C   UNL     1       4.640   2.868  18.992  0.00  0.00    +0.000 C 
ATOM      9  C   UNL     1       3.298   2.129  18.761  0.00  0.00    +0.000 C 
ATOM     10  C   UNL     1       2.267   2.359  19.869  0.00  0.00    +0.000 C 
ATOM     11  C   UNL     1       1.628   3.693  19.523  0.00  0.00    +0.000 C 
ATOM     12  C   UNL     1       1.507   3.653  18.007  0.00  0.00    +0.000 C 
ATOM     13  C   UNL     1       2.672   2.781  17.506  0.00  0.00    +0.000 C 
ATOM     14  C   UNL     1       3.798   3.611  16.891  0.00  0.00    +0.000 C 
ATOM     15  N   UNL     1       5.208   5.997  17.132  0.00  0.00    +0.000 NA
ATOM     16  C   UNL     1       5.987   7.099  17.168  0.00  0.00    +0.000 A 
ENDBRANCH   2   3
BRANCH   1  20
ATOM     17  C   UNL     1      10.426  13.186  18.734  0.00  0.00    +0.000 A 
ATOM     18  C   UNL     1       9.335  13.076  17.863  0.00  0.00    +0.000 A 
ATOM     19  C   UNL     1       8.743  11.831  17.616  0.00  0.00    +0.000 A 
ATOM     20  C   UNL     1       9.260  10.672  18.197  0.00  0.00    +0.000 A 
ATOM     21  C   UNL     1      10.425  10.757  18.961  0.00  0.00    +0.000 A 
ATOM     22  C   UNL     1      11.005  12.009  19.231  0.00  0.00    +0.000 A 
BRANCH  17  23
ATOM     23  C   UNL     1      10.913  14.552  19.190  0.00  0.00    +0.000 C 
BRANCH  23  24
ATOM     24  C   UNL     1      10.014  15.168  20.298  0.00  0.00    +0.000 C 
ATOM     25  C   UNL     1      10.084  14.369  21.605  0.00  0.00    +0.000 C 
BRANCH  24  28
ATOM     26  C   UNL     1       7.879  16.423  20.184  0.00  0.00    +0.000 C 
ATOM     27  O   UNL     1       8.270  17.387  20.819  0.00  0.00    +0.000 OA
ATOM     28  N   UNL     1       8.628  15.331  19.876  0.00  0.00    +0.000 N 
ATOM     29  H   UNL     1       8.128  14.553  19.460  0.00  0.00    +0.000 HD
BRANCH  26  31
ATOM     30  C   UNL     1       6.593  15.507  18.493  0.00  0.00    +0.000 C 
ATOM     31  O   UNL     1       6.621  16.277  19.695  0.00  0.00    +0.000 OA
ENDBRANCH  26  31
ENDBRANCH  24  28
ENDBRANCH  23  24
ENDBRANCH  17  23
ENDBRANCH   1  20
TORSDOF 6
ENDMDL
MODEL 9
REMARK VINA RESULT:      -8.0      1.146      1.724
REMARK  Name = 
REMARK  8 active torsions:
REMARK  status: ('A' for Active; 'I' for Inactive)
REMARK    1  A    between atoms: C_1  and  O_2
REMARK    2  A    between atoms: O_2  and  C_3
REMARK    3  A    between atoms: N_5  and  C_6
REMARK    4  A    between atoms: C_6  and  C_7
REMARK    5  A    between atoms: C_6  and  C_8
REMARK    6  A    between atoms: C_8  and  C_9
REMARK    7  A    between atoms: C_12  and  C_13
REMARK    8  A    between atoms: C_14  and  C_15
REMARK                            x       y       z     vdW  Elec       q    Type
REMARK                         _______ _______ _______ _____ _____    ______ ____
ROOT
ATOM      1  C   UNL     1       8.725   9.550  18.141  0.00  0.00    +0.000 C 
ATOM      2  C   UNL     1       8.056   8.549  18.137  0.00  0.00    +0.000 C 
ENDROOT
BRANCH   2   3
ATOM      3  C   UNL     1       7.221   7.386  18.085  0.00  0.00    +0.000 A 
ATOM      4  C   UNL     1       7.409   6.277  18.880  0.00  0.00    +0.000 A 
ATOM      5  N   UNL     1       6.622   5.171  18.850  0.00  0.00    +0.000 NA
ATOM      6  C   UNL     1       5.614   5.153  17.960  0.00  0.00    +0.000 A 
ATOM      7  N   UNL     1       4.750   4.103  17.927  0.00  0.00    +0.000 N 
ATOM      8  C   UNL     1       4.796   2.959  18.809  0.00  0.00    +0.000 C 
ATOM      9  C   UNL     1       3.446   2.244  18.546  0.00  0.00    +0.000 C 
ATOM     10  C   UNL     1       2.423   2.419  19.670  0.00  0.00    +0.000 C 
ATOM     11  C   UNL     1       1.793   3.775  19.401  0.00  0.00    +0.000 C 
ATOM     12  C   UNL     1       1.664   3.820  17.886  0.00  0.00    +0.000 C 
ATOM     13  C   UNL     1       2.820   2.970  17.331  0.00  0.00    +0.000 C 
ATOM     14  C   UNL     1       3.949   3.824  16.757  0.00  0.00    +0.000 C 
ATOM     15  N   UNL     1       5.379   6.182  17.124  0.00  0.00    +0.000 NA
ATOM     16  C   UNL     1       6.167   7.275  17.216  0.00  0.00    +0.000 A 
ENDBRANCH   2   3
BRANCH   1  20
ATOM     17  C   UNL     1      10.836  13.242  18.177  0.00  0.00    +0.000 A 
ATOM     18  C   UNL     1       9.514  13.175  17.719  0.00  0.00    +0.000 A 
ATOM     19  C   UNL     1       8.838  11.950  17.671  0.00  0.00    +0.000 A 
ATOM     20  C   UNL     1       9.485  10.768  18.034  0.00  0.00    +0.000 A 
ATOM     21  C   UNL     1      10.841  10.810  18.366  0.00  0.00    +0.000 A 
ATOM     22  C   UNL     1      11.513  12.042  18.440  0.00  0.00    +0.000 A 
BRANCH  17  23
ATOM     23  C   UNL     1      11.486  14.587  18.458  0.00  0.00    +0.000 C 
BRANCH  23  24
ATOM     24  C   UNL     1      10.584  15.785  18.047  0.00  0.00    +0.000 C 
ATOM     25  C   UNL     1      11.318  16.767  17.125  0.00  0.00    +0.000 C 
BRANCH  24  28
ATOM     26  C   UNL     1       8.686  16.623  19.402  0.00  0.00    +0.000 C 
ATOM     27  O   UNL     1       7.812  16.165  18.685  0.00  0.00    +0.000 OA
ATOM     28  N   UNL     1      10.021  16.489  19.193  0.00  0.00    +0.000 N 
ATOM     29  H   UNL     1      10.623  17.037  19.799  0.00  0.00    +0.000 HD
BRANCH  26  31
ATOM     30  C   UNL     1       8.506  16.567  21.708  0.00  0.00    +0.000 C 
ATOM     31  O   UNL     1       8.460  17.359  20.520  0.00  0.00    +0.000 OA
ENDBRANCH  26  31
ENDBRANCH  24  28
ENDBRANCH  23  24
ENDBRANCH  17  23
ENDBRANCH   1  20
TORSDOF 6
ENDMDL
