MODEL 1
REMARK VINA RESULT:      -8.3      0.000      0.000
REMARK  Name = 
REMARK  6 active torsions:
REMARK  status: ('A' for Active; 'I' for Inactive)
REMARK    1  A    between atoms: C_2  and  C_22
REMARK    2  A    between atoms: N_3  and  C_4
REMARK    3  A    between atoms: C_4  and  C_5
REMARK    4  A    between atoms: C_5  and  C_6
REMARK    5  A    between atoms: C_6  and  C_7
REMARK    6  A    between atoms: C_13  and  C_14
REMARK                            x       y       z     vdW  Elec       q    Type
REMARK                         _______ _______ _______ _____ _____    ______ ____
ROOT
ATOM      1  C   UNL     1       6.929   5.660  17.152  0.00  0.00    +0.000 A 
ATOM      2  C   UNL     1       7.408   5.501  15.832  0.00  0.00    +0.000 A 
ATOM      3  C   UNL     1       6.812   4.624  14.914  0.00  0.00    +0.000 A 
ATOM      4  C   UNL     1       5.709   3.847  15.272  0.00  0.00    +0.000 A 
ATOM      5  C   UNL     1       5.209   3.982  16.571  0.00  0.00    +0.000 A 
ATOM      6  N   UNL     1       4.160   3.350  17.178  0.00  0.00    +0.000 NA
ATOM      7  C   UNL     1       4.120   3.897  18.377  0.00  0.00    +0.000 A 
ATOM      8  O   UNL     1       5.090   4.842  18.609  0.00  0.00    +0.000 OA
ATOM      9  C   UNL     1       5.806   4.879  17.444  0.00  0.00    +0.000 A 
ENDROOT
BRANCH   7  10
ATOM     10  C   UNL     1       3.141   3.668  19.433  0.00  0.00    +0.000 A 
ATOM     11  C   UNL     1       3.475   2.835  20.513  0.00  0.00    +0.000 A 
ATOM     12  C   UNL     1       2.519   2.494  21.474  0.00  0.00    +0.000 A 
ATOM     13  C   UNL     1       1.222   2.987  21.363  0.00  0.00    +0.000 A 
ATOM     14  C   UNL     1       0.889   3.847  20.319  0.00  0.00    +0.000 A 
ATOM     15  C   UNL     1       1.845   4.194  19.362  0.00  0.00    +0.000 A 
ENDBRANCH   7  10
BRANCH   1  16
ATOM     16  C   UNL     1       7.584   6.637  18.096  0.00  0.00    +0.000 C 
BRANCH  16  17
ATOM     17  C   UNL     1       7.692   8.061  17.538  0.00  0.00    +0.000 C 
BRANCH  17  18
ATOM     18  C   UNL     1       8.518   8.960  18.459  0.00  0.00    +0.000 C 
BRANCH  18  21
ATOM     19  O   UNL     1      10.353  10.939  19.343  0.00  0.00    +0.000 OA
ATOM     20  C   UNL     1       9.573  11.188  18.426  0.00  0.00    +0.000 C 
ATOM     21  N   UNL     1       8.635  10.306  17.938  0.00  0.00    +0.000 N 
ATOM     22  H   UNL     1       8.088  10.565  17.122  0.00  0.00    +0.000 HD
BRANCH  20  23
ATOM     23  C   UNL     1       9.582  12.510  17.743  0.00  0.00    +0.000 C 
ATOM     24  C   UNL     1       8.828  13.683  18.324  0.00  0.00    +0.000 C 
ATOM     25  C   UNL     1      10.328  13.667  18.363  0.00  0.00    +0.000 C 
ENDBRANCH  20  23
ENDBRANCH  18  21
ENDBRANCH  17  18
ENDBRANCH  16  17
ENDBRANCH   1  16
TORSDOF 6
ENDMDL
MODEL 2
REMARK VINA RESULT:      -8.3      1.164      1.750
REMARK  Name = 
REMARK  6 active torsions:
REMARK  status: ('A' for Active; 'I' for Inactive)
REMARK    1  A    between atoms: C_2  and  C_22
REMARK    2  A    between atoms: N_3  and  C_4
REMARK    3  A    between atoms: C_4  and  C_5
REMARK    4  A    between atoms: C_5  and  C_6
REMARK    5  A    between atoms: C_6  and  C_7
REMARK    6  A    between atoms: C_13  and  C_14
REMARK                            x       y       z     vdW  Elec       q    Type
REMARK                         _______ _______ _______ _____ _____    ______ ____
ROOT
ATOM      1  C   UNL     1       7.050   4.657  17.108  0.00  0.00    +0.000 A 
ATOM      2  C   UNL     1       7.351   4.899  15.749  0.00  0.00    +0.000 A 
ATOM      3  C   UNL     1       6.417   4.699  14.722  0.00  0.00    +0.000 A 
ATOM      4  C   UNL     1       5.130   4.233  14.999  0.00  0.00    +0.000 A 
ATOM      5  C   UNL     1       4.800   3.986  16.336  0.00  0.00    +0.000 A 
ATOM      6  N   UNL     1       3.633   3.527  16.880  0.00  0.00    +0.000 NA
ATOM      7  C   UNL     1       3.874   3.530  18.177  0.00  0.00    +0.000 A 
ATOM      8  O   UNL     1       5.136   3.946  18.525  0.00  0.00    +0.000 OA
ATOM      9  C   UNL     1       5.740   4.220  17.328  0.00  0.00    +0.000 A 
ENDROOT
BRANCH   7  10
ATOM     10  C   UNL     1       2.949   3.216  19.260  0.00  0.00    +0.000 A 
ATOM     11  C   UNL     1       1.572   3.409  19.068  0.00  0.00    +0.000 A 
ATOM     12  C   UNL     1       0.673   3.241  20.123  0.00  0.00    +0.000 A 
ATOM     13  C   UNL     1       1.145   2.873  21.381  0.00  0.00    +0.000 A 
ATOM     14  C   UNL     1       2.505   2.637  21.575  0.00  0.00    +0.000 A 
ATOM     15  C   UNL     1       3.403   2.800  20.518  0.00  0.00    +0.000 A 
ENDBRANCH   7  10
BRANCH   1  16
ATOM     16  C   UNL     1       8.078   4.914  18.181  0.00  0.00    +0.000 C 
BRANCH  16  17
ATOM     17  C   UNL     1       7.804   6.172  19.013  0.00  0.00    +0.000 C 
BRANCH  17  18
ATOM     18  C   UNL     1       7.957   7.440  18.173  0.00  0.00    +0.000 C 
BRANCH  18  21
ATOM     19  O   UNL     1       8.002  10.220  17.593  0.00  0.00    +0.000 OA
ATOM     20  C   UNL     1       8.703   9.768  18.495  0.00  0.00    +0.000 C 
ATOM     21  N   UNL     1       8.768   8.437  18.842  0.00  0.00    +0.000 N 
ATOM     22  H   UNL     1       9.311   8.163  19.655  0.00  0.00    +0.000 HD
BRANCH  20  23
ATOM     23  C   UNL     1       9.570  10.656  19.317  0.00  0.00    +0.000 C 
ATOM     24  C   UNL     1      10.625  11.521  18.668  0.00  0.00    +0.000 C 
ATOM     25  C   UNL     1       9.391  12.153  19.243  0.00  0.00    +0.000 C 
ENDBRANCH  20  23
ENDBRANCH  18  21
ENDBRANCH  17  18
ENDBRANCH  16  17
ENDBRANCH   1  16
TORSDOF 6
ENDMDL
MODEL 3
REMARK VINA RESULT:      -8.0      4.099      6.611
REMARK  Name = 
REMARK  6 active torsions:
REMARK  status: ('A' for Active; 'I' for Inactive)
REMARK    1  A    between atoms: C_2  and  C_22
REMARK    2  A    between atoms: N_3  and  C_4
REMARK    3  A    between atoms: C_4  and  C_5
REMARK    4  A    between atoms: C_5  and  C_6
REMARK    5  A    between atoms: C_6  and  C_7
REMARK    6  A    between atoms: C_13  and  C_14
REMARK                            x       y       z     vdW  Elec       q    Type
REMARK                         _______ _______ _______ _____ _____    ______ ____
ROOT
ATOM      1  C   UNL     1       4.092   3.909  19.656  0.00  0.00    +0.000 A 
ATOM      2  C   UNL     1       3.835   2.710  20.358  0.00  0.00    +0.000 A 
ATOM      3  C   UNL     1       2.756   2.569  21.242  0.00  0.00    +0.000 A 
ATOM      4  C   UNL     1       1.879   3.629  21.482  0.00  0.00    +0.000 A 
ATOM      5  C   UNL     1       2.105   4.830  20.802  0.00  0.00    +0.000 A 
ATOM      6  N   UNL     1       1.417   6.009  20.853  0.00  0.00    +0.000 NA
ATOM      7  C   UNL     1       2.044   6.772  19.978  0.00  0.00    +0.000 A 
ATOM      8  O   UNL     1       3.117   6.175  19.362  0.00  0.00    +0.000 OA
ATOM      9  C   UNL     1       3.166   4.924  19.915  0.00  0.00    +0.000 A 
ENDROOT
BRANCH   7  10
ATOM     10  C   UNL     1       1.689   8.120  19.550  0.00  0.00    +0.000 A 
ATOM     11  C   UNL     1       2.112   8.576  18.291  0.00  0.00    +0.000 A 
ATOM     12  C   UNL     1       1.899   9.902  17.903  0.00  0.00    +0.000 A 
ATOM     13  C   UNL     1       1.258  10.780  18.772  0.00  0.00    +0.000 A 
ATOM     14  C   UNL     1       0.796  10.330  20.007  0.00  0.00    +0.000 A 
ATOM     15  C   UNL     1       1.003   9.004  20.392  0.00  0.00    +0.000 A 
ENDBRANCH   7  10
BRANCH   1  16
ATOM     16  C   UNL     1       5.249   4.004  18.693  0.00  0.00    +0.000 C 
BRANCH  16  17
ATOM     17  C   UNL     1       6.273   5.084  19.059  0.00  0.00    +0.000 C 
BRANCH  17  18
ATOM     18  C   UNL     1       7.512   5.004  18.166  0.00  0.00    +0.000 C 
BRANCH  18  21
ATOM     19  O   UNL     1       6.819   6.133  15.654  0.00  0.00    +0.000 OA
ATOM     20  C   UNL     1       6.937   4.915  15.770  0.00  0.00    +0.000 C 
ATOM     21  N   UNL     1       7.251   4.269  16.945  0.00  0.00    +0.000 N 
ATOM     22  H   UNL     1       7.410   3.266  16.932  0.00  0.00    +0.000 HD
BRANCH  20  23
ATOM     23  C   UNL     1       6.746   4.007  14.606  0.00  0.00    +0.000 C 
ATOM     24  C   UNL     1       5.466   4.041  13.803  0.00  0.00    +0.000 C 
ATOM     25  C   UNL     1       6.736   4.575  13.208  0.00  0.00    +0.000 C 
ENDBRANCH  20  23
ENDBRANCH  18  21
ENDBRANCH  17  18
ENDBRANCH  16  17
ENDBRANCH   1  16
TORSDOF 6
ENDMDL
MODEL 4
REMARK VINA RESULT:      -7.9      1.145      1.375
REMARK  Name = 
REMARK  6 active torsions:
REMARK  status: ('A' for Active; 'I' for Inactive)
REMARK    1  A    between atoms: C_2  and  C_22
REMARK    2  A    between atoms: N_3  and  C_4
REMARK    3  A    between atoms: C_4  and  C_5
REMARK    4  A    between atoms: C_5  and  C_6
REMARK    5  A    between atoms: C_6  and  C_7
REMARK    6  A    between atoms: C_13  and  C_14
REMARK                            x       y       z     vdW  Elec       q    Type
REMARK                         _______ _______ _______ _____ _____    ______ ____
ROOT
ATOM      1  C   UNL     1       6.644   6.027  17.040  0.00  0.00    +0.000 A 
ATOM      2  C   UNL     1       7.328   5.845  15.818  0.00  0.00    +0.000 A 
ATOM      3  C   UNL     1       6.974   4.849  14.896  0.00  0.00    +0.000 A 
ATOM      4  C   UNL     1       5.920   3.970  15.154  0.00  0.00    +0.000 A 
ATOM      5  C   UNL     1       5.221   4.126  16.355  0.00  0.00    +0.000 A 
ATOM      6  N   UNL     1       4.168   3.412  16.855  0.00  0.00    +0.000 NA
ATOM      7  C   UNL     1       3.891   4.023  17.991  0.00  0.00    +0.000 A 
ATOM      8  O   UNL     1       4.707   5.089  18.282  0.00  0.00    +0.000 OA
ATOM      9  C   UNL     1       5.581   5.138  17.231  0.00  0.00    +0.000 A 
ENDROOT
BRANCH   7  10
ATOM     10  C   UNL     1       2.796   3.746  18.913  0.00  0.00    +0.000 A 
ATOM     11  C   UNL     1       2.881   4.197  20.239  0.00  0.00    +0.000 A 
ATOM     12  C   UNL     1       1.911   3.840  21.179  0.00  0.00    +0.000 A 
ATOM     13  C   UNL     1       0.844   3.030  20.797  0.00  0.00    +0.000 A 
ATOM     14  C   UNL     1       0.726   2.609  19.474  0.00  0.00    +0.000 A 
ATOM     15  C   UNL     1       1.691   2.971  18.533  0.00  0.00    +0.000 A 
ENDBRANCH   7  10
BRANCH   1  16
ATOM     16  C   UNL     1       7.042   7.130  17.988  0.00  0.00    +0.000 C 
BRANCH  16  17
ATOM     17  C   UNL     1       8.193   8.003  17.475  0.00  0.00    +0.000 C 
BRANCH  17  18
ATOM     18  C   UNL     1       8.022   9.461  17.903  0.00  0.00    +0.000 C 
BRANCH  18  21
ATOM     19  O   UNL     1       9.022  12.096  18.248  0.00  0.00    +0.000 OA
ATOM     20  C   UNL     1       9.443  11.181  18.952  0.00  0.00    +0.000 C 
ATOM     21  N   UNL     1       9.037   9.868  18.852  0.00  0.00    +0.000 N 
ATOM     22  H   UNL     1       9.376   9.192  19.530  0.00  0.00    +0.000 HD
BRANCH  20  23
ATOM     23  C   UNL     1      10.460  11.426  20.010  0.00  0.00    +0.000 C 
ATOM     24  C   UNL     1      11.896  11.724  19.646  0.00  0.00    +0.000 C 
ATOM     25  C   UNL     1      11.025  12.814  20.198  0.00  0.00    +0.000 C 
ENDBRANCH  20  23
ENDBRANCH  18  21
ENDBRANCH  17  18
ENDBRANCH  16  17
ENDBRANCH   1  16
TORSDOF 6
ENDMDL
MODEL 5
REMARK VINA RESULT:      -7.9      4.057      6.670
REMARK  Name = 
REMARK  6 active torsions:
REMARK  status: ('A' for Active; 'I' for Inactive)
REMARK    1  A    between atoms: C_2  and  C_22
REMARK    2  A    between atoms: N_3  and  C_4
REMARK    3  A    between atoms: C_4  and  C_5
REMARK    4  A    between atoms: C_5  and  C_6
REMARK    5  A    between atoms: C_6  and  C_7
REMARK    6  A    between atoms: C_13  and  C_14
REMARK                            x       y       z     vdW  Elec       q    Type
REMARK                         _______ _______ _______ _____ _____    ______ ____
ROOT
ATOM      1  C   UNL     1       3.836   5.162  18.148  0.00  0.00    +0.000 A 
ATOM      2  C   UNL     1       3.940   3.761  18.294  0.00  0.00    +0.000 A 
ATOM      3  C   UNL     1       3.272   3.056  19.305  0.00  0.00    +0.000 A 
ATOM      4  C   UNL     1       2.471   3.719  20.237  0.00  0.00    +0.000 A 
ATOM      5  C   UNL     1       2.345   5.107  20.119  0.00  0.00    +0.000 A 
ATOM      6  N   UNL     1       1.640   5.992  20.885  0.00  0.00    +0.000 NA
ATOM      7  C   UNL     1       1.847   7.151  20.290  0.00  0.00    +0.000 A 
ATOM      8  O   UNL     1       2.660   7.090  19.184  0.00  0.00    +0.000 OA
ATOM      9  C   UNL     1       2.998   5.768  19.089  0.00  0.00    +0.000 A 
ENDROOT
BRANCH   7  10
ATOM     10  C   UNL     1       1.265   8.445  20.624  0.00  0.00    +0.000 A 
ATOM     11  C   UNL     1       0.920   8.723  21.956  0.00  0.00    +0.000 A 
ATOM     12  C   UNL     1       0.245   9.900  22.289  0.00  0.00    +0.000 A 
ATOM     13  C   UNL     1      -0.087  10.812  21.291  0.00  0.00    +0.000 A 
ATOM     14  C   UNL     1       0.286  10.568  19.970  0.00  0.00    +0.000 A 
ATOM     15  C   UNL     1       0.966   9.395  19.638  0.00  0.00    +0.000 A 
ENDBRANCH   7  10
BRANCH   1  16
ATOM     16  C   UNL     1       4.550   5.875  17.026  0.00  0.00    +0.000 C 
BRANCH  16  17
ATOM     17  C   UNL     1       5.932   6.412  17.414  0.00  0.00    +0.000 C 
BRANCH  17  18
ATOM     18  C   UNL     1       7.050   5.530  16.856  0.00  0.00    +0.000 C 
BRANCH  18  21
ATOM     19  O   UNL     1       7.540   5.558  14.058  0.00  0.00    +0.000 OA
ATOM     20  C   UNL     1       6.861   4.662  14.555  0.00  0.00    +0.000 C 
ATOM     21  N   UNL     1       6.550   4.569  15.895  0.00  0.00    +0.000 N 
ATOM     22  H   UNL     1       6.054   3.750  16.232  0.00  0.00    +0.000 HD
BRANCH  20  23
ATOM     23  C   UNL     1       6.300   3.565  13.721  0.00  0.00    +0.000 C 
ATOM     24  C   UNL     1       5.191   3.838  12.731  0.00  0.00    +0.000 C 
ATOM     25  C   UNL     1       6.576   3.538  12.237  0.00  0.00    +0.000 C 
ENDBRANCH  20  23
ENDBRANCH  18  21
ENDBRANCH  17  18
ENDBRANCH  16  17
ENDBRANCH   1  16
TORSDOF 6
ENDMDL
MODEL 6
REMARK VINA RESULT:      -7.9      4.595      7.680
REMARK  Name = 
REMARK  6 active torsions:
REMARK  status: ('A' for Active; 'I' for Inactive)
REMARK    1  A    between atoms: C_2  and  C_22
REMARK    2  A    between atoms: N_3  and  C_4
REMARK    3  A    between atoms: C_4  and  C_5
REMARK    4  A    between atoms: C_5  and  C_6
REMARK    5  A    between atoms: C_6  and  C_7
REMARK    6  A    between atoms: C_13  and  C_14
REMARK                            x       y       z     vdW  Elec       q    Type
REMARK                         _______ _______ _______ _____ _____    ______ ____
ROOT
ATOM      1  C   UNL     1       3.605   6.283  18.154  0.00  0.00    +0.000 A 
ATOM      2  C   UNL     1       3.196   5.742  19.393  0.00  0.00    +0.000 A 
ATOM      3  C   UNL     1       3.424   4.403  19.743  0.00  0.00    +0.000 A 
ATOM      4  C   UNL     1       4.066   3.528  18.865  0.00  0.00    +0.000 A 
ATOM      5  C   UNL     1       4.485   4.034  17.630  0.00  0.00    +0.000 A 
ATOM      6  N   UNL     1       5.122   3.407  16.596  0.00  0.00    +0.000 NA
ATOM      7  C   UNL     1       5.308   4.371  15.716  0.00  0.00    +0.000 A 
ATOM      8  O   UNL     1       4.818   5.597  16.097  0.00  0.00    +0.000 OA
ATOM      9  C   UNL     1       4.267   5.369  17.328  0.00  0.00    +0.000 A 
ENDROOT
BRANCH   7  10
ATOM     10  C   UNL     1       6.022   4.299  14.447  0.00  0.00    +0.000 A 
ATOM     11  C   UNL     1       7.148   5.111  14.243  0.00  0.00    +0.000 A 
ATOM     12  C   UNL     1       7.778   5.161  12.997  0.00  0.00    +0.000 A 
ATOM     13  C   UNL     1       7.287   4.392  11.944  0.00  0.00    +0.000 A 
ATOM     14  C   UNL     1       6.195   3.550  12.145  0.00  0.00    +0.000 A 
ATOM     15  C   UNL     1       5.569   3.496  13.392  0.00  0.00    +0.000 A 
ENDBRANCH   7  10
BRANCH   1  16
ATOM     16  C   UNL     1       3.364   7.737  17.832  0.00  0.00    +0.000 C 
BRANCH  16  17
ATOM     17  C   UNL     1       2.138   8.332  18.533  0.00  0.00    +0.000 C 
BRANCH  17  18
ATOM     18  C   UNL     1       1.724   9.661  17.901  0.00  0.00    +0.000 C 
BRANCH  18  21
ATOM     19  O   UNL     1      -0.123  11.019  19.578  0.00  0.00    +0.000 OA
ATOM     20  C   UNL     1      -0.518  10.442  18.567  0.00  0.00    +0.000 C 
ATOM     21  N   UNL     1       0.291   9.741  17.700  0.00  0.00    +0.000 N 
ATOM     22  H   UNL     1      -0.106   9.366  16.845  0.00  0.00    +0.000 HD
BRANCH  20  23
ATOM     23  C   UNL     1      -1.956  10.456  18.182  0.00  0.00    +0.000 C 
ATOM     24  C   UNL     1      -2.446  11.342  17.060  0.00  0.00    +0.000 C 
ATOM     25  C   UNL     1      -2.384   9.856  16.865  0.00  0.00    +0.000 C 
ENDBRANCH  20  23
ENDBRANCH  18  21
ENDBRANCH  17  18
ENDBRANCH  16  17
ENDBRANCH   1  16
TORSDOF 6
ENDMDL
MODEL 7
REMARK VINA RESULT:      -7.8      1.280      1.523
REMARK  Name = 
REMARK  6 active torsions:
REMARK  status: ('A' for Active; 'I' for Inactive)
REMARK    1  A    between atoms: C_2  and  C_22
REMARK    2  A    between atoms: N_3  and  C_4
REMARK    3  A    between atoms: C_4  and  C_5
REMARK    4  A    between atoms: C_5  and  C_6
REMARK    5  A    between atoms: C_6  and  C_7
REMARK    6  A    between atoms: C_13  and  C_14
REMARK                            x       y       z     vdW  Elec       q    Type
REMARK                         _______ _______ _______ _____ _____    ______ ____
ROOT
ATOM      1  C   UNL     1       6.948   5.613  16.756  0.00  0.00    +0.000 A 
ATOM      2  C   UNL     1       7.451   5.480  15.442  0.00  0.00    +0.000 A 
ATOM      3  C   UNL     1       6.820   4.693  14.469  0.00  0.00    +0.000 A 
ATOM      4  C   UNL     1       5.653   3.983  14.762  0.00  0.00    +0.000 A 
ATOM      5  C   UNL     1       5.129   4.095  16.054  0.00  0.00    +0.000 A 
ATOM      6  N   UNL     1       4.021   3.514  16.604  0.00  0.00    +0.000 NA
ATOM      7  C   UNL     1       3.986   4.007  17.827  0.00  0.00    +0.000 A 
ATOM      8  O   UNL     1       5.015   4.867  18.127  0.00  0.00    +0.000 OA
ATOM      9  C   UNL     1       5.765   4.904  16.983  0.00  0.00    +0.000 A 
ENDROOT
BRANCH   7  10
ATOM     10  C   UNL     1       2.965   3.802  18.846  0.00  0.00    +0.000 A 
ATOM     11  C   UNL     1       1.873   2.964  18.569  0.00  0.00    +0.000 A 
ATOM     12  C   UNL     1       0.814   2.847  19.473  0.00  0.00    +0.000 A 
ATOM     13  C   UNL     1       0.843   3.565  20.666  0.00  0.00    +0.000 A 
ATOM     14  C   UNL     1       1.939   4.368  20.972  0.00  0.00    +0.000 A 
ATOM     15  C   UNL     1       3.000   4.481  20.071  0.00  0.00    +0.000 A 
ENDBRANCH   7  10
BRANCH   1  16
ATOM     16  C   UNL     1       7.646   6.495  17.761  0.00  0.00    +0.000 C 
BRANCH  16  17
ATOM     17  C   UNL     1       7.114   7.932  17.800  0.00  0.00    +0.000 C 
BRANCH  17  18
ATOM     18  C   UNL     1       8.233   8.948  17.561  0.00  0.00    +0.000 C 
BRANCH  18  21
ATOM     19  O   UNL     1       9.268  11.557  17.992  0.00  0.00    +0.000 OA
ATOM     20  C   UNL     1       9.241  10.745  18.915  0.00  0.00    +0.000 C 
ATOM     21  N   UNL     1       8.777   9.453  18.805  0.00  0.00    +0.000 N 
ATOM     22  H   UNL     1       8.713   8.877  19.639  0.00  0.00    +0.000 HD
BRANCH  20  23
ATOM     23  C   UNL     1       9.722  11.108  20.275  0.00  0.00    +0.000 C 
ATOM     24  C   UNL     1      10.990  11.909  20.457  0.00  0.00    +0.000 C 
ATOM     25  C   UNL     1       9.659  12.545  20.733  0.00  0.00    +0.000 C 
ENDBRANCH  20  23
ENDBRANCH  18  21
ENDBRANCH  17  18
ENDBRANCH  16  17
ENDBRANCH   1  16
TORSDOF 6
ENDMDL
MODEL 8
REMARK VINA RESULT:      -7.8      3.894      6.497
REMARK  Name = 
REMARK  6 active torsions:
REMARK  status: ('A' for Active; 'I' for Inactive)
REMARK    1  A    between atoms: C_2  and  C_22
REMARK    2  A    between atoms: N_3  and  C_4
REMARK    3  A    between atoms: C_4  and  C_5
REMARK    4  A    between atoms: C_5  and  C_6
REMARK    5  A    between atoms: C_6  and  C_7
REMARK    6  A    between atoms: C_13  and  C_14
REMARK                            x       y       z     vdW  Elec       q    Type
REMARK                         _______ _______ _______ _____ _____    ______ ____
ROOT
ATOM      1  C   UNL     1       4.289   3.952  19.504  0.00  0.00    +0.000 A 
ATOM      2  C   UNL     1       4.043   2.712  20.134  0.00  0.00    +0.000 A 
ATOM      3  C   UNL     1       2.949   2.502  20.986  0.00  0.00    +0.000 A 
ATOM      4  C   UNL     1       2.046   3.530  21.265  0.00  0.00    +0.000 A 
ATOM      5  C   UNL     1       2.260   4.770  20.655  0.00  0.00    +0.000 A 
ATOM      6  N   UNL     1       1.546   5.931  20.755  0.00  0.00    +0.000 NA
ATOM      7  C   UNL     1       2.174   6.753  19.936  0.00  0.00    +0.000 A 
ATOM      8  O   UNL     1       3.272   6.211  19.312  0.00  0.00    +0.000 OA
ATOM      9  C   UNL     1       3.337   4.933  19.797  0.00  0.00    +0.000 A 
ENDROOT
BRANCH   7  10
ATOM     10  C   UNL     1       1.801   8.114  19.574  0.00  0.00    +0.000 A 
ATOM     11  C   UNL     1       1.095   8.904  20.495  0.00  0.00    +0.000 A 
ATOM     12  C   UNL     1       0.612  10.164  20.134  0.00  0.00    +0.000 A 
ATOM     13  C   UNL     1       0.835  10.646  18.847  0.00  0.00    +0.000 A 
ATOM     14  C   UNL     1       1.570   9.891  17.936  0.00  0.00    +0.000 A 
ATOM     15  C   UNL     1       2.058   8.634  18.298  0.00  0.00    +0.000 A 
ENDBRANCH   7  10
BRANCH   1  16
ATOM     16  C   UNL     1       5.463   4.123  18.572  0.00  0.00    +0.000 C 
BRANCH  16  17
ATOM     17  C   UNL     1       6.463   5.192  19.025  0.00  0.00    +0.000 C 
BRANCH  17  18
ATOM     18  C   UNL     1       7.094   5.908  17.830  0.00  0.00    +0.000 C 
BRANCH  18  21
ATOM     19  O   UNL     1       5.903   6.230  15.272  0.00  0.00    +0.000 OA
ATOM     20  C   UNL     1       6.649   5.277  15.488  0.00  0.00    +0.000 C 
ATOM     21  N   UNL     1       7.260   5.021  16.696  0.00  0.00    +0.000 N 
ATOM     22  H   UNL     1       7.926   4.258  16.762  0.00  0.00    +0.000 HD
BRANCH  20  23
ATOM     23  C   UNL     1       6.966   4.288  14.423  0.00  0.00    +0.000 C 
ATOM     24  C   UNL     1       5.883   3.769  13.505  0.00  0.00    +0.000 C 
ATOM     25  C   UNL     1       6.924   4.710  12.974  0.00  0.00    +0.000 C 
ENDBRANCH  20  23
ENDBRANCH  18  21
ENDBRANCH  17  18
ENDBRANCH  16  17
ENDBRANCH   1  16
TORSDOF 6
ENDMDL
MODEL 9
REMARK VINA RESULT:      -7.8      4.555      7.081
REMARK  Name = 
REMARK  6 active torsions:
REMARK  status: ('A' for Active; 'I' for Inactive)
REMARK    1  A    between atoms: C_2  and  C_22
REMARK    2  A    between atoms: N_3  and  C_4
REMARK    3  A    between atoms: C_4  and  C_5
REMARK    4  A    between atoms: C_5  and  C_6
REMARK    5  A    between atoms: C_6  and  C_7
REMARK    6  A    between atoms: C_13  and  C_14
REMARK                            x       y       z     vdW  Elec       q    Type
REMARK                         _______ _______ _______ _____ _____    ______ ____
ROOT
ATOM      1  C   UNL     1       4.388   4.016  19.350  0.00  0.00    +0.000 A 
ATOM      2  C   UNL     1       4.207   2.784  20.017  0.00  0.00    +0.000 A 
ATOM      3  C   UNL     1       3.163   2.564  20.927  0.00  0.00    +0.000 A 
ATOM      4  C   UNL     1       2.248   3.574  21.230  0.00  0.00    +0.000 A 
ATOM      5  C   UNL     1       2.399   4.806  20.586  0.00  0.00    +0.000 A 
ATOM      6  N   UNL     1       1.661   5.951  20.698  0.00  0.00    +0.000 NA
ATOM      7  C   UNL     1       2.225   6.771  19.833  0.00  0.00    +0.000 A 
ATOM      8  O   UNL     1       3.304   6.244  19.165  0.00  0.00    +0.000 OA
ATOM      9  C   UNL     1       3.427   4.979  19.672  0.00  0.00    +0.000 A 
ENDROOT
BRANCH   7  10
ATOM     10  C   UNL     1       1.798   8.115  19.463  0.00  0.00    +0.000 A 
ATOM     11  C   UNL     1       2.144   8.625  18.202  0.00  0.00    +0.000 A 
ATOM     12  C   UNL     1       1.861   9.951  17.865  0.00  0.00    +0.000 A 
ATOM     13  C   UNL     1       1.225  10.777  18.788  0.00  0.00    +0.000 A 
ATOM     14  C   UNL     1       0.839  10.271  20.028  0.00  0.00    +0.000 A 
ATOM     15  C   UNL     1       1.116   8.944  20.362  0.00  0.00    +0.000 A 
ENDBRANCH   7  10
BRANCH   1  16
ATOM     16  C   UNL     1       5.509   4.197  18.358  0.00  0.00    +0.000 C 
BRANCH  16  17
ATOM     17  C   UNL     1       5.142   3.788  16.927  0.00  0.00    +0.000 C 
BRANCH  17  18
ATOM     18  C   UNL     1       5.241   4.973  15.965  0.00  0.00    +0.000 C 
BRANCH  18  21
ATOM     19  O   UNL     1       7.580   5.057  14.357  0.00  0.00    +0.000 OA
ATOM     20  C   UNL     1       6.532   4.609  13.896  0.00  0.00    +0.000 C 
ATOM     21  N   UNL     1       5.341   4.543  14.586  0.00  0.00    +0.000 N 
ATOM     22  H   UNL     1       4.545   4.081  14.156  0.00  0.00    +0.000 HD
BRANCH  20  23
ATOM     23  C   UNL     1       6.462   4.082  12.506  0.00  0.00    +0.000 C 
ATOM     24  C   UNL     1       6.379   2.596  12.248  0.00  0.00    +0.000 C 
ATOM     25  C   UNL     1       5.180   3.465  12.004  0.00  0.00    +0.000 C 
ENDBRANCH  20  23
ENDBRANCH  18  21
ENDBRANCH  17  18
ENDBRANCH  16  17
ENDBRANCH   1  16
TORSDOF 6
ENDMDL
