MODEL 1
REMARK VINA RESULT:      -7.5      0.000      0.000
REMARK  Name = 
REMARK  6 active torsions:
REMARK  status: ('A' for Active; 'I' for Inactive)
REMARK    1  A    between atoms: C_1  and  C_2
REMARK    2  A    between atoms: C_2  and  C_3
REMARK    3  A    between atoms: C_3  and  C_4
REMARK    4  A    between atoms: C_4  and  N_5
REMARK    5  A    between atoms: C_8  and  C_9
REMARK    6  A    between atoms: C_8  and  C_16
REMARK                            x       y       z     vdW  Elec       q    Type
REMARK                         _______ _______ _______ _____ _____    ______ ____
ROOT
ATOM      1  N   UNL     1       3.800   4.610  18.430  0.00  0.00    +0.000 N 
ATOM      2  C   UNL     1       4.361   5.479  17.516  0.00  0.00    +0.000 C 
ATOM      3  O   UNL     1       3.781   6.420  16.984  0.00  0.00    +0.000 OA
ATOM      4  C   UNL     1       5.871   5.126  17.325  0.00  0.00    +0.000 C 
ATOM      5  N   UNL     1       5.957   4.051  18.296  0.00  0.00    +0.000 N 
ATOM      6  C   UNL     1       4.763   3.770  18.912  0.00  0.00    +0.000 C 
ATOM      7  S   UNL     1       4.653   2.579  20.059  0.00  0.00    +0.000 S 
ATOM      8  H   UNL     1       6.820   3.596  18.561  0.00  0.00    +0.000 HD
ENDROOT
BRANCH   4   9
ATOM      9  C   UNL     1       6.147   4.629  15.893  0.00  0.00    +0.000 A 
ATOM     10  C   UNL     1       5.142   3.942  15.181  0.00  0.00    +0.000 A 
ATOM     11  C   UNL     1       5.299   3.633  13.826  0.00  0.00    +0.000 A 
ATOM     12  C   UNL     1       6.468   3.997  13.163  0.00  0.00    +0.000 A 
ATOM     13 CL   UNL     1       6.636   3.679  11.482  0.00  0.00    +0.000 Cl
ATOM     14  C   UNL     1       7.492   4.639  13.852  0.00  0.00    +0.000 A 
ATOM     15  C   UNL     1       7.336   4.950  15.207  0.00  0.00    +0.000 A 
ENDBRANCH   4   9
BRANCH   4  16
ATOM     16  C   UNL     1       6.791   6.283  17.768  0.00  0.00    +0.000 A 
ATOM     17  C   UNL     1       7.735   6.107  18.799  0.00  0.00    +0.000 A 
ATOM     18  C   UNL     1       8.532   7.167  19.239  0.00  0.00    +0.000 A 
ATOM     19  C   UNL     1       8.415   8.419  18.643  0.00  0.00    +0.000 A 
ATOM     20 CL   UNL     1       9.371   9.732  19.207  0.00  0.00    +0.000 Cl
ATOM     21  C   UNL     1       7.523   8.611  17.595  0.00  0.00    +0.000 A 
ATOM     22  C   UNL     1       6.730   7.549  17.150  0.00  0.00    +0.000 A 
ENDBRANCH   4  16
BRANCH   1  23
ATOM     23  C   UNL     1       2.439   4.780  18.937  0.00  0.00    +0.000 C 
BRANCH  23  24
ATOM     24  C   UNL     1       1.417   3.927  18.188  0.00  0.00    +0.000 C 
BRANCH  24  26
ATOM     25  C   UNL     1       0.965   3.104  20.513  0.00  0.00    +0.000 C 
ATOM     26  C   UNL     1       0.926   2.754  19.035  0.00  0.00    +0.000 C 
ENDBRANCH  24  26
ENDBRANCH  23  24
ENDBRANCH   1  23
TORSDOF 5
ENDMDL
MODEL 2
REMARK VINA RESULT:      -7.4      0.289      1.007
REMARK  Name = 
REMARK  6 active torsions:
REMARK  status: ('A' for Active; 'I' for Inactive)
REMARK    1  A    between atoms: C_1  and  C_2
REMARK    2  A    between atoms: C_2  and  C_3
REMARK    3  A    between atoms: C_3  and  C_4
REMARK    4  A    between atoms: C_4  and  N_5
REMARK    5  A    between atoms: C_8  and  C_9
REMARK    6  A    between atoms: C_8  and  C_16
REMARK                            x       y       z     vdW  Elec       q    Type
REMARK                         _______ _______ _______ _____ _____    ______ ____
ROOT
ATOM      1  N   UNL     1       3.794   4.604  18.541  0.00  0.00    +0.000 N 
ATOM      2  C   UNL     1       4.278   5.540  17.647  0.00  0.00    +0.000 C 
ATOM      3  O   UNL     1       3.657   6.515  17.236  0.00  0.00    +0.000 OA
ATOM      4  C   UNL     1       5.766   5.207  17.305  0.00  0.00    +0.000 C 
ATOM      5  N   UNL     1       5.931   4.065  18.185  0.00  0.00    +0.000 N 
ATOM      6  C   UNL     1       4.793   3.735  18.877  0.00  0.00    +0.000 C 
ATOM      7  S   UNL     1       4.777   2.465  19.940  0.00  0.00    +0.000 S 
ATOM      8  H   UNL     1       6.812   3.596  18.342  0.00  0.00    +0.000 HD
ENDROOT
BRANCH   4   9
ATOM      9  C   UNL     1       5.919   4.816  15.823  0.00  0.00    +0.000 A 
ATOM     10  C   UNL     1       7.146   5.030  15.161  0.00  0.00    +0.000 A 
ATOM     11  C   UNL     1       7.370   4.529  13.875  0.00  0.00    +0.000 A 
ATOM     12  C   UNL     1       6.369   3.816  13.224  0.00  0.00    +0.000 A 
ATOM     13 CL   UNL     1       6.665   3.141  11.670  0.00  0.00    +0.000 Cl
ATOM     14  C   UNL     1       5.135   3.624  13.837  0.00  0.00    +0.000 A 
ATOM     15  C   UNL     1       4.909   4.123  15.125  0.00  0.00    +0.000 A 
ENDBRANCH   4   9
BRANCH   4  16
ATOM     16  C   UNL     1       6.722   6.332  17.751  0.00  0.00    +0.000 A 
ATOM     17  C   UNL     1       7.680   6.114  18.761  0.00  0.00    +0.000 A 
ATOM     18  C   UNL     1       8.512   7.146  19.205  0.00  0.00    +0.000 A 
ATOM     19  C   UNL     1       8.415   8.411  18.634  0.00  0.00    +0.000 A 
ATOM     20 CL   UNL     1       9.414   9.689  19.203  0.00  0.00    +0.000 Cl
ATOM     21  C   UNL     1       7.509   8.645  17.607  0.00  0.00    +0.000 A 
ATOM     22  C   UNL     1       6.682   7.611  17.158  0.00  0.00    +0.000 A 
ENDBRANCH   4  16
BRANCH   1  23
ATOM     23  C   UNL     1       2.481   4.733  19.171  0.00  0.00    +0.000 C 
BRANCH  23  24
ATOM     24  C   UNL     1       1.445   3.777  18.582  0.00  0.00    +0.000 C 
BRANCH  24  26
ATOM     25  C   UNL     1       1.338   3.224  21.026  0.00  0.00    +0.000 C 
ATOM     26  C   UNL     1       0.677   3.030  19.672  0.00  0.00    +0.000 C 
ENDBRANCH  24  26
ENDBRANCH  23  24
ENDBRANCH   1  23
TORSDOF 5
ENDMDL
MODEL 3
REMARK VINA RESULT:      -7.1      2.483      3.300
REMARK  Name = 
REMARK  6 active torsions:
REMARK  status: ('A' for Active; 'I' for Inactive)
REMARK    1  A    between atoms: C_1  and  C_2
REMARK    2  A    between atoms: C_2  and  C_3
REMARK    3  A    between atoms: C_3  and  C_4
REMARK    4  A    between atoms: C_4  and  N_5
REMARK    5  A    between atoms: C_8  and  C_9
REMARK    6  A    between atoms: C_8  and  C_16
REMARK                            x       y       z     vdW  Elec       q    Type
REMARK                         _______ _______ _______ _____ _____    ______ ____
ROOT
ATOM      1  N   UNL     1       3.200   2.539  18.538  0.00  0.00    +0.000 N 
ATOM      2  C   UNL     1       3.088   3.515  17.568  0.00  0.00    +0.000 C 
ATOM      3  O   UNL     1       2.233   3.545  16.688  0.00  0.00    +0.000 OA
ATOM      4  C   UNL     1       4.169   4.616  17.815  0.00  0.00    +0.000 C 
ATOM      5  N   UNL     1       4.740   4.077  19.035  0.00  0.00    +0.000 N 
ATOM      6  C   UNL     1       4.176   2.889  19.427  0.00  0.00    +0.000 C 
ATOM      7  S   UNL     1       4.684   2.114  20.801  0.00  0.00    +0.000 S 
ATOM      8  H   UNL     1       5.432   4.555  19.594  0.00  0.00    +0.000 HD
ENDROOT
BRANCH   4   9
ATOM      9  C   UNL     1       5.196   4.650  16.667  0.00  0.00    +0.000 A 
ATOM     10  C   UNL     1       4.837   4.180  15.387  0.00  0.00    +0.000 A 
ATOM     11  C   UNL     1       5.684   4.357  14.288  0.00  0.00    +0.000 A 
ATOM     12  C   UNL     1       6.907   4.998  14.452  0.00  0.00    +0.000 A 
ATOM     13 CL   UNL     1       7.920   5.278  13.091  0.00  0.00    +0.000 Cl
ATOM     14  C   UNL     1       7.304   5.437  15.711  0.00  0.00    +0.000 A 
ATOM     15  C   UNL     1       6.458   5.261  16.812  0.00  0.00    +0.000 A 
ENDBRANCH   4   9
BRANCH   4  16
ATOM     16  C   UNL     1       3.531   5.988  18.117  0.00  0.00    +0.000 A 
ATOM     17  C   UNL     1       2.810   6.207  19.307  0.00  0.00    +0.000 A 
ATOM     18  C   UNL     1       2.185   7.431  19.560  0.00  0.00    +0.000 A 
ATOM     19  C   UNL     1       2.286   8.467  18.637  0.00  0.00    +0.000 A 
ATOM     20 CL   UNL     1       1.490   9.962  18.932  0.00  0.00    +0.000 Cl
ATOM     21  C   UNL     1       3.027   8.294  17.474  0.00  0.00    +0.000 A 
ATOM     22  C   UNL     1       3.658   7.072  17.224  0.00  0.00    +0.000 A 
ENDBRANCH   4  16
BRANCH   1  23
ATOM     23  C   UNL     1       2.228   1.453  18.670  0.00  0.00    +0.000 C 
BRANCH  23  24
ATOM     24  C   UNL     1       0.842   1.946  19.079  0.00  0.00    +0.000 C 
BRANCH  24  26
ATOM     25  C   UNL     1       1.195   2.734  21.433  0.00  0.00    +0.000 C 
ATOM     26  C   UNL     1       0.921   3.161  20.002  0.00  0.00    +0.000 C 
ENDBRANCH  24  26
ENDBRANCH  23  24
ENDBRANCH   1  23
TORSDOF 5
ENDMDL
MODEL 4
REMARK VINA RESULT:      -7.1      2.472      3.578
REMARK  Name = 
REMARK  6 active torsions:
REMARK  status: ('A' for Active; 'I' for Inactive)
REMARK    1  A    between atoms: C_1  and  C_2
REMARK    2  A    between atoms: C_2  and  C_3
REMARK    3  A    between atoms: C_3  and  C_4
REMARK    4  A    between atoms: C_4  and  N_5
REMARK    5  A    between atoms: C_8  and  C_9
REMARK    6  A    between atoms: C_8  and  C_16
REMARK                            x       y       z     vdW  Elec       q    Type
REMARK                         _______ _______ _______ _____ _____    ______ ____
ROOT
ATOM      1  N   UNL     1       3.095   2.721  18.471  0.00  0.00    +0.000 N 
ATOM      2  C   UNL     1       2.874   3.762  17.591  0.00  0.00    +0.000 C 
ATOM      3  O   UNL     1       1.960   3.817  16.774  0.00  0.00    +0.000 OA
ATOM      4  C   UNL     1       3.922   4.891  17.853  0.00  0.00    +0.000 C 
ATOM      5  N   UNL     1       4.599   4.289  18.985  0.00  0.00    +0.000 N 
ATOM      6  C   UNL     1       4.114   3.049  19.319  0.00  0.00    +0.000 C 
ATOM      7  S   UNL     1       4.749   2.197  20.590  0.00  0.00    +0.000 S 
ATOM      8  H   UNL     1       5.307   4.756  19.534  0.00  0.00    +0.000 HD
ENDROOT
BRANCH   4   9
ATOM      9  C   UNL     1       4.864   5.063  16.646  0.00  0.00    +0.000 A 
ATOM     10  C   UNL     1       6.080   5.762  16.795  0.00  0.00    +0.000 A 
ATOM     11  C   UNL     1       7.032   5.785  15.771  0.00  0.00    +0.000 A 
ATOM     12  C   UNL     1       6.780   5.118  14.577  0.00  0.00    +0.000 A 
ATOM     13 CL   UNL     1       7.976   5.087  13.342  0.00  0.00    +0.000 Cl
ATOM     14  C   UNL     1       5.573   4.453  14.387  0.00  0.00    +0.000 A 
ATOM     15  C   UNL     1       4.620   4.428  15.411  0.00  0.00    +0.000 A 
ENDBRANCH   4   9
BRANCH   4  16
ATOM     16  C   UNL     1       3.248   6.204  18.304  0.00  0.00    +0.000 A 
ATOM     17  C   UNL     1       2.692   6.329  19.593  0.00  0.00    +0.000 A 
ATOM     18  C   UNL     1       2.034   7.497  19.987  0.00  0.00    +0.000 A 
ATOM     19  C   UNL     1       1.936   8.570  19.107  0.00  0.00    +0.000 A 
ATOM     20 CL   UNL     1       1.096   9.995  19.579  0.00  0.00    +0.000 Cl
ATOM     21  C   UNL     1       2.512   8.492  17.845  0.00  0.00    +0.000 A 
ATOM     22  C   UNL     1       3.176   7.326  17.453  0.00  0.00    +0.000 A 
ENDBRANCH   4  16
BRANCH   1  23
ATOM     23  C   UNL     1       2.183   1.583  18.579  0.00  0.00    +0.000 C 
BRANCH  23  24
ATOM     24  C   UNL     1       0.885   1.932  19.305  0.00  0.00    +0.000 C 
BRANCH  24  26
ATOM     25  C   UNL     1       1.282   2.747  21.643  0.00  0.00    +0.000 C 
ATOM     26  C   UNL     1       1.047   3.160  20.200  0.00  0.00    +0.000 C 
ENDBRANCH  24  26
ENDBRANCH  23  24
ENDBRANCH   1  23
TORSDOF 5
ENDMDL
MODEL 5
REMARK VINA RESULT:      -6.9      0.993      1.466
REMARK  Name = 
REMARK  6 active torsions:
REMARK  status: ('A' for Active; 'I' for Inactive)
REMARK    1  A    between atoms: C_1  and  C_2
REMARK    2  A    between atoms: C_2  and  C_3
REMARK    3  A    between atoms: C_3  and  C_4
REMARK    4  A    between atoms: C_4  and  N_5
REMARK    5  A    between atoms: C_8  and  C_9
REMARK    6  A    between atoms: C_8  and  C_16
REMARK                            x       y       z     vdW  Elec       q    Type
REMARK                         _______ _______ _______ _____ _____    ______ ____
ROOT
ATOM      1  N   UNL     1       3.728   4.720  18.362  0.00  0.00    +0.000 N 
ATOM      2  C   UNL     1       4.330   5.567  17.453  0.00  0.00    +0.000 C 
ATOM      3  O   UNL     1       3.784   6.516  16.899  0.00  0.00    +0.000 OA
ATOM      4  C   UNL     1       5.836   5.176  17.301  0.00  0.00    +0.000 C 
ATOM      5  N   UNL     1       5.874   4.110  18.284  0.00  0.00    +0.000 N 
ATOM      6  C   UNL     1       4.660   3.863  18.874  0.00  0.00    +0.000 C 
ATOM      7  S   UNL     1       4.495   2.687  20.030  0.00  0.00    +0.000 S 
ATOM      8  H   UNL     1       6.719   3.638  18.573  0.00  0.00    +0.000 HD
ENDROOT
BRANCH   4   9
ATOM      9  C   UNL     1       6.133   4.659  15.881  0.00  0.00    +0.000 A 
ATOM     10  C   UNL     1       5.146   3.942  15.172  0.00  0.00    +0.000 A 
ATOM     11  C   UNL     1       5.321   3.612  13.824  0.00  0.00    +0.000 A 
ATOM     12  C   UNL     1       6.489   3.983  13.166  0.00  0.00    +0.000 A 
ATOM     13 CL   UNL     1       6.678   3.638  11.492  0.00  0.00    +0.000 Cl
ATOM     14  C   UNL     1       7.495   4.655  13.851  0.00  0.00    +0.000 A 
ATOM     15  C   UNL     1       7.322   4.987  15.199  0.00  0.00    +0.000 A 
ENDBRANCH   4   9
BRANCH   4  16
ATOM     16  C   UNL     1       6.771   6.317  17.754  0.00  0.00    +0.000 A 
ATOM     17  C   UNL     1       7.703   6.122  18.793  0.00  0.00    +0.000 A 
ATOM     18  C   UNL     1       8.515   7.167  19.242  0.00  0.00    +0.000 A 
ATOM     19  C   UNL     1       8.425   8.422  18.647  0.00  0.00    +0.000 A 
ATOM     20 CL   UNL     1       9.399   9.717  19.222  0.00  0.00    +0.000 Cl
ATOM     21  C   UNL     1       7.546   8.632  17.591  0.00  0.00    +0.000 A 
ATOM     22  C   UNL     1       6.739   7.584  17.138  0.00  0.00    +0.000 A 
ENDBRANCH   4  16
BRANCH   1  23
ATOM     23  C   UNL     1       2.359   4.927  18.835  0.00  0.00    +0.000 C 
BRANCH  23  24
ATOM     24  C   UNL     1       2.296   5.741  20.126  0.00  0.00    +0.000 C 
BRANCH  24  26
ATOM     25  C   UNL     1       1.404   7.916  21.001  0.00  0.00    +0.000 C 
ATOM     26  C   UNL     1       2.121   7.233  19.848  0.00  0.00    +0.000 C 
ENDBRANCH  24  26
ENDBRANCH  23  24
ENDBRANCH   1  23
TORSDOF 5
ENDMDL
MODEL 6
REMARK VINA RESULT:      -6.7      1.558      5.057
REMARK  Name = 
REMARK  6 active torsions:
REMARK  status: ('A' for Active; 'I' for Inactive)
REMARK    1  A    between atoms: C_1  and  C_2
REMARK    2  A    between atoms: C_2  and  C_3
REMARK    3  A    between atoms: C_3  and  C_4
REMARK    4  A    between atoms: C_4  and  N_5
REMARK    5  A    between atoms: C_8  and  C_9
REMARK    6  A    between atoms: C_8  and  C_16
REMARK                            x       y       z     vdW  Elec       q    Type
REMARK                         _______ _______ _______ _____ _____    ______ ____
ROOT
ATOM      1  N   UNL     1       4.178   5.025  18.837  0.00  0.00    +0.000 N 
ATOM      2  C   UNL     1       5.462   4.849  18.359  0.00  0.00    +0.000 C 
ATOM      3  O   UNL     1       6.243   3.978  18.728  0.00  0.00    +0.000 OA
ATOM      4  C   UNL     1       5.735   5.882  17.219  0.00  0.00    +0.000 C 
ATOM      5  N   UNL     1       4.423   6.501  17.180  0.00  0.00    +0.000 N 
ATOM      6  C   UNL     1       3.552   6.000  18.115  0.00  0.00    +0.000 C 
ATOM      7  S   UNL     1       2.000   6.569  18.228  0.00  0.00    +0.000 S 
ATOM      8  H   UNL     1       4.139   7.180  16.488  0.00  0.00    +0.000 HD
ENDROOT
BRANCH   4   9
ATOM      9  C   UNL     1       6.830   6.885  17.631  0.00  0.00    +0.000 A 
ATOM     10  C   UNL     1       6.822   8.193  17.103  0.00  0.00    +0.000 A 
ATOM     11  C   UNL     1       7.693   9.173  17.588  0.00  0.00    +0.000 A 
ATOM     12  C   UNL     1       8.595   8.860  18.600  0.00  0.00    +0.000 A 
ATOM     13 CL   UNL     1       9.621  10.080  19.244  0.00  0.00    +0.000 Cl
ATOM     14  C   UNL     1       8.652   7.567  19.111  0.00  0.00    +0.000 A 
ATOM     15  C   UNL     1       7.780   6.585  18.628  0.00  0.00    +0.000 A 
ENDBRANCH   4   9
BRANCH   4  16
ATOM     16  C   UNL     1       6.008   5.187  15.869  0.00  0.00    +0.000 A 
ATOM     17  C   UNL     1       7.227   5.376  15.188  0.00  0.00    +0.000 A 
ATOM     18  C   UNL     1       7.457   4.791  13.940  0.00  0.00    +0.000 A 
ATOM     19  C   UNL     1       6.480   3.990  13.357  0.00  0.00    +0.000 A 
ATOM     20 CL   UNL     1       6.749   3.298  11.806  0.00  0.00    +0.000 Cl
ATOM     21  C   UNL     1       5.285   3.751  14.024  0.00  0.00    +0.000 A 
ATOM     22  C   UNL     1       5.057   4.331  15.276  0.00  0.00    +0.000 A 
ENDBRANCH   4  16
BRANCH   1  23
ATOM     23  C   UNL     1       3.572   4.108  19.802  0.00  0.00    +0.000 C 
BRANCH  23  24
ATOM     24  C   UNL     1       2.920   2.896  19.138  0.00  0.00    +0.000 C 
BRANCH  24  26
ATOM     25  C   UNL     1       1.068   3.732  20.608  0.00  0.00    +0.000 C 
ATOM     26  C   UNL     1       1.428   2.810  19.455  0.00  0.00    +0.000 C 
ENDBRANCH  24  26
ENDBRANCH  23  24
ENDBRANCH   1  23
TORSDOF 5
ENDMDL
MODEL 7
REMARK VINA RESULT:      -6.7      7.985      9.915
REMARK  Name = 
REMARK  6 active torsions:
REMARK  status: ('A' for Active; 'I' for Inactive)
REMARK    1  A    between atoms: C_1  and  C_2
REMARK    2  A    between atoms: C_2  and  C_3
REMARK    3  A    between atoms: C_3  and  C_4
REMARK    4  A    between atoms: C_4  and  N_5
REMARK    5  A    between atoms: C_8  and  C_9
REMARK    6  A    between atoms: C_8  and  C_16
REMARK                            x       y       z     vdW  Elec       q    Type
REMARK                         _______ _______ _______ _____ _____    ______ ____
ROOT
ATOM      1  N   UNL     1       1.764  12.771  20.211  0.00  0.00    +0.000 N 
ATOM      2  C   UNL     1       0.933  11.695  20.456  0.00  0.00    +0.000 C 
ATOM      3  O   UNL     1       0.454  11.402  21.547  0.00  0.00    +0.000 OA
ATOM      4  C   UNL     1       0.635  10.956  19.111  0.00  0.00    +0.000 C 
ATOM      5  N   UNL     1       1.359  11.844  18.221  0.00  0.00    +0.000 N 
ATOM      6  C   UNL     1       1.999  12.870  18.870  0.00  0.00    +0.000 C 
ATOM      7  S   UNL     1       2.875  13.998  18.029  0.00  0.00    +0.000 S 
ATOM      8  H   UNL     1       1.339  11.773  17.213  0.00  0.00    +0.000 HD
ENDROOT
BRANCH   4   9
ATOM      9  C   UNL     1       1.233   9.536  19.116  0.00  0.00    +0.000 A 
ATOM     10  C   UNL     1       1.978   9.082  18.007  0.00  0.00    +0.000 A 
ATOM     11  C   UNL     1       2.676   7.871  18.052  0.00  0.00    +0.000 A 
ATOM     12  C   UNL     1       2.634   7.089  19.202  0.00  0.00    +0.000 A 
ATOM     13 CL   UNL     1       3.545   5.633  19.285  0.00  0.00    +0.000 Cl
ATOM     14  C   UNL     1       1.875   7.493  20.296  0.00  0.00    +0.000 A 
ATOM     15  C   UNL     1       1.176   8.705  20.253  0.00  0.00    +0.000 A 
ENDBRANCH   4   9
BRANCH   4  16
ATOM     16  C   UNL     1      -0.866  10.995  18.756  0.00  0.00    +0.000 A 
ATOM     17  C   UNL     1      -1.419  10.081  17.838  0.00  0.00    +0.000 A 
ATOM     18  C   UNL     1      -2.767  10.147  17.473  0.00  0.00    +0.000 A 
ATOM     19  C   UNL     1      -3.592  11.116  18.035  0.00  0.00    +0.000 A 
ATOM     20 CL   UNL     1      -5.241  11.220  17.561  0.00  0.00    +0.000 Cl
ATOM     21  C   UNL     1      -3.084  12.004  18.975  0.00  0.00    +0.000 A 
ATOM     22  C   UNL     1      -1.738  11.934  19.345  0.00  0.00    +0.000 A 
ENDBRANCH   4  16
BRANCH   1  23
ATOM     23  C   UNL     1       2.098  13.750  21.245  0.00  0.00    +0.000 C 
BRANCH  23  24
ATOM     24  C   UNL     1       0.908  14.620  21.643  0.00  0.00    +0.000 C 
BRANCH  24  26
ATOM     25  C   UNL     1      -0.566  15.476  19.803  0.00  0.00    +0.000 C 
ATOM     26  C   UNL     1       0.671  15.750  20.641  0.00  0.00    +0.000 C 
ENDBRANCH  24  26
ENDBRANCH  23  24
ENDBRANCH   1  23
TORSDOF 5
ENDMDL
MODEL 8
REMARK VINA RESULT:      -6.7      3.291      4.587
REMARK  Name = 
REMARK  6 active torsions:
REMARK  status: ('A' for Active; 'I' for Inactive)
REMARK    1  A    between atoms: C_1  and  C_2
REMARK    2  A    between atoms: C_2  and  C_3
REMARK    3  A    between atoms: C_3  and  C_4
REMARK    4  A    between atoms: C_4  and  N_5
REMARK    5  A    between atoms: C_8  and  C_9
REMARK    6  A    between atoms: C_8  and  C_16
REMARK                            x       y       z     vdW  Elec       q    Type
REMARK                         _______ _______ _______ _____ _____    ______ ____
ROOT
ATOM      1  N   UNL     1       1.605   4.026  19.349  0.00  0.00    +0.000 N 
ATOM      2  C   UNL     1       1.813   4.998  18.390  0.00  0.00    +0.000 C 
ATOM      3  O   UNL     1       1.226   5.069  17.315  0.00  0.00    +0.000 OA
ATOM      4  C   UNL     1       2.853   6.035  18.921  0.00  0.00    +0.000 C 
ATOM      5  N   UNL     1       3.047   5.476  20.245  0.00  0.00    +0.000 N 
ATOM      6  C   UNL     1       2.330   4.327  20.467  0.00  0.00    +0.000 C 
ATOM      7  S   UNL     1       2.408   3.537  21.922  0.00  0.00    +0.000 S 
ATOM      8  H   UNL     1       3.594   5.918  20.971  0.00  0.00    +0.000 HD
ENDROOT
BRANCH   4   9
ATOM      9  C   UNL     1       4.148   5.998  18.087  0.00  0.00    +0.000 A 
ATOM     10  C   UNL     1       5.240   5.216  18.517  0.00  0.00    +0.000 A 
ATOM     11  C   UNL     1       6.358   5.024  17.700  0.00  0.00    +0.000 A 
ATOM     12  C   UNL     1       6.408   5.617  16.443  0.00  0.00    +0.000 A 
ATOM     13 CL   UNL     1       7.751   5.328  15.408  0.00  0.00    +0.000 Cl
ATOM     14  C   UNL     1       5.362   6.426  16.009  0.00  0.00    +0.000 A 
ATOM     15  C   UNL     1       4.243   6.619  16.825  0.00  0.00    +0.000 A 
ENDBRANCH   4   9
BRANCH   4  16
ATOM     16  C   UNL     1       2.241   7.445  19.052  0.00  0.00    +0.000 A 
ATOM     17  C   UNL     1       1.724   7.902  20.280  0.00  0.00    +0.000 A 
ATOM     18  C   UNL     1       1.120   9.157  20.390  0.00  0.00    +0.000 A 
ATOM     19  C   UNL     1       1.039   9.989  19.278  0.00  0.00    +0.000 A 
ATOM     20 CL   UNL     1       0.266  11.520  19.404  0.00  0.00    +0.000 Cl
ATOM     21  C   UNL     1       1.579   9.583  18.063  0.00  0.00    +0.000 A 
ATOM     22  C   UNL     1       2.189   8.330  17.955  0.00  0.00    +0.000 A 
ENDBRANCH   4  16
BRANCH   1  23
ATOM     23  C   UNL     1       0.571   3.001  19.211  0.00  0.00    +0.000 C 
BRANCH  23  24
ATOM     24  C   UNL     1       1.126   1.661  18.734  0.00  0.00    +0.000 C 
BRANCH  24  26
ATOM     25  C   UNL     1       3.612   1.390  18.540  0.00  0.00    +0.000 C 
ATOM     26  C   UNL     1       2.346   1.841  17.831  0.00  0.00    +0.000 C 
ENDBRANCH  24  26
ENDBRANCH  23  24
ENDBRANCH   1  23
TORSDOF 5
ENDMDL
MODEL 9
REMARK VINA RESULT:      -6.7      2.723      5.164
REMARK  Name = 
REMARK  6 active torsions:
REMARK  status: ('A' for Active; 'I' for Inactive)
REMARK    1  A    between atoms: C_1  and  C_2
REMARK    2  A    between atoms: C_2  and  C_3
REMARK    3  A    between atoms: C_3  and  C_4
REMARK    4  A    between atoms: C_4  and  N_5
REMARK    5  A    between atoms: C_8  and  C_9
REMARK    6  A    between atoms: C_8  and  C_16
REMARK                            x       y       z     vdW  Elec       q    Type
REMARK                         _______ _______ _______ _____ _____    ______ ____
ROOT
ATOM      1  N   UNL     1       3.957   3.062  19.340  0.00  0.00    +0.000 N 
ATOM      2  C   UNL     1       4.648   4.234  19.098  0.00  0.00    +0.000 C 
ATOM      3  O   UNL     1       5.643   4.609  19.710  0.00  0.00    +0.000 OA
ATOM      4  C   UNL     1       4.011   4.966  17.873  0.00  0.00    +0.000 C 
ATOM      5  N   UNL     1       3.004   3.976  17.539  0.00  0.00    +0.000 N 
ATOM      6  C   UNL     1       2.988   2.900  18.392  0.00  0.00    +0.000 C 
ATOM      7  S   UNL     1       1.915   1.656  18.176  0.00  0.00    +0.000 S 
ATOM      8  H   UNL     1       2.417   4.022  16.718  0.00  0.00    +0.000 HD
ENDROOT
BRANCH   4   9
ATOM      9  C   UNL     1       3.380   6.306  18.296  0.00  0.00    +0.000 A 
ATOM     10  C   UNL     1       3.302   7.370  17.373  0.00  0.00    +0.000 A 
ATOM     11  C   UNL     1       2.583   8.532  17.669  0.00  0.00    +0.000 A 
ATOM     12  C   UNL     1       1.940   8.656  18.896  0.00  0.00    +0.000 A 
ATOM     13 CL   UNL     1       0.999  10.055  19.236  0.00  0.00    +0.000 Cl
ATOM     14  C   UNL     1       2.034   7.639  19.841  0.00  0.00    +0.000 A 
ATOM     15  C   UNL     1       2.751   6.475  19.546  0.00  0.00    +0.000 A 
ENDBRANCH   4   9
BRANCH   4  16
ATOM     16  C   UNL     1       5.006   5.092  16.700  0.00  0.00    +0.000 A 
ATOM     17  C   UNL     1       4.777   4.427  15.479  0.00  0.00    +0.000 A 
ATOM     18  C   UNL     1       5.702   4.495  14.434  0.00  0.00    +0.000 A 
ATOM     19  C   UNL     1       6.865   5.245  14.582  0.00  0.00    +0.000 A 
ATOM     20 CL   UNL     1       8.019   5.301  13.309  0.00  0.00    +0.000 Cl
ATOM     21  C   UNL     1       7.097   5.945  15.759  0.00  0.00    +0.000 A 
ATOM     22  C   UNL     1       6.169   5.883  16.803  0.00  0.00    +0.000 A 
ENDBRANCH   4  16
BRANCH   1  23
ATOM     23  C   UNL     1       4.408   2.079  20.324  0.00  0.00    +0.000 C 
BRANCH  23  24
ATOM     24  C   UNL     1       3.504   2.017  21.555  0.00  0.00    +0.000 C 
BRANCH  24  26
ATOM     25  C   UNL     1       1.121   2.794  21.591  0.00  0.00    +0.000 C 
ATOM     26  C   UNL     1       2.576   3.227  21.639  0.00  0.00    +0.000 C 
ENDBRANCH  24  26
ENDBRANCH  23  24
ENDBRANCH   1  23
TORSDOF 5
ENDMDL
