MODEL 1
REMARK VINA RESULT:      -8.2      0.000      0.000
REMARK  Name = 
REMARK  9 active torsions:
REMARK  status: ('A' for Active; 'I' for Inactive)
REMARK    1  A    between atoms: C_1  and  C_2
REMARK    2  A    between atoms: C_2  and  C_4
REMARK    3  A    between atoms: C_7  and  C_8
REMARK    4  A    between atoms: C_8  and  N_9
REMARK    5  A    between atoms: C_13  and  N_14
REMARK    6  A    between atoms: N_14  and  C_15
REMARK    7  A    between atoms: N_25  and  C_26
REMARK    8  A    between atoms: C_29  and  C_30
REMARK    9  A    between atoms: C_29  and  C_31
REMARK                            x       y       z     vdW  Elec       q    Type
REMARK                         _______ _______ _______ _____ _____    ______ ____
ROOT
ATOM      1  N   UNL     1      -0.730  12.040  20.113  0.00  0.00    +0.000 N 
ATOM      2  N   UNL     1      -2.021  12.492  20.208  0.00  0.00    +0.000 NA
ATOM      3  C   UNL     1      -2.625  11.962  19.140  0.00  0.00    +0.000 A 
ATOM      4  C   UNL     1      -1.734  11.180  18.383  0.00  0.00    +0.000 A 
ATOM      5  C   UNL     1      -0.491  11.328  18.953  0.00  0.00    +0.000 A 
ATOM      6  C   UNL     1      -2.137  10.449  17.203  0.00  0.00    +0.000 C 
ATOM      7  O   UNL     1      -1.507   9.499  16.754  0.00  0.00    +0.000 OA
ATOM      8  N   UNL     1      -3.327  10.904  16.664  0.00  0.00    +0.000 N 
ATOM      9  C   UNL     1      -3.719  10.427  15.358  0.00  0.00    +0.000 C 
ATOM     10  C   UNL     1      -4.228  11.579  17.458  0.00  0.00    +0.000 C 
ATOM     11  N   UNL     1      -5.456  11.768  17.063  0.00  0.00    +0.000 NA
ATOM     12  C   UNL     1      -6.132  12.416  18.235  0.00  0.00    +0.000 C 
ATOM     13  C   UNL     1      -6.812  13.680  17.714  0.00  0.00    +0.000 C 
ATOM     14  C   UNL     1      -7.180  11.420  18.746  0.00  0.00    +0.000 C 
ATOM     15  C   UNL     1      -5.024  12.705  19.305  0.00  0.00    +0.000 C 
ATOM     16  N   UNL     1      -3.895  12.062  18.694  0.00  0.00    +0.000 N 
ENDROOT
BRANCH   5  17
ATOM     17  N   UNL     1       0.742  10.927  18.543  0.00  0.00    +0.000 N 
ATOM     18  H   UNL     1       1.296  11.493  17.906  0.00  0.00    +0.000 HD
BRANCH  17  19
ATOM     19  C   UNL     1       1.317   9.658  18.808  0.00  0.00    +0.000 A 
ATOM     20  C   UNL     1       1.153   8.991  20.040  0.00  0.00    +0.000 A 
ATOM     21  C   UNL     1       1.757   7.755  20.289  0.00  0.00    +0.000 A 
ATOM     22  C   UNL     1       2.527   7.166  19.300  0.00  0.00    +0.000 A 
ATOM     23  F   UNL     1       3.065   5.957  19.518  0.00  0.00    +0.000 F 
ATOM     24  C   UNL     1       2.726   7.818  18.091  0.00  0.00    +0.000 A 
ATOM     25  F   UNL     1       3.476   7.248  17.137  0.00  0.00    +0.000 F 
ATOM     26  C   UNL     1       2.142   9.063  17.845  0.00  0.00    +0.000 A 
ENDBRANCH  17  19
ENDBRANCH   5  17
BRANCH   1  27
ATOM     27  C   UNL     1       0.270  12.486  21.084  0.00  0.00    +0.000 C 
BRANCH  27  31
ATOM     28  C   UNL     1       2.860  15.641  19.604  0.00  0.00    +0.000 A 
ATOM     29  C   UNL     1       1.475  15.822  19.636  0.00  0.00    +0.000 A 
ATOM     30  C   UNL     1       0.633  14.802  20.103  0.00  0.00    +0.000 A 
ATOM     31  C   UNL     1       1.165  13.579  20.540  0.00  0.00    +0.000 A 
ATOM     32  C   UNL     1       2.556  13.406  20.512  0.00  0.00    +0.000 A 
ATOM     33  C   UNL     1       3.395  14.426  20.049  0.00  0.00    +0.000 A 
BRANCH  28  35
ATOM     34  C   UNL     1       4.916  17.147  20.038  0.00  0.00    +0.000 C 
ATOM     35  C   UNL     1       3.801  16.702  19.122  0.00  0.00    +0.000 C 
ATOM     36  O   UNL     1       3.663  17.184  18.008  0.00  0.00    +0.000 OA
ENDBRANCH  28  35
ENDBRANCH  27  31
ENDBRANCH   1  27
TORSDOF 5
ENDMDL
MODEL 2
REMARK VINA RESULT:      -8.2      3.130      7.468
REMARK  Name = 
REMARK  9 active torsions:
REMARK  status: ('A' for Active; 'I' for Inactive)
REMARK    1  A    between atoms: C_1  and  C_2
REMARK    2  A    between atoms: C_2  and  C_4
REMARK    3  A    between atoms: C_7  and  C_8
REMARK    4  A    between atoms: C_8  and  N_9
REMARK    5  A    between atoms: C_13  and  N_14
REMARK    6  A    between atoms: N_14  and  C_15
REMARK    7  A    between atoms: N_25  and  C_26
REMARK    8  A    between atoms: C_29  and  C_30
REMARK    9  A    between atoms: C_29  and  C_31
REMARK                            x       y       z     vdW  Elec       q    Type
REMARK                         _______ _______ _______ _____ _____    ______ ____
ROOT
ATOM      1  N   UNL     1       0.351  11.314  20.852  0.00  0.00    +0.000 N 
ATOM      2  N   UNL     1       1.581  11.921  20.834  0.00  0.00    +0.000 NA
ATOM      3  C   UNL     1       1.321  13.157  20.400  0.00  0.00    +0.000 A 
ATOM      4  C   UNL     1      -0.052  13.336  20.152  0.00  0.00    +0.000 A 
ATOM      5  C   UNL     1      -0.652  12.112  20.337  0.00  0.00    +0.000 A 
ATOM      6  C   UNL     1      -0.616  14.595  19.723  0.00  0.00    +0.000 C 
ATOM      7  O   UNL     1      -1.800  14.880  19.855  0.00  0.00    +0.000 OA
ATOM      8  N   UNL     1       0.326  15.458  19.192  0.00  0.00    +0.000 N 
ATOM      9  C   UNL     1      -0.134  16.645  18.509  0.00  0.00    +0.000 C 
ATOM     10  C   UNL     1       1.653  15.322  19.535  0.00  0.00    +0.000 C 
ATOM     11  N   UNL     1       2.509  16.272  19.282  0.00  0.00    +0.000 NA
ATOM     12  C   UNL     1       3.789  15.801  19.907  0.00  0.00    +0.000 C 
ATOM     13  C   UNL     1       4.869  15.890  18.830  0.00  0.00    +0.000 C 
ATOM     14  C   UNL     1       4.102  16.767  21.055  0.00  0.00    +0.000 C 
ATOM     15  C   UNL     1       3.543  14.340  20.417  0.00  0.00    +0.000 C 
ATOM     16  N   UNL     1       2.135  14.208  20.167  0.00  0.00    +0.000 N 
ENDROOT
BRANCH   5  17
ATOM     17  N   UNL     1      -1.917  11.682  20.084  0.00  0.00    +0.000 N 
ATOM     18  H   UNL     1      -2.579  11.516  20.838  0.00  0.00    +0.000 HD
BRANCH  17  19
ATOM     19  C   UNL     1      -2.402  11.275  18.815  0.00  0.00    +0.000 A 
ATOM     20  C   UNL     1      -1.697  10.382  17.981  0.00  0.00    +0.000 A 
ATOM     21  C   UNL     1      -2.179  10.021  16.720  0.00  0.00    +0.000 A 
ATOM     22  C   UNL     1      -3.385  10.544  16.282  0.00  0.00    +0.000 A 
ATOM     23  F   UNL     1      -3.875  10.160  15.095  0.00  0.00    +0.000 F 
ATOM     24  C   UNL     1      -4.081  11.447  17.073  0.00  0.00    +0.000 A 
ATOM     25  F   UNL     1      -5.245  11.955  16.644  0.00  0.00    +0.000 F 
ATOM     26  C   UNL     1      -3.592  11.827  18.325  0.00  0.00    +0.000 A 
ENDBRANCH  17  19
ENDBRANCH   5  17
BRANCH   1  27
ATOM     27  C   UNL     1       0.244   9.898  21.205  0.00  0.00    +0.000 C 
BRANCH  27  31
ATOM     28  C   UNL     1       2.590   7.355  18.582  0.00  0.00    +0.000 A 
ATOM     29  C   UNL     1       2.094   8.576  18.121  0.00  0.00    +0.000 A 
ATOM     30  C   UNL     1       1.326   9.397  18.961  0.00  0.00    +0.000 A 
ATOM     31  C   UNL     1       1.037   9.003  20.277  0.00  0.00    +0.000 A 
ATOM     32  C   UNL     1       1.544   7.779  20.735  0.00  0.00    +0.000 A 
ATOM     33  C   UNL     1       2.312   6.963  19.897  0.00  0.00    +0.000 A 
BRANCH  28  35
ATOM     34  C   UNL     1       3.114   4.968  17.735  0.00  0.00    +0.000 C 
ATOM     35  C   UNL     1       3.420   6.448  17.727  0.00  0.00    +0.000 C 
ATOM     36  O   UNL     1       4.319   6.906  17.038  0.00  0.00    +0.000 OA
ENDBRANCH  28  35
ENDBRANCH  27  31
ENDBRANCH   1  27
TORSDOF 5
ENDMDL
MODEL 3
REMARK VINA RESULT:      -8.1      3.089      6.598
REMARK  Name = 
REMARK  9 active torsions:
REMARK  status: ('A' for Active; 'I' for Inactive)
REMARK    1  A    between atoms: C_1  and  C_2
REMARK    2  A    between atoms: C_2  and  C_4
REMARK    3  A    between atoms: C_7  and  C_8
REMARK    4  A    between atoms: C_8  and  N_9
REMARK    5  A    between atoms: C_13  and  N_14
REMARK    6  A    between atoms: N_14  and  C_15
REMARK    7  A    between atoms: N_25  and  C_26
REMARK    8  A    between atoms: C_29  and  C_30
REMARK    9  A    between atoms: C_29  and  C_31
REMARK                            x       y       z     vdW  Elec       q    Type
REMARK                         _______ _______ _______ _____ _____    ______ ____
ROOT
ATOM      1  N   UNL     1       0.644  10.782  18.493  0.00  0.00    +0.000 N 
ATOM      2  N   UNL     1      -0.602  10.412  18.057  0.00  0.00    +0.000 NA
ATOM      3  C   UNL     1      -1.420  11.292  18.641  0.00  0.00    +0.000 A 
ATOM      4  C   UNL     1      -0.705  12.212  19.429  0.00  0.00    +0.000 A 
ATOM      5  C   UNL     1       0.610  11.808  19.418  0.00  0.00    +0.000 A 
ATOM      6  C   UNL     1      -1.338  13.304  20.132  0.00  0.00    +0.000 C 
ATOM      7  O   UNL     1      -0.733  14.303  20.504  0.00  0.00    +0.000 OA
ATOM      8  N   UNL     1      -2.700  13.125  20.299  0.00  0.00    +0.000 N 
ATOM      9  C   UNL     1      -3.409  14.017  21.187  0.00  0.00    +0.000 C 
ATOM     10  C   UNL     1      -3.393  12.296  19.445  0.00  0.00    +0.000 C 
ATOM     11  N   UNL     1      -4.695  12.324  19.397  0.00  0.00    +0.000 NA
ATOM     12  C   UNL     1      -5.051  11.386  18.283  0.00  0.00    +0.000 C 
ATOM     13  C   UNL     1      -6.077  10.400  18.840  0.00  0.00    +0.000 C 
ATOM     14  C   UNL     1      -5.680  12.236  17.172  0.00  0.00    +0.000 C 
ATOM     15  C   UNL     1      -3.723  10.698  17.816  0.00  0.00    +0.000 C 
ATOM     16  N   UNL     1      -2.762  11.424  18.599  0.00  0.00    +0.000 N 
ENDROOT
BRANCH   5  17
ATOM     17  N   UNL     1       1.690  12.234  20.127  0.00  0.00    +0.000 N 
ATOM     18  H   UNL     1       1.966  11.778  20.992  0.00  0.00    +0.000 HD
BRANCH  17  19
ATOM     19  C   UNL     1       2.435  13.408  19.851  0.00  0.00    +0.000 A 
ATOM     20  C   UNL     1       2.985  14.217  20.867  0.00  0.00    +0.000 A 
ATOM     21  C   UNL     1       3.689  15.388  20.571  0.00  0.00    +0.000 A 
ATOM     22  C   UNL     1       3.861  15.758  19.247  0.00  0.00    +0.000 A 
ATOM     23  F   UNL     1       4.579  16.852  18.958  0.00  0.00    +0.000 F 
ATOM     24  C   UNL     1       3.304  14.992  18.232  0.00  0.00    +0.000 A 
ATOM     25  F   UNL     1       3.468  15.355  16.952  0.00  0.00    +0.000 F 
ATOM     26  C   UNL     1       2.581  13.833  18.525  0.00  0.00    +0.000 A 
ENDBRANCH  17  19
ENDBRANCH   5  17
BRANCH   1  27
ATOM     27  C   UNL     1       1.812   9.985  18.117  0.00  0.00    +0.000 C 
BRANCH  27  31
ATOM     28  C   UNL     1       1.847   6.104  20.064  0.00  0.00    +0.000 A 
ATOM     29  C   UNL     1       1.386   7.231  20.747  0.00  0.00    +0.000 A 
ATOM     30  C   UNL     1       1.382   8.489  20.127  0.00  0.00    +0.000 A 
ATOM     31  C   UNL     1       1.849   8.640  18.812  0.00  0.00    +0.000 A 
ATOM     32  C   UNL     1       2.305   7.503  18.129  0.00  0.00    +0.000 A 
ATOM     33  C   UNL     1       2.305   6.248  18.748  0.00  0.00    +0.000 A 
BRANCH  28  35
ATOM     34  C   UNL     1       1.069   3.638  20.017  0.00  0.00    +0.000 C 
ATOM     35  C   UNL     1       1.864   4.739  20.680  0.00  0.00    +0.000 C 
ATOM     36  O   UNL     1       2.515   4.530  21.692  0.00  0.00    +0.000 OA
ENDBRANCH  28  35
ENDBRANCH  27  31
ENDBRANCH   1  27
TORSDOF 5
ENDMDL
MODEL 4
REMARK VINA RESULT:      -8.1      2.863      7.379
REMARK  Name = 
REMARK  9 active torsions:
REMARK  status: ('A' for Active; 'I' for Inactive)
REMARK    1  A    between atoms: C_1  and  C_2
REMARK    2  A    between atoms: C_2  and  C_4
REMARK    3  A    between atoms: C_7  and  C_8
REMARK    4  A    between atoms: C_8  and  N_9
REMARK    5  A    between atoms: C_13  and  N_14
REMARK    6  A    between atoms: N_14  and  C_15
REMARK    7  A    between atoms: N_25  and  C_26
REMARK    8  A    between atoms: C_29  and  C_30
REMARK    9  A    between atoms: C_29  and  C_31
REMARK                            x       y       z     vdW  Elec       q    Type
REMARK                         _______ _______ _______ _____ _____    ______ ____
ROOT
ATOM      1  N   UNL     1       0.278  11.493  20.898  0.00  0.00    +0.000 N 
ATOM      2  N   UNL     1       1.525  12.052  20.780  0.00  0.00    +0.000 NA
ATOM      3  C   UNL     1       1.279  13.296  20.359  0.00  0.00    +0.000 A 
ATOM      4  C   UNL     1      -0.102  13.527  20.220  0.00  0.00    +0.000 A 
ATOM      5  C   UNL     1      -0.732  12.328  20.460  0.00  0.00    +0.000 A 
ATOM      6  C   UNL     1      -0.650  14.805  19.829  0.00  0.00    +0.000 C 
ATOM      7  O   UNL     1      -1.808  15.136  20.053  0.00  0.00    +0.000 OA
ATOM      8  N   UNL     1       0.279  15.629  19.219  0.00  0.00    +0.000 N 
ATOM      9  C   UNL     1      -0.189  16.831  18.567  0.00  0.00    +0.000 C 
ATOM     10  C   UNL     1       1.623  15.443  19.456  0.00  0.00    +0.000 C 
ATOM     11  N   UNL     1       2.492  16.359  19.131  0.00  0.00    +0.000 NA
ATOM     12  C   UNL     1       3.798  15.842  19.654  0.00  0.00    +0.000 C 
ATOM     13  C   UNL     1       4.792  15.885  18.495  0.00  0.00    +0.000 C 
ATOM     14  C   UNL     1       4.239  16.799  20.768  0.00  0.00    +0.000 C 
ATOM     15  C   UNL     1       3.538  14.393  20.192  0.00  0.00    +0.000 C 
ATOM     16  N   UNL     1       2.111  14.314  20.056  0.00  0.00    +0.000 N 
ENDROOT
BRANCH   5  17
ATOM     17  N   UNL     1      -2.028  11.945  20.311  0.00  0.00    +0.000 N 
ATOM     18  H   UNL     1      -2.621  11.765  21.117  0.00  0.00    +0.000 HD
BRANCH  17  19
ATOM     19  C   UNL     1      -2.643  11.610  19.078  0.00  0.00    +0.000 A 
ATOM     20  C   UNL     1      -3.946  12.031  18.739  0.00  0.00    +0.000 A 
ATOM     21  C   UNL     1      -4.544  11.661  17.531  0.00  0.00    +0.000 A 
ATOM     22  C   UNL     1      -3.837  10.871  16.640  0.00  0.00    +0.000 A 
ATOM     23  F   UNL     1      -4.388  10.557  15.458  0.00  0.00    +0.000 F 
ATOM     24  C   UNL     1      -2.565  10.421  16.966  0.00  0.00    +0.000 A 
ATOM     25  F   UNL     1      -1.885   9.651  16.104  0.00  0.00    +0.000 F 
ATOM     26  C   UNL     1      -1.972  10.770  18.181  0.00  0.00    +0.000 A 
ENDBRANCH  17  19
ENDBRANCH   5  17
BRANCH   1  27
ATOM     27  C   UNL     1       0.146  10.083  21.269  0.00  0.00    +0.000 C 
BRANCH  27  31
ATOM     28  C   UNL     1       2.453   7.472  18.678  0.00  0.00    +0.000 A 
ATOM     29  C   UNL     1       1.936   8.673  18.188  0.00  0.00    +0.000 A 
ATOM     30  C   UNL     1       1.181   9.515  19.018  0.00  0.00    +0.000 A 
ATOM     31  C   UNL     1       0.925   9.164  20.352  0.00  0.00    +0.000 A 
ATOM     32  C   UNL     1       1.453   7.960  20.840  0.00  0.00    +0.000 A 
ATOM     33  C   UNL     1       2.209   7.122  20.012  0.00  0.00    +0.000 A 
BRANCH  28  35
ATOM     34  C   UNL     1       2.932   5.071  17.846  0.00  0.00    +0.000 C 
ATOM     35  C   UNL     1       3.271   6.543  17.835  0.00  0.00    +0.000 C 
ATOM     36  O   UNL     1       4.185   6.978  17.152  0.00  0.00    +0.000 OA
ENDBRANCH  28  35
ENDBRANCH  27  31
ENDBRANCH   1  27
TORSDOF 5
ENDMDL
MODEL 5
REMARK VINA RESULT:      -8.1      0.666      1.448
REMARK  Name = 
REMARK  9 active torsions:
REMARK  status: ('A' for Active; 'I' for Inactive)
REMARK    1  A    between atoms: C_1  and  C_2
REMARK    2  A    between atoms: C_2  and  C_4
REMARK    3  A    between atoms: C_7  and  C_8
REMARK    4  A    between atoms: C_8  and  N_9
REMARK    5  A    between atoms: C_13  and  N_14
REMARK    6  A    between atoms: N_14  and  C_15
REMARK    7  A    between atoms: N_25  and  C_26
REMARK    8  A    between atoms: C_29  and  C_30
REMARK    9  A    between atoms: C_29  and  C_31
REMARK                            x       y       z     vdW  Elec       q    Type
REMARK                         _______ _______ _______ _____ _____    ______ ____
ROOT
ATOM      1  N   UNL     1      -0.642  11.848  20.074  0.00  0.00    +0.000 N 
ATOM      2  N   UNL     1      -1.928  12.307  20.210  0.00  0.00    +0.000 NA
ATOM      3  C   UNL     1      -2.551  11.840  19.125  0.00  0.00    +0.000 A 
ATOM      4  C   UNL     1      -1.679  11.090  18.316  0.00  0.00    +0.000 A 
ATOM      5  C   UNL     1      -0.427  11.195  18.876  0.00  0.00    +0.000 A 
ATOM      6  C   UNL     1      -2.105  10.426  17.105  0.00  0.00    +0.000 C 
ATOM      7  O   UNL     1      -1.492   9.494  16.599  0.00  0.00    +0.000 OA
ATOM      8  N   UNL     1      -3.298  10.920  16.607  0.00  0.00    +0.000 N 
ATOM      9  C   UNL     1      -3.712  10.516  15.284  0.00  0.00    +0.000 C 
ATOM     10  C   UNL     1      -4.180  11.561  17.448  0.00  0.00    +0.000 C 
ATOM     11  N   UNL     1      -5.412  11.783  17.081  0.00  0.00    +0.000 NA
ATOM     12  C   UNL     1      -6.065  12.376  18.294  0.00  0.00    +0.000 C 
ATOM     13  C   UNL     1      -6.738  13.672  17.849  0.00  0.00    +0.000 C 
ATOM     14  C   UNL     1      -7.117  11.365  18.767  0.00  0.00    +0.000 C 
ATOM     15  C   UNL     1      -4.940  12.598  19.362  0.00  0.00    +0.000 C 
ATOM     16  N   UNL     1      -3.825  11.977  18.703  0.00  0.00    +0.000 N 
ENDROOT
BRANCH   5  17
ATOM     17  N   UNL     1       0.796  10.804  18.428  0.00  0.00    +0.000 N 
ATOM     18  H   UNL     1       1.321  11.368  17.764  0.00  0.00    +0.000 HD
BRANCH  17  19
ATOM     19  C   UNL     1       1.397   9.547  18.690  0.00  0.00    +0.000 A 
ATOM     20  C   UNL     1       2.162   8.854  17.728  0.00  0.00    +0.000 A 
ATOM     21  C   UNL     1       2.718   7.600  17.999  0.00  0.00    +0.000 A 
ATOM     22  C   UNL     1       2.523   7.028  19.246  0.00  0.00    +0.000 A 
ATOM     23  F   UNL     1       3.098   5.850  19.526  0.00  0.00    +0.000 F 
ATOM     24  C   UNL     1       1.750   7.679  20.197  0.00  0.00    +0.000 A 
ATOM     25  F   UNL     1       1.559   7.122  21.402  0.00  0.00    +0.000 F 
ATOM     26  C   UNL     1       1.175   8.922  19.923  0.00  0.00    +0.000 A 
ENDBRANCH  17  19
ENDBRANCH   5  17
BRANCH   1  27
ATOM     27  C   UNL     1       0.375  12.233  21.053  0.00  0.00    +0.000 C 
BRANCH  27  31
ATOM     28  C   UNL     1       2.701  15.648  19.720  0.00  0.00    +0.000 A 
ATOM     29  C   UNL     1       3.254  14.722  20.608  0.00  0.00    +0.000 A 
ATOM     30  C   UNL     1       2.503  13.623  21.050  0.00  0.00    +0.000 A 
ATOM     31  C   UNL     1       1.181  13.437  20.614  0.00  0.00    +0.000 A 
ATOM     32  C   UNL     1       0.636  14.366  19.718  0.00  0.00    +0.000 A 
ATOM     33  C   UNL     1       1.387  15.461  19.275  0.00  0.00    +0.000 A 
BRANCH  28  35
ATOM     34  C   UNL     1       4.779  16.596  18.506  0.00  0.00    +0.000 C 
ATOM     35  C   UNL     1       3.465  16.833  19.213  0.00  0.00    +0.000 C 
ATOM     36  O   UNL     1       3.021  17.960  19.367  0.00  0.00    +0.000 OA
ENDBRANCH  28  35
ENDBRANCH  27  31
ENDBRANCH   1  27
TORSDOF 5
ENDMDL
MODEL 6
REMARK VINA RESULT:      -8.0      2.593      3.525
REMARK  Name = 
REMARK  9 active torsions:
REMARK  status: ('A' for Active; 'I' for Inactive)
REMARK    1  A    between atoms: C_1  and  C_2
REMARK    2  A    between atoms: C_2  and  C_4
REMARK    3  A    between atoms: C_7  and  C_8
REMARK    4  A    between atoms: C_8  and  N_9
REMARK    5  A    between atoms: C_13  and  N_14
REMARK    6  A    between atoms: N_14  and  C_15
REMARK    7  A    between atoms: N_25  and  C_26
REMARK    8  A    between atoms: C_29  and  C_30
REMARK    9  A    between atoms: C_29  and  C_31
REMARK                            x       y       z     vdW  Elec       q    Type
REMARK                         _______ _______ _______ _____ _____    ______ ____
ROOT
ATOM      1  N   UNL     1      -0.701  12.011  19.949  0.00  0.00    +0.000 N 
ATOM      2  N   UNL     1      -2.000  12.444  20.032  0.00  0.00    +0.000 NA
ATOM      3  C   UNL     1      -2.589  11.894  18.966  0.00  0.00    +0.000 A 
ATOM      4  C   UNL     1      -1.682  11.119  18.221  0.00  0.00    +0.000 A 
ATOM      5  C   UNL     1      -0.445  11.292  18.797  0.00  0.00    +0.000 A 
ATOM      6  C   UNL     1      -2.066  10.371  17.047  0.00  0.00    +0.000 C 
ATOM      7  O   UNL     1      -1.419   9.427  16.610  0.00  0.00    +0.000 OA
ATOM      8  N   UNL     1      -3.260  10.802  16.496  0.00  0.00    +0.000 N 
ATOM      9  C   UNL     1      -3.637  10.306  15.193  0.00  0.00    +0.000 C 
ATOM     10  C   UNL     1      -4.176  11.470  17.279  0.00  0.00    +0.000 C 
ATOM     11  N   UNL     1      -5.405  11.636  16.876  0.00  0.00    +0.000 NA
ATOM     12  C   UNL     1      -6.098  12.284  18.037  0.00  0.00    +0.000 C 
ATOM     13  C   UNL     1      -6.794  13.533  17.501  0.00  0.00    +0.000 C 
ATOM     14  C   UNL     1      -7.133  11.277  18.552  0.00  0.00    +0.000 C 
ATOM     15  C   UNL     1      -5.000  12.601  19.111  0.00  0.00    +0.000 C 
ATOM     16  N   UNL     1      -3.857  11.971  18.512  0.00  0.00    +0.000 N 
ENDROOT
BRANCH   5  17
ATOM     17  N   UNL     1       0.797  10.907  18.398  0.00  0.00    +0.000 N 
ATOM     18  H   UNL     1       1.346  11.476  17.759  0.00  0.00    +0.000 HD
BRANCH  17  19
ATOM     19  C   UNL     1       1.391   9.650  18.679  0.00  0.00    +0.000 A 
ATOM     20  C   UNL     1       2.171   8.949  17.734  0.00  0.00    +0.000 A 
ATOM     21  C   UNL     1       2.720   7.697  18.023  0.00  0.00    +0.000 A 
ATOM     22  C   UNL     1       2.503   7.134  19.270  0.00  0.00    +0.000 A 
ATOM     23  F   UNL     1       3.070   5.956  19.568  0.00  0.00    +0.000 F 
ATOM     24  C   UNL     1       1.714   7.792  20.204  0.00  0.00    +0.000 A 
ATOM     25  F   UNL     1       1.502   7.243  21.408  0.00  0.00    +0.000 F 
ATOM     26  C   UNL     1       1.146   9.034  19.912  0.00  0.00    +0.000 A 
ENDBRANCH  17  19
ENDBRANCH   5  17
BRANCH   1  27
ATOM     27  C   UNL     1       0.286  12.482  20.921  0.00  0.00    +0.000 C 
BRANCH  27  31
ATOM     28  C   UNL     1      -1.415  14.869  24.125  0.00  0.00    +0.000 A 
ATOM     29  C   UNL     1      -1.765  13.523  23.986  0.00  0.00    +0.000 A 
ATOM     30  C   UNL     1      -1.226  12.751  22.947  0.00  0.00    +0.000 A 
ATOM     31  C   UNL     1      -0.333  13.316  22.023  0.00  0.00    +0.000 A 
ATOM     32  C   UNL     1       0.019  14.665  22.172  0.00  0.00    +0.000 A 
ATOM     33  C   UNL     1      -0.517  15.434  23.212  0.00  0.00    +0.000 A 
BRANCH  28  35
ATOM     34  C   UNL     1      -3.058  16.713  24.891  0.00  0.00    +0.000 C 
ATOM     35  C   UNL     1      -1.957  15.733  25.222  0.00  0.00    +0.000 C 
ATOM     36  O   UNL     1      -1.515  15.634  26.356  0.00  0.00    +0.000 OA
ENDBRANCH  28  35
ENDBRANCH  27  31
ENDBRANCH   1  27
TORSDOF 5
ENDMDL
MODEL 7
REMARK VINA RESULT:      -8.0      2.817      7.404
REMARK  Name = 
REMARK  9 active torsions:
REMARK  status: ('A' for Active; 'I' for Inactive)
REMARK    1  A    between atoms: C_1  and  C_2
REMARK    2  A    between atoms: C_2  and  C_4
REMARK    3  A    between atoms: C_7  and  C_8
REMARK    4  A    between atoms: C_8  and  N_9
REMARK    5  A    between atoms: C_13  and  N_14
REMARK    6  A    between atoms: N_14  and  C_15
REMARK    7  A    between atoms: N_25  and  C_26
REMARK    8  A    between atoms: C_29  and  C_30
REMARK    9  A    between atoms: C_29  and  C_31
REMARK                            x       y       z     vdW  Elec       q    Type
REMARK                         _______ _______ _______ _____ _____    ______ ____
ROOT
ATOM      1  N   UNL     1       0.241  11.432  20.807  0.00  0.00    +0.000 N 
ATOM      2  N   UNL     1       1.505  11.959  20.731  0.00  0.00    +0.000 NA
ATOM      3  C   UNL     1       1.305  13.214  20.320  0.00  0.00    +0.000 A 
ATOM      4  C   UNL     1      -0.064  13.484  20.146  0.00  0.00    +0.000 A 
ATOM      5  C   UNL     1      -0.733  12.300  20.352  0.00  0.00    +0.000 A 
ATOM      6  C   UNL     1      -0.567  14.782  19.756  0.00  0.00    +0.000 C 
ATOM      7  O   UNL     1      -1.721  15.141  19.953  0.00  0.00    +0.000 OA
ATOM      8  N   UNL     1       0.401  15.588  19.183  0.00  0.00    +0.000 N 
ATOM      9  C   UNL     1      -0.015  16.810  18.535  0.00  0.00    +0.000 C 
ATOM     10  C   UNL     1       1.732  15.362  19.456  0.00  0.00    +0.000 C 
ATOM     11  N   UNL     1       2.634  16.258  19.166  0.00  0.00    +0.000 NA
ATOM     12  C   UNL     1       3.911  15.698  19.719  0.00  0.00    +0.000 C 
ATOM     13  C   UNL     1       4.937  15.728  18.588  0.00  0.00    +0.000 C 
ATOM     14  C   UNL     1       4.346  16.629  20.857  0.00  0.00    +0.000 C 
ATOM     15  C   UNL     1       3.597  14.250  20.230  0.00  0.00    +0.000 C 
ATOM     16  N   UNL     1       2.172  14.212  20.053  0.00  0.00    +0.000 N 
ENDROOT
BRANCH   5  17
ATOM     17  N   UNL     1      -2.035  11.955  20.162  0.00  0.00    +0.000 N 
ATOM     18  H   UNL     1      -2.672  11.846  20.947  0.00  0.00    +0.000 HD
BRANCH  17  19
ATOM     19  C   UNL     1      -2.603  11.567  18.923  0.00  0.00    +0.000 A 
ATOM     20  C   UNL     1      -3.877  12.004  18.500  0.00  0.00    +0.000 A 
ATOM     21  C   UNL     1      -4.430  11.582  17.288  0.00  0.00    +0.000 A 
ATOM     22  C   UNL     1      -3.708  10.723  16.476  0.00  0.00    +0.000 A 
ATOM     23  F   UNL     1      -4.214  10.358  15.289  0.00  0.00    +0.000 F 
ATOM     24  C   UNL     1      -2.466  10.258  16.886  0.00  0.00    +0.000 A 
ATOM     25  F   UNL     1      -1.770   9.423  16.100  0.00  0.00    +0.000 F 
ATOM     26  C   UNL     1      -1.918  10.660  18.106  0.00  0.00    +0.000 A 
ENDBRANCH  17  19
ENDBRANCH   5  17
BRANCH   1  27
ATOM     27  C   UNL     1       0.061  10.022  21.155  0.00  0.00    +0.000 C 
BRANCH  27  31
ATOM     28  C   UNL     1       2.477   7.350  18.732  0.00  0.00    +0.000 A 
ATOM     29  C   UNL     1       2.200   7.037  20.064  0.00  0.00    +0.000 A 
ATOM     30  C   UNL     1       1.429   7.902  20.855  0.00  0.00    +0.000 A 
ATOM     31  C   UNL     1       0.928   9.101  20.324  0.00  0.00    +0.000 A 
ATOM     32  C   UNL     1       1.204   9.406  18.984  0.00  0.00    +0.000 A 
ATOM     33  C   UNL     1       1.970   8.541  18.196  0.00  0.00    +0.000 A 
BRANCH  28  35
ATOM     34  C   UNL     1       4.468   7.048  17.109  0.00  0.00    +0.000 C 
ATOM     35  C   UNL     1       3.289   6.457  17.845  0.00  0.00    +0.000 C 
ATOM     36  O   UNL     1       2.998   5.276  17.733  0.00  0.00    +0.000 OA
ENDBRANCH  28  35
ENDBRANCH  27  31
ENDBRANCH   1  27
TORSDOF 5
ENDMDL
MODEL 8
REMARK VINA RESULT:      -7.9      2.590      3.328
REMARK  Name = 
REMARK  9 active torsions:
REMARK  status: ('A' for Active; 'I' for Inactive)
REMARK    1  A    between atoms: C_1  and  C_2
REMARK    2  A    between atoms: C_2  and  C_4
REMARK    3  A    between atoms: C_7  and  C_8
REMARK    4  A    between atoms: C_8  and  N_9
REMARK    5  A    between atoms: C_13  and  N_14
REMARK    6  A    between atoms: N_14  and  C_15
REMARK    7  A    between atoms: N_25  and  C_26
REMARK    8  A    between atoms: C_29  and  C_30
REMARK    9  A    between atoms: C_29  and  C_31
REMARK                            x       y       z     vdW  Elec       q    Type
REMARK                         _______ _______ _______ _____ _____    ______ ____
ROOT
ATOM      1  N   UNL     1      -0.667  11.853  19.973  0.00  0.00    +0.000 N 
ATOM      2  N   UNL     1      -1.954  12.323  20.038  0.00  0.00    +0.000 NA
ATOM      3  C   UNL     1      -2.538  11.807  18.953  0.00  0.00    +0.000 A 
ATOM      4  C   UNL     1      -1.639  11.016  18.214  0.00  0.00    +0.000 A 
ATOM      5  C   UNL     1      -0.409  11.144  18.817  0.00  0.00    +0.000 A 
ATOM      6  C   UNL     1      -2.022  10.297  17.021  0.00  0.00    +0.000 C 
ATOM      7  O   UNL     1      -1.394   9.341  16.583  0.00  0.00    +0.000 OA
ATOM      8  N   UNL     1      -3.192  10.772  16.454  0.00  0.00    +0.000 N 
ATOM      9  C   UNL     1      -3.557  10.306  15.136  0.00  0.00    +0.000 C 
ATOM     10  C   UNL     1      -4.103  11.455  17.229  0.00  0.00    +0.000 C 
ATOM     11  N   UNL     1      -5.318  11.663  16.805  0.00  0.00    +0.000 NA
ATOM     12  C   UNL     1      -6.014  12.315  17.962  0.00  0.00    +0.000 C 
ATOM     13  C   UNL     1      -6.663  13.591  17.431  0.00  0.00    +0.000 C 
ATOM     14  C   UNL     1      -7.088  11.331  18.442  0.00  0.00    +0.000 C 
ATOM     15  C   UNL     1      -4.930  12.583  19.061  0.00  0.00    +0.000 C 
ATOM     16  N   UNL     1      -3.794  11.928  18.476  0.00  0.00    +0.000 N 
ENDROOT
BRANCH   5  17
ATOM     17  N   UNL     1       0.828  10.728  18.435  0.00  0.00    +0.000 N 
ATOM     18  H   UNL     1       1.393  11.273  17.789  0.00  0.00    +0.000 HD
BRANCH  17  19
ATOM     19  C   UNL     1       1.397   9.467  18.746  0.00  0.00    +0.000 A 
ATOM     20  C   UNL     1       1.235   8.849  20.004  0.00  0.00    +0.000 A 
ATOM     21  C   UNL     1       1.832   7.619  20.299  0.00  0.00    +0.000 A 
ATOM     22  C   UNL     1       2.592   6.986  19.330  0.00  0.00    +0.000 A 
ATOM     23  F   UNL     1       3.123   5.784  19.591  0.00  0.00    +0.000 F 
ATOM     24  C   UNL     1       2.789   7.590  18.095  0.00  0.00    +0.000 A 
ATOM     25  F   UNL     1       3.529   6.977  17.160  0.00  0.00    +0.000 F 
ATOM     26  C   UNL     1       2.212   8.828  17.804  0.00  0.00    +0.000 A 
ENDBRANCH  17  19
ENDBRANCH   5  17
BRANCH   1  27
ATOM     27  C   UNL     1       0.314  12.281  20.972  0.00  0.00    +0.000 C 
BRANCH  27  31
ATOM     28  C   UNL     1      -1.514  14.726  24.060  0.00  0.00    +0.000 A 
ATOM     29  C   UNL     1      -0.553  15.271  23.206  0.00  0.00    +0.000 A 
ATOM     30  C   UNL     1       0.049  14.483  22.213  0.00  0.00    +0.000 A 
ATOM     31  C   UNL     1      -0.299  13.131  22.065  0.00  0.00    +0.000 A 
ATOM     32  C   UNL     1      -1.269  12.591  22.921  0.00  0.00    +0.000 A 
ATOM     33  C   UNL     1      -1.870  13.380  23.908  0.00  0.00    +0.000 A 
BRANCH  28  35
ATOM     34  C   UNL     1      -1.364  16.510  25.925  0.00  0.00    +0.000 C 
ATOM     35  C   UNL     1      -2.190  15.527  25.129  0.00  0.00    +0.000 C 
ATOM     36  O   UNL     1      -3.385  15.386  25.339  0.00  0.00    +0.000 OA
ENDBRANCH  28  35
ENDBRANCH  27  31
ENDBRANCH   1  27
TORSDOF 5
ENDMDL
MODEL 9
REMARK VINA RESULT:      -7.9      3.192      6.643
REMARK  Name = 
REMARK  9 active torsions:
REMARK  status: ('A' for Active; 'I' for Inactive)
REMARK    1  A    between atoms: C_1  and  C_2
REMARK    2  A    between atoms: C_2  and  C_4
REMARK    3  A    between atoms: C_7  and  C_8
REMARK    4  A    between atoms: C_8  and  N_9
REMARK    5  A    between atoms: C_13  and  N_14
REMARK    6  A    between atoms: N_14  and  C_15
REMARK    7  A    between atoms: N_25  and  C_26
REMARK    8  A    between atoms: C_29  and  C_30
REMARK    9  A    between atoms: C_29  and  C_31
REMARK                            x       y       z     vdW  Elec       q    Type
REMARK                         _______ _______ _______ _____ _____    ______ ____
ROOT
ATOM      1  N   UNL     1       0.624  10.801  18.526  0.00  0.00    +0.000 N 
ATOM      2  N   UNL     1      -0.613  10.425  18.068  0.00  0.00    +0.000 NA
ATOM      3  C   UNL     1      -1.446  11.295  18.646  0.00  0.00    +0.000 A 
ATOM      4  C   UNL     1      -0.750  12.213  19.452  0.00  0.00    +0.000 A 
ATOM      5  C   UNL     1       0.568  11.819  19.458  0.00  0.00    +0.000 A 
ATOM      6  C   UNL     1      -1.401  13.296  20.154  0.00  0.00    +0.000 C 
ATOM      7  O   UNL     1      -0.810  14.296  20.543  0.00  0.00    +0.000 OA
ATOM      8  N   UNL     1      -2.764  13.105  20.298  0.00  0.00    +0.000 N 
ATOM      9  C   UNL     1      -3.493  13.985  21.182  0.00  0.00    +0.000 C 
ATOM     10  C   UNL     1      -3.438  12.278  19.428  0.00  0.00    +0.000 C 
ATOM     11  N   UNL     1      -4.740  12.297  19.360  0.00  0.00    +0.000 NA
ATOM     12  C   UNL     1      -5.072  11.365  18.233  0.00  0.00    +0.000 C 
ATOM     13  C   UNL     1      -6.099  10.368  18.767  0.00  0.00    +0.000 C 
ATOM     14  C   UNL     1      -5.690  12.219  17.120  0.00  0.00    +0.000 C 
ATOM     15  C   UNL     1      -3.732  10.691  17.782  0.00  0.00    +0.000 C 
ATOM     16  N   UNL     1      -2.789  11.417  18.585  0.00  0.00    +0.000 N 
ENDROOT
BRANCH   5  17
ATOM     17  N   UNL     1       1.633  12.247  20.186  0.00  0.00    +0.000 N 
ATOM     18  H   UNL     1       1.817  11.884  21.118  0.00  0.00    +0.000 HD
BRANCH  17  19
ATOM     19  C   UNL     1       2.491  13.318  19.826  0.00  0.00    +0.000 A 
ATOM     20  C   UNL     1       2.735  13.677  18.484  0.00  0.00    +0.000 A 
ATOM     21  C   UNL     1       3.610  14.716  18.151  0.00  0.00    +0.000 A 
ATOM     22  C   UNL     1       4.244  15.417  19.164  0.00  0.00    +0.000 A 
ATOM     23  F   UNL     1       5.043  16.447  18.851  0.00  0.00    +0.000 F 
ATOM     24  C   UNL     1       4.040  15.061  20.490  0.00  0.00    +0.000 A 
ATOM     25  F   UNL     1       4.659  15.738  21.468  0.00  0.00    +0.000 F 
ATOM     26  C   UNL     1       3.184  14.010  20.826  0.00  0.00    +0.000 A 
ENDBRANCH  17  19
ENDBRANCH   5  17
BRANCH   1  27
ATOM     27  C   UNL     1       1.803  10.015  18.161  0.00  0.00    +0.000 C 
BRANCH  27  31
ATOM     28  C   UNL     1       1.828   6.115  20.069  0.00  0.00    +0.000 A 
ATOM     29  C   UNL     1       1.395   7.241  20.773  0.00  0.00    +0.000 A 
ATOM     30  C   UNL     1       1.395   8.505  20.165  0.00  0.00    +0.000 A 
ATOM     31  C   UNL     1       1.837   8.663  18.842  0.00  0.00    +0.000 A 
ATOM     32  C   UNL     1       2.264   7.527  18.139  0.00  0.00    +0.000 A 
ATOM     33  C   UNL     1       2.261   6.267  18.746  0.00  0.00    +0.000 A 
BRANCH  28  35
ATOM     34  C   UNL     1       0.948   3.683  20.069  0.00  0.00    +0.000 C 
ATOM     35  C   UNL     1       1.840   4.744  20.672  0.00  0.00    +0.000 C 
ATOM     36  O   UNL     1       2.564   4.498  21.624  0.00  0.00    +0.000 OA
ENDBRANCH  28  35
ENDBRANCH  27  31
ENDBRANCH   1  27
TORSDOF 5
ENDMDL
