MODEL 1
REMARK VINA RESULT:      -7.0      0.000      0.000
REMARK  Name = 
REMARK  9 active torsions:
REMARK  status: ('A' for Active; 'I' for Inactive)
REMARK    1  A    between atoms: C_1  and  C_2
REMARK    2  A    between atoms: C_2  and  O_3
REMARK    3  A    between atoms: O_3  and  C_4
REMARK    4  A    between atoms: C_4  and  C_6
REMARK    5  A    between atoms: C_7  and  N_8
REMARK    6  A    between atoms: C_9  and  C_11
REMARK    7  A    between atoms: C_11  and  C_12
REMARK    8  A    between atoms: N_18  and  C_19
REMARK    9  A    between atoms: C_19  and  C_20
REMARK                            x       y       z     vdW  Elec       q    Type
REMARK                         _______ _______ _______ _____ _____    ______ ____
ROOT
ATOM      1  C   UNL     1       2.717   6.004  19.381  0.00  0.00    +0.000 A 
ATOM      2  C   UNL     1       2.276   7.268  19.028  0.00  0.00    +0.000 A 
ATOM      3  S   UNL     1       3.176   7.976  17.768  0.00  0.00    +0.000 S 
ATOM      4  C   UNL     1       4.321   6.723  17.820  0.00  0.00    +0.000 A 
ATOM      5  C   UNL     1       3.985   5.744  18.739  0.00  0.00    +0.000 A 
ATOM      6  C   UNL     1       4.853   4.525  18.893  0.00  0.00    +0.000 C 
ATOM      7  C   UNL     1       6.207   4.716  18.176  0.00  0.00    +0.000 C 
ATOM      8  N   UNL     1       6.119   5.323  16.824  0.00  0.00    +0.000 NA
ATOM      9  C   UNL     1       5.542   6.691  16.938  0.00  0.00    +0.000 C 
ENDROOT
BRANCH   2  10
ATOM     10  N   UNL     1       1.229   8.057  19.459  0.00  0.00    +0.000 N 
ATOM     11  C   UNL     1       1.163   8.447  20.788  0.00  0.00    +0.000 C 
ATOM     12  O   UNL     1       2.021   8.225  21.638  0.00  0.00    +0.000 OA
ATOM     13  H   UNL     1       0.800   8.662  18.772  0.00  0.00    +0.000 HD
BRANCH  11  14
ATOM     14  C   UNL     1      -0.083   9.240  21.122  0.00  0.00    +0.000 C 
ATOM     15  C   UNL     1      -0.491  10.147  19.975  0.00  0.00    +0.000 C 
ENDBRANCH  11  14
ENDBRANCH   2  10
BRANCH   1  16
ATOM     16  C   UNL     1       1.977   5.012  20.171  0.00  0.00    +0.000 C 
ATOM     17  O   UNL     1       2.242   4.757  21.339  0.00  0.00    +0.000 OA
BRANCH  16  18
ATOM     18  O   UNL     1       1.130   4.264  19.406  0.00  0.00    +0.000 OA
BRANCH  18  20
ATOM     19  C   UNL     1       1.888   2.161  18.626  0.00  0.00    +0.000 C 
ATOM     20  C   UNL     1       1.073   2.865  19.697  0.00  0.00    +0.000 C 
ENDBRANCH  18  20
ENDBRANCH  16  18
ENDBRANCH   1  16
BRANCH   8  21
ATOM     21  C   UNL     1       5.328   4.516  15.871  0.00  0.00    +0.000 C 
BRANCH  21  22
ATOM     22  C   UNL     1       5.933   4.378  14.488  0.00  0.00    +0.000 A 
ATOM     23  C   UNL     1       7.124   5.051  14.169  0.00  0.00    +0.000 A 
ATOM     24  C   UNL     1       7.703   4.916  12.908  0.00  0.00    +0.000 A 
ATOM     25  C   UNL     1       7.103   4.101  11.950  0.00  0.00    +0.000 A 
ATOM     26  C   UNL     1       5.921   3.427  12.253  0.00  0.00    +0.000 A 
ATOM     27  C   UNL     1       5.338   3.563  13.515  0.00  0.00    +0.000 A 
ENDBRANCH  21  22
ENDBRANCH   8  21
TORSDOF 7
ENDMDL
MODEL 2
REMARK VINA RESULT:      -6.9      3.037      7.974
REMARK  Name = 
REMARK  9 active torsions:
REMARK  status: ('A' for Active; 'I' for Inactive)
REMARK    1  A    between atoms: C_1  and  C_2
REMARK    2  A    between atoms: C_2  and  O_3
REMARK    3  A    between atoms: O_3  and  C_4
REMARK    4  A    between atoms: C_4  and  C_6
REMARK    5  A    between atoms: C_7  and  N_8
REMARK    6  A    between atoms: C_9  and  C_11
REMARK    7  A    between atoms: C_11  and  C_12
REMARK    8  A    between atoms: N_18  and  C_19
REMARK    9  A    between atoms: C_19  and  C_20
REMARK                            x       y       z     vdW  Elec       q    Type
REMARK                         _______ _______ _______ _____ _____    ______ ____
ROOT
ATOM      1  C   UNL     1       6.082   4.484  17.030  0.00  0.00    +0.000 A 
ATOM      2  C   UNL     1       5.549   3.989  15.851  0.00  0.00    +0.000 A 
ATOM      3  S   UNL     1       3.850   4.079  15.781  0.00  0.00    +0.000 S 
ATOM      4  C   UNL     1       3.764   4.558  17.408  0.00  0.00    +0.000 A 
ATOM      5  C   UNL     1       5.016   4.712  17.977  0.00  0.00    +0.000 A 
ATOM      6  C   UNL     1       5.145   5.181  19.400  0.00  0.00    +0.000 C 
ATOM      7  C   UNL     1       3.782   5.127  20.126  0.00  0.00    +0.000 C 
ATOM      8  N   UNL     1       2.633   5.643  19.340  0.00  0.00    +0.000 NA
ATOM      9  C   UNL     1       2.459   4.805  18.121  0.00  0.00    +0.000 C 
ENDROOT
BRANCH   2  10
ATOM     10  N   UNL     1       6.116   3.475  14.702  0.00  0.00    +0.000 N 
ATOM     11  C   UNL     1       6.629   4.335  13.744  0.00  0.00    +0.000 C 
ATOM     12  O   UNL     1       6.711   5.556  13.855  0.00  0.00    +0.000 OA
ATOM     13  H   UNL     1       6.522   2.551  14.767  0.00  0.00    +0.000 HD
BRANCH  11  14
ATOM     14  C   UNL     1       7.143   3.625  12.509  0.00  0.00    +0.000 C 
ATOM     15  C   UNL     1       6.067   2.762  11.875  0.00  0.00    +0.000 C 
ENDBRANCH  11  14
ENDBRANCH   2  10
BRANCH   1  16
ATOM     16  C   UNL     1       7.484   4.853  17.264  0.00  0.00    +0.000 C 
ATOM     17  O   UNL     1       8.289   4.105  17.805  0.00  0.00    +0.000 OA
BRANCH  16  18
ATOM     18  O   UNL     1       7.721   6.175  17.025  0.00  0.00    +0.000 OA
BRANCH  18  20
ATOM     19  C   UNL     1       7.858   8.446  17.679  0.00  0.00    +0.000 C 
ATOM     20  C   UNL     1       7.902   7.010  18.172  0.00  0.00    +0.000 C 
ENDBRANCH  18  20
ENDBRANCH  16  18
ENDBRANCH   1  16
BRANCH   8  21
ATOM     21  C   UNL     1       2.773   7.065  18.963  0.00  0.00    +0.000 C 
BRANCH  21  22
ATOM     22  C   UNL     1       1.778   8.004  19.616  0.00  0.00    +0.000 A 
ATOM     23  C   UNL     1       1.347   7.769  20.932  0.00  0.00    +0.000 A 
ATOM     24  C   UNL     1       0.448   8.637  21.552  0.00  0.00    +0.000 A 
ATOM     25  C   UNL     1      -0.026   9.754  20.868  0.00  0.00    +0.000 A 
ATOM     26  C   UNL     1       0.395  10.000  19.562  0.00  0.00    +0.000 A 
ATOM     27  C   UNL     1       1.293   9.130  18.938  0.00  0.00    +0.000 A 
ENDBRANCH  21  22
ENDBRANCH   8  21
TORSDOF 7
ENDMDL
MODEL 3
REMARK VINA RESULT:      -6.9      3.430      7.722
REMARK  Name = 
REMARK  9 active torsions:
REMARK  status: ('A' for Active; 'I' for Inactive)
REMARK    1  A    between atoms: C_1  and  C_2
REMARK    2  A    between atoms: C_2  and  O_3
REMARK    3  A    between atoms: O_3  and  C_4
REMARK    4  A    between atoms: C_4  and  C_6
REMARK    5  A    between atoms: C_7  and  N_8
REMARK    6  A    between atoms: C_9  and  C_11
REMARK    7  A    between atoms: C_11  and  C_12
REMARK    8  A    between atoms: N_18  and  C_19
REMARK    9  A    between atoms: C_19  and  C_20
REMARK                            x       y       z     vdW  Elec       q    Type
REMARK                         _______ _______ _______ _____ _____    ______ ____
ROOT
ATOM      1  C   UNL     1       2.524   6.691  19.070  0.00  0.00    +0.000 A 
ATOM      2  C   UNL     1       2.147   6.241  20.324  0.00  0.00    +0.000 A 
ATOM      3  S   UNL     1       1.094   7.303  21.140  0.00  0.00    +0.000 S 
ATOM      4  C   UNL     1       1.301   8.495  19.949  0.00  0.00    +0.000 A 
ATOM      5  C   UNL     1       2.108   8.065  18.910  0.00  0.00    +0.000 A 
ATOM      6  C   UNL     1       2.367   8.966  17.734  0.00  0.00    +0.000 C 
ATOM      7  C   UNL     1       1.909  10.410  18.032  0.00  0.00    +0.000 C 
ATOM      8  N   UNL     1       0.587  10.523  18.698  0.00  0.00    +0.000 NA
ATOM      9  C   UNL     1       0.649   9.852  20.026  0.00  0.00    +0.000 C 
ENDROOT
BRANCH   2  10
ATOM     10  N   UNL     1       2.415   5.088  21.033  0.00  0.00    +0.000 N 
ATOM     11  C   UNL     1       1.547   4.011  20.949  0.00  0.00    +0.000 C 
ATOM     12  O   UNL     1       0.566   3.943  20.212  0.00  0.00    +0.000 OA
ATOM     13  H   UNL     1       3.387   4.891  21.234  0.00  0.00    +0.000 HD
BRANCH  11  14
ATOM     14  C   UNL     1       1.935   2.852  21.844  0.00  0.00    +0.000 C 
ATOM     15  C   UNL     1       3.224   2.198  21.380  0.00  0.00    +0.000 C 
ENDBRANCH  11  14
ENDBRANCH   2  10
BRANCH   1  16
ATOM     16  C   UNL     1       3.132   5.886  18.003  0.00  0.00    +0.000 C 
ATOM     17  O   UNL     1       4.129   6.240  17.386  0.00  0.00    +0.000 OA
BRANCH  16  18
ATOM     18  O   UNL     1       2.345   4.835  17.631  0.00  0.00    +0.000 OA
BRANCH  18  20
ATOM     19  C   UNL     1       2.422   2.472  17.747  0.00  0.00    +0.000 C 
ATOM     20  C   UNL     1       3.014   3.699  17.077  0.00  0.00    +0.000 C 
ENDBRANCH  18  20
ENDBRANCH  16  18
ENDBRANCH   1  16
BRANCH   8  21
ATOM     21  C   UNL     1      -0.521   9.962  17.897  0.00  0.00    +0.000 C 
BRANCH  21  22
ATOM     22  C   UNL     1      -1.883  10.569  18.170  0.00  0.00    +0.000 A 
ATOM     23  C   UNL     1      -2.008  11.650  19.058  0.00  0.00    +0.000 A 
ATOM     24  C   UNL     1      -3.252  12.232  19.301  0.00  0.00    +0.000 A 
ATOM     25  C   UNL     1      -4.386  11.746  18.656  0.00  0.00    +0.000 A 
ATOM     26  C   UNL     1      -4.277  10.674  17.772  0.00  0.00    +0.000 A 
ATOM     27  C   UNL     1      -3.033  10.088  17.528  0.00  0.00    +0.000 A 
ENDBRANCH  21  22
ENDBRANCH   8  21
TORSDOF 7
ENDMDL
MODEL 4
REMARK VINA RESULT:      -6.9      0.342      1.106
REMARK  Name = 
REMARK  9 active torsions:
REMARK  status: ('A' for Active; 'I' for Inactive)
REMARK    1  A    between atoms: C_1  and  C_2
REMARK    2  A    between atoms: C_2  and  O_3
REMARK    3  A    between atoms: O_3  and  C_4
REMARK    4  A    between atoms: C_4  and  C_6
REMARK    5  A    between atoms: C_7  and  N_8
REMARK    6  A    between atoms: C_9  and  C_11
REMARK    7  A    between atoms: C_11  and  C_12
REMARK    8  A    between atoms: N_18  and  C_19
REMARK    9  A    between atoms: C_19  and  C_20
REMARK                            x       y       z     vdW  Elec       q    Type
REMARK                         _______ _______ _______ _____ _____    ______ ____
ROOT
ATOM      1  C   UNL     1       2.707   6.097  19.352  0.00  0.00    +0.000 A 
ATOM      2  C   UNL     1       2.269   7.368  19.017  0.00  0.00    +0.000 A 
ATOM      3  S   UNL     1       3.162   8.086  17.758  0.00  0.00    +0.000 S 
ATOM      4  C   UNL     1       4.301   6.828  17.787  0.00  0.00    +0.000 A 
ATOM      5  C   UNL     1       3.969   5.840  18.697  0.00  0.00    +0.000 A 
ATOM      6  C   UNL     1       4.833   4.616  18.830  0.00  0.00    +0.000 C 
ATOM      7  C   UNL     1       6.182   4.810  18.103  0.00  0.00    +0.000 C 
ATOM      8  N   UNL     1       6.086   5.433  16.759  0.00  0.00    +0.000 NA
ATOM      9  C   UNL     1       5.516   6.802  16.894  0.00  0.00    +0.000 C 
ENDROOT
BRANCH   2  10
ATOM     10  N   UNL     1       1.228   8.155  19.466  0.00  0.00    +0.000 N 
ATOM     11  C   UNL     1       1.174   8.530  20.799  0.00  0.00    +0.000 C 
ATOM     12  O   UNL     1       2.039   8.295  21.640  0.00  0.00    +0.000 OA
ATOM     13  H   UNL     1       0.796   8.770  18.789  0.00  0.00    +0.000 HD
BRANCH  11  14
ATOM     14  C   UNL     1      -0.066   9.324  21.153  0.00  0.00    +0.000 C 
ATOM     15  C   UNL     1      -0.330   9.308  22.648  0.00  0.00    +0.000 C 
ENDBRANCH  11  14
ENDBRANCH   2  10
BRANCH   1  16
ATOM     16  C   UNL     1       1.969   5.100  20.136  0.00  0.00    +0.000 C 
ATOM     17  O   UNL     1       2.096   4.976  21.348  0.00  0.00    +0.000 OA
BRANCH  16  18
ATOM     18  O   UNL     1       1.316   4.197  19.348  0.00  0.00    +0.000 OA
BRANCH  18  20
ATOM     19  C   UNL     1       1.563   2.051  18.381  0.00  0.00    +0.000 C 
ATOM     20  C   UNL     1       1.474   2.817  19.689  0.00  0.00    +0.000 C 
ENDBRANCH  18  20
ENDBRANCH  16  18
ENDBRANCH   1  16
BRANCH   8  21
ATOM     21  C   UNL     1       5.284   4.641  15.804  0.00  0.00    +0.000 C 
BRANCH  21  22
ATOM     22  C   UNL     1       5.924   4.433  14.445  0.00  0.00    +0.000 A 
ATOM     23  C   UNL     1       5.305   3.605  13.493  0.00  0.00    +0.000 A 
ATOM     24  C   UNL     1       5.871   3.423  12.232  0.00  0.00    +0.000 A 
ATOM     25  C   UNL     1       7.061   4.069  11.903  0.00  0.00    +0.000 A 
ATOM     26  C   UNL     1       7.685   4.893  12.837  0.00  0.00    +0.000 A 
ATOM     27  C   UNL     1       7.121   5.077  14.102  0.00  0.00    +0.000 A 
ENDBRANCH  21  22
ENDBRANCH   8  21
TORSDOF 7
ENDMDL
MODEL 5
REMARK VINA RESULT:      -6.8      2.629      7.958
REMARK  Name = 
REMARK  9 active torsions:
REMARK  status: ('A' for Active; 'I' for Inactive)
REMARK    1  A    between atoms: C_1  and  C_2
REMARK    2  A    between atoms: C_2  and  O_3
REMARK    3  A    between atoms: O_3  and  C_4
REMARK    4  A    between atoms: C_4  and  C_6
REMARK    5  A    between atoms: C_7  and  N_8
REMARK    6  A    between atoms: C_9  and  C_11
REMARK    7  A    between atoms: C_11  and  C_12
REMARK    8  A    between atoms: N_18  and  C_19
REMARK    9  A    between atoms: C_19  and  C_20
REMARK                            x       y       z     vdW  Elec       q    Type
REMARK                         _______ _______ _______ _____ _____    ______ ____
ROOT
ATOM      1  C   UNL     1       2.523   6.789  18.984  0.00  0.00    +0.000 A 
ATOM      2  C   UNL     1       2.200   6.306  20.242  0.00  0.00    +0.000 A 
ATOM      3  S   UNL     1       1.155   7.327  21.116  0.00  0.00    +0.000 S 
ATOM      4  C   UNL     1       1.294   8.548  19.944  0.00  0.00    +0.000 A 
ATOM      5  C   UNL     1       2.072   8.156  18.869  0.00  0.00    +0.000 A 
ATOM      6  C   UNL     1       2.270   9.086  17.703  0.00  0.00    +0.000 C 
ATOM      7  C   UNL     1       1.792  10.514  18.047  0.00  0.00    +0.000 C 
ATOM      8  N   UNL     1       0.492  10.584  18.761  0.00  0.00    +0.000 NA
ATOM      9  C   UNL     1       0.616   9.888  20.072  0.00  0.00    +0.000 C 
ENDROOT
BRANCH   2  10
ATOM     10  N   UNL     1       2.518   5.145  20.916  0.00  0.00    +0.000 N 
ATOM     11  C   UNL     1       1.649   4.066  20.877  0.00  0.00    +0.000 C 
ATOM     12  O   UNL     1       0.621   4.004  20.206  0.00  0.00    +0.000 OA
ATOM     13  H   UNL     1       3.501   4.948  21.049  0.00  0.00    +0.000 HD
BRANCH  11  14
ATOM     14  C   UNL     1       2.099   2.897  21.728  0.00  0.00    +0.000 C 
ATOM     15  C   UNL     1       3.358   2.255  21.173  0.00  0.00    +0.000 C 
ENDBRANCH  11  14
ENDBRANCH   2  10
BRANCH   1  16
ATOM     16  C   UNL     1       3.109   6.019  17.880  0.00  0.00    +0.000 C 
ATOM     17  O   UNL     1       2.795   4.861  17.633  0.00  0.00    +0.000 OA
BRANCH  16  18
ATOM     18  O   UNL     1       4.183   6.648  17.320  0.00  0.00    +0.000 OA
BRANCH  18  20
ATOM     19  C   UNL     1       5.528   5.770  15.581  0.00  0.00    +0.000 C 
ATOM     20  C   UNL     1       5.344   5.847  17.086  0.00  0.00    +0.000 C 
ENDBRANCH  18  20
ENDBRANCH  16  18
ENDBRANCH   1  16
BRANCH   8  21
ATOM     21  C   UNL     1      -0.631  10.015  17.988  0.00  0.00    +0.000 C 
BRANCH  21  22
ATOM     22  C   UNL     1      -1.985  10.639  18.267  0.00  0.00    +0.000 A 
ATOM     23  C   UNL     1      -2.092  11.724  19.153  0.00  0.00    +0.000 A 
ATOM     24  C   UNL     1      -3.327  12.321  19.401  0.00  0.00    +0.000 A 
ATOM     25  C   UNL     1      -4.471  11.846  18.764  0.00  0.00    +0.000 A 
ATOM     26  C   UNL     1      -4.379  10.770  17.882  0.00  0.00    +0.000 A 
ATOM     27  C   UNL     1      -3.143  10.169  17.633  0.00  0.00    +0.000 A 
ENDBRANCH  21  22
ENDBRANCH   8  21
TORSDOF 7
ENDMDL
MODEL 6
REMARK VINA RESULT:      -6.8      2.874      8.022
REMARK  Name = 
REMARK  9 active torsions:
REMARK  status: ('A' for Active; 'I' for Inactive)
REMARK    1  A    between atoms: C_1  and  C_2
REMARK    2  A    between atoms: C_2  and  O_3
REMARK    3  A    between atoms: O_3  and  C_4
REMARK    4  A    between atoms: C_4  and  C_6
REMARK    5  A    between atoms: C_7  and  N_8
REMARK    6  A    between atoms: C_9  and  C_11
REMARK    7  A    between atoms: C_11  and  C_12
REMARK    8  A    between atoms: N_18  and  C_19
REMARK    9  A    between atoms: C_19  and  C_20
REMARK                            x       y       z     vdW  Elec       q    Type
REMARK                         _______ _______ _______ _____ _____    ______ ____
ROOT
ATOM      1  C   UNL     1       2.548   6.917  19.025  0.00  0.00    +0.000 A 
ATOM      2  C   UNL     1       2.185   6.416  20.264  0.00  0.00    +0.000 A 
ATOM      3  S   UNL     1       1.086   7.407  21.105  0.00  0.00    +0.000 S 
ATOM      4  C   UNL     1       1.247   8.642  19.951  0.00  0.00    +0.000 A 
ATOM      5  C   UNL     1       2.075   8.276  18.904  0.00  0.00    +0.000 A 
ATOM      6  C   UNL     1       2.300   9.222  17.755  0.00  0.00    +0.000 C 
ATOM      7  C   UNL     1       1.780  10.637  18.094  0.00  0.00    +0.000 C 
ATOM      8  N   UNL     1       0.452  10.673  18.756  0.00  0.00    +0.000 NA
ATOM      9  C   UNL     1       0.538   9.967  20.064  0.00  0.00    +0.000 C 
ENDROOT
BRANCH   2  10
ATOM     10  N   UNL     1       2.500   5.254  20.940  0.00  0.00    +0.000 N 
ATOM     11  C   UNL     1       1.661   4.154  20.845  0.00  0.00    +0.000 C 
ATOM     12  O   UNL     1       0.669   4.075  20.124  0.00  0.00    +0.000 OA
ATOM     13  H   UNL     1       3.480   5.081  21.118  0.00  0.00    +0.000 HD
BRANCH  11  14
ATOM     14  C   UNL     1       2.099   2.986  21.705  0.00  0.00    +0.000 C 
ATOM     15  C   UNL     1       3.349   2.326  21.152  0.00  0.00    +0.000 C 
ENDBRANCH  11  14
ENDBRANCH   2  10
BRANCH   1  16
ATOM     16  C   UNL     1       3.193   6.170  17.938  0.00  0.00    +0.000 C 
ATOM     17  O   UNL     1       2.829   5.054  17.588  0.00  0.00    +0.000 OA
BRANCH  16  18
ATOM     18  O   UNL     1       4.358   6.750  17.527  0.00  0.00    +0.000 OA
BRANCH  18  20
ATOM     19  C   UNL     1       6.391   5.834  16.731  0.00  0.00    +0.000 C 
ATOM     20  C   UNL     1       4.967   6.203  16.355  0.00  0.00    +0.000 C 
ENDBRANCH  18  20
ENDBRANCH  16  18
ENDBRANCH   1  16
BRANCH   8  21
ATOM     21  C   UNL     1      -0.628  10.090  17.934  0.00  0.00    +0.000 C 
BRANCH  21  22
ATOM     22  C   UNL     1      -2.006  10.676  18.173  0.00  0.00    +0.000 A 
ATOM     23  C   UNL     1      -3.125  10.138  17.516  0.00  0.00    +0.000 A 
ATOM     24  C   UNL     1      -4.401  10.653  17.744  0.00  0.00    +0.000 A 
ATOM     25  C   UNL     1      -4.576  11.709  18.635  0.00  0.00    +0.000 A 
ATOM     26  C   UNL     1      -3.475  12.253  19.294  0.00  0.00    +0.000 A 
ATOM     27  C   UNL     1      -2.196  11.740  19.066  0.00  0.00    +0.000 A 
ENDBRANCH  21  22
ENDBRANCH   8  21
TORSDOF 7
ENDMDL
MODEL 7
REMARK VINA RESULT:      -6.7      1.577      2.139
REMARK  Name = 
REMARK  9 active torsions:
REMARK  status: ('A' for Active; 'I' for Inactive)
REMARK    1  A    between atoms: C_1  and  C_2
REMARK    2  A    between atoms: C_2  and  O_3
REMARK    3  A    between atoms: O_3  and  C_4
REMARK    4  A    between atoms: C_4  and  C_6
REMARK    5  A    between atoms: C_7  and  N_8
REMARK    6  A    between atoms: C_9  and  C_11
REMARK    7  A    between atoms: C_11  and  C_12
REMARK    8  A    between atoms: N_18  and  C_19
REMARK    9  A    between atoms: C_19  and  C_20
REMARK                            x       y       z     vdW  Elec       q    Type
REMARK                         _______ _______ _______ _____ _____    ______ ____
ROOT
ATOM      1  C   UNL     1       2.967   5.255  17.995  0.00  0.00    +0.000 A 
ATOM      2  C   UNL     1       3.099   6.558  18.445  0.00  0.00    +0.000 A 
ATOM      3  S   UNL     1       4.437   7.376  17.781  0.00  0.00    +0.000 S 
ATOM      4  C   UNL     1       5.011   5.948  17.064  0.00  0.00    +0.000 A 
ATOM      5  C   UNL     1       4.159   4.877  17.272  0.00  0.00    +0.000 A 
ATOM      6  C   UNL     1       4.474   3.536  16.668  0.00  0.00    +0.000 C 
ATOM      7  C   UNL     1       5.923   3.495  16.136  0.00  0.00    +0.000 C 
ATOM      8  N   UNL     1       6.346   4.699  15.378  0.00  0.00    +0.000 NA
ATOM      9  C   UNL     1       6.294   5.886  16.275  0.00  0.00    +0.000 C 
ENDROOT
BRANCH   2  10
ATOM     10  N   UNL     1       2.343   7.345  19.290  0.00  0.00    +0.000 N 
ATOM     11  C   UNL     1       1.730   8.488  18.800  0.00  0.00    +0.000 C 
ATOM     12  O   UNL     1       1.720   8.843  17.624  0.00  0.00    +0.000 OA
ATOM     13  H   UNL     1       1.909   6.883  20.078  0.00  0.00    +0.000 HD
BRANCH  11  14
ATOM     14  C   UNL     1       1.003   9.285  19.864  0.00  0.00    +0.000 C 
ATOM     15  C   UNL     1       1.087   8.610  21.220  0.00  0.00    +0.000 C 
ENDBRANCH  11  14
ENDBRANCH   2  10
BRANCH   1  16
ATOM     16  C   UNL     1       1.770   4.412  18.105  0.00  0.00    +0.000 C 
ATOM     17  O   UNL     1       1.055   4.141  17.149  0.00  0.00    +0.000 OA
BRANCH  16  18
ATOM     18  O   UNL     1       1.426   4.162  19.402  0.00  0.00    +0.000 OA
BRANCH  18  20
ATOM     19  C   UNL     1       1.350   2.812  21.345  0.00  0.00    +0.000 C 
ATOM     20  C   UNL     1       2.079   3.059  20.036  0.00  0.00    +0.000 C 
ENDBRANCH  18  20
ENDBRANCH  16  18
ENDBRANCH   1  16
BRANCH   8  21
ATOM     21  C   UNL     1       5.535   4.942  14.167  0.00  0.00    +0.000 C 
BRANCH  21  22
ATOM     22  C   UNL     1       5.748   3.950  13.040  0.00  0.00    +0.000 A 
ATOM     23  C   UNL     1       7.049   3.630  12.619  0.00  0.00    +0.000 A 
ATOM     24  C   UNL     1       7.260   2.703  11.598  0.00  0.00    +0.000 A 
ATOM     25  C   UNL     1       6.174   2.079  10.989  0.00  0.00    +0.000 A 
ATOM     26  C   UNL     1       4.877   2.387  11.397  0.00  0.00    +0.000 A 
ATOM     27  C   UNL     1       4.663   3.317  12.418  0.00  0.00    +0.000 A 
ENDBRANCH  21  22
ENDBRANCH   8  21
TORSDOF 7
ENDMDL
MODEL 8
REMARK VINA RESULT:      -6.6      0.810      1.134
REMARK  Name = 
REMARK  9 active torsions:
REMARK  status: ('A' for Active; 'I' for Inactive)
REMARK    1  A    between atoms: C_1  and  C_2
REMARK    2  A    between atoms: C_2  and  O_3
REMARK    3  A    between atoms: O_3  and  C_4
REMARK    4  A    between atoms: C_4  and  C_6
REMARK    5  A    between atoms: C_7  and  N_8
REMARK    6  A    between atoms: C_9  and  C_11
REMARK    7  A    between atoms: C_11  and  C_12
REMARK    8  A    between atoms: N_18  and  C_19
REMARK    9  A    between atoms: C_19  and  C_20
REMARK                            x       y       z     vdW  Elec       q    Type
REMARK                         _______ _______ _______ _____ _____    ______ ____
ROOT
ATOM      1  C   UNL     1       2.672   5.791  19.310  0.00  0.00    +0.000 A 
ATOM      2  C   UNL     1       2.263   7.092  19.071  0.00  0.00    +0.000 A 
ATOM      3  S   UNL     1       3.193   7.893  17.892  0.00  0.00    +0.000 S 
ATOM      4  C   UNL     1       4.309   6.615  17.839  0.00  0.00    +0.000 A 
ATOM      5  C   UNL     1       3.942   5.564  18.660  0.00  0.00    +0.000 A 
ATOM      6  C   UNL     1       4.781   4.316  18.709  0.00  0.00    +0.000 C 
ATOM      7  C   UNL     1       6.148   4.543  18.026  0.00  0.00    +0.000 C 
ATOM      8  N   UNL     1       6.089   5.274  16.735  0.00  0.00    +0.000 NA
ATOM      9  C   UNL     1       5.541   6.638  16.970  0.00  0.00    +0.000 C 
ENDROOT
BRANCH   2  10
ATOM     10  N   UNL     1       1.227   7.861  19.564  0.00  0.00    +0.000 N 
ATOM     11  C   UNL     1       1.201   8.202  20.907  0.00  0.00    +0.000 C 
ATOM     12  O   UNL     1       2.086   7.951  21.722  0.00  0.00    +0.000 OA
ATOM     13  H   UNL     1       0.776   8.490  18.913  0.00  0.00    +0.000 HD
BRANCH  11  14
ATOM     14  C   UNL     1      -0.036   8.978  21.308  0.00  0.00    +0.000 C 
ATOM     15  C   UNL     1       0.149   9.667  22.648  0.00  0.00    +0.000 C 
ENDBRANCH  11  14
ENDBRANCH   2  10
BRANCH   1  16
ATOM     16  C   UNL     1       1.901   4.748  19.998  0.00  0.00    +0.000 C 
ATOM     17  O   UNL     1       0.906   4.224  19.512  0.00  0.00    +0.000 OA
BRANCH  16  18
ATOM     18  O   UNL     1       2.276   4.596  21.301  0.00  0.00    +0.000 OA
BRANCH  18  20
ATOM     19  C   UNL     1       3.088   2.374  21.245  0.00  0.00    +0.000 C 
ATOM     20  C   UNL     1       2.071   3.305  21.880  0.00  0.00    +0.000 C 
ENDBRANCH  18  20
ENDBRANCH  16  18
ENDBRANCH   1  16
BRANCH   8  21
ATOM     21  C   UNL     1       5.293   4.577  15.704  0.00  0.00    +0.000 C 
BRANCH  21  22
ATOM     22  C   UNL     1       5.971   4.432  14.356  0.00  0.00    +0.000 A 
ATOM     23  C   UNL     1       7.156   5.136  14.084  0.00  0.00    +0.000 A 
ATOM     24  C   UNL     1       7.803   4.996  12.856  0.00  0.00    +0.000 A 
ATOM     25  C   UNL     1       7.277   4.146  11.886  0.00  0.00    +0.000 A 
ATOM     26  C   UNL     1       6.102   3.441  12.142  0.00  0.00    +0.000 A 
ATOM     27  C   UNL     1       5.451   3.582  13.371  0.00  0.00    +0.000 A 
ENDBRANCH  21  22
ENDBRANCH   8  21
TORSDOF 7
ENDMDL
MODEL 9
REMARK VINA RESULT:      -6.5      3.603      5.597
REMARK  Name = 
REMARK  9 active torsions:
REMARK  status: ('A' for Active; 'I' for Inactive)
REMARK    1  A    between atoms: C_1  and  C_2
REMARK    2  A    between atoms: C_2  and  O_3
REMARK    3  A    between atoms: O_3  and  C_4
REMARK    4  A    between atoms: C_4  and  C_6
REMARK    5  A    between atoms: C_7  and  N_8
REMARK    6  A    between atoms: C_9  and  C_11
REMARK    7  A    between atoms: C_11  and  C_12
REMARK    8  A    between atoms: N_18  and  C_19
REMARK    9  A    between atoms: C_19  and  C_20
REMARK                            x       y       z     vdW  Elec       q    Type
REMARK                         _______ _______ _______ _____ _____    ______ ____
ROOT
ATOM      1  C   UNL     1       0.918   9.190  20.385  0.00  0.00    +0.000 A 
ATOM      2  C   UNL     1       0.821  10.283  19.541  0.00  0.00    +0.000 A 
ATOM      3  S   UNL     1       1.552  10.039  18.023  0.00  0.00    +0.000 S 
ATOM      4  C   UNL     1       2.223   8.565  18.533  0.00  0.00    +0.000 A 
ATOM      5  C   UNL     1       1.839   8.231  19.820  0.00  0.00    +0.000 A 
ATOM      6  C   UNL     1       2.292   6.933  20.429  0.00  0.00    +0.000 C 
ATOM      7  C   UNL     1       3.414   6.288  19.585  0.00  0.00    +0.000 C 
ATOM      8  N   UNL     1       3.185   6.309  18.119  0.00  0.00    +0.000 NA
ATOM      9  C   UNL     1       3.113   7.722  17.655  0.00  0.00    +0.000 C 
ENDROOT
BRANCH   2  10
ATOM     10  N   UNL     1       0.214  11.517  19.662  0.00  0.00    +0.000 N 
ATOM     11  C   UNL     1      -1.112  11.672  19.289  0.00  0.00    +0.000 C 
ATOM     12  O   UNL     1      -1.860  10.767  18.926  0.00  0.00    +0.000 OA
ATOM     13  H   UNL     1       0.574  12.134  20.378  0.00  0.00    +0.000 HD
BRANCH  11  14
ATOM     14  C   UNL     1      -1.609  13.098  19.406  0.00  0.00    +0.000 C 
ATOM     15  C   UNL     1      -0.485  14.051  19.768  0.00  0.00    +0.000 C 
ENDBRANCH  11  14
ENDBRANCH   2  10
BRANCH   1  16
ATOM     16  C   UNL     1       0.127   8.954  21.599  0.00  0.00    +0.000 C 
ATOM     17  O   UNL     1      -0.701   8.055  21.692  0.00  0.00    +0.000 OA
BRANCH  16  18
ATOM     18  O   UNL     1       0.250   9.965  22.506  0.00  0.00    +0.000 OA
BRANCH  18  20
ATOM     19  C   UNL     1      -1.156  11.820  22.936  0.00  0.00    +0.000 C 
ATOM     20  C   UNL     1      -0.937  10.343  23.209  0.00  0.00    +0.000 C 
ENDBRANCH  18  20
ENDBRANCH  16  18
ENDBRANCH   1  16
BRANCH   8  21
ATOM     21  C   UNL     1       1.970   5.576  17.705  0.00  0.00    +0.000 C 
BRANCH  21  22
ATOM     22  C   UNL     1       1.936   4.113  18.101  0.00  0.00    +0.000 A 
ATOM     23  C   UNL     1       2.847   3.207  17.532  0.00  0.00    +0.000 A 
ATOM     24  C   UNL     1       2.841   1.863  17.903  0.00  0.00    +0.000 A 
ATOM     25  C   UNL     1       1.929   1.407  18.852  0.00  0.00    +0.000 A 
ATOM     26  C   UNL     1       1.019   2.294  19.425  0.00  0.00    +0.000 A 
ATOM     27  C   UNL     1       1.022   3.641  19.053  0.00  0.00    +0.000 A 
ENDBRANCH  21  22
ENDBRANCH   8  21
TORSDOF 7
ENDMDL
