MODEL 1
REMARK VINA RESULT:      -7.3      0.000      0.000
REMARK  Name = 
REMARK  3 active torsions:
REMARK  status: ('A' for Active; 'I' for Inactive)
REMARK    1  A    between atoms: C_1  and  C_2
REMARK    2  A    between atoms: C_8  and  N_9
REMARK    3  A    between atoms: C_13  and  C_15
REMARK                            x       y       z     vdW  Elec       q    Type
REMARK                         _______ _______ _______ _____ _____    ______ ____
ROOT
ATOM      1  N   UNL     1       2.706   6.928  18.674  0.00  0.00    +0.000 N 
ATOM      2  C   UNL     1       1.995   6.600  19.927  0.00  0.00    +0.000 C 
ATOM      3  C   UNL     1       1.822   7.893  20.743  0.00  0.00    +0.000 C 
ATOM      4  N   UNL     1       1.157   8.935  19.956  0.00  0.00    +0.000 N 
ATOM      5  C   UNL     1       0.045   9.571  20.483  0.00  0.00    +0.000 C 
ATOM      6  O   UNL     1      -0.427   9.345  21.594  0.00  0.00    +0.000 OA
ATOM      7  C   UNL     1       1.753   9.197  18.633  0.00  0.00    +0.000 C 
ATOM      8  C   UNL     1       1.960   7.887  17.831  0.00  0.00    +0.000 C 
ENDROOT
BRANCH   1  16
ATOM      9  C   UNL     1       1.621   4.326  17.803  0.00  0.00    +0.000 C 
ATOM     10  C   UNL     1       3.061   4.740  17.636  0.00  0.00    +0.000 A 
ATOM     11  C   UNL     1       3.910   3.860  16.936  0.00  0.00    +0.000 A 
ATOM     12  C   UNL     1       5.232   4.202  16.666  0.00  0.00    +0.000 A 
ATOM     13  C   UNL     1       5.724   5.413  17.126  0.00  0.00    +0.000 A 
ATOM     14 CL   UNL     1       7.352   5.857  16.779  0.00  0.00    +0.000 Cl
ATOM     15  C   UNL     1       4.903   6.286  17.842  0.00  0.00    +0.000 A 
ATOM     16  C   UNL     1       3.552   5.986  18.100  0.00  0.00    +0.000 A 
ENDBRANCH   1  16
BRANCH   5  17
ATOM     17  C   UNL     1      -0.636  10.644  19.623  0.00  0.00    +0.000 C 
ATOM     18  O   UNL     1      -1.540  10.289  18.873  0.00  0.00    +0.000 OA
ATOM     19  N   UNL     1      -0.168  11.955  19.746  0.00  0.00    +0.000 N 
ATOM     20  C   UNL     1      -0.979  13.023  19.173  0.00  0.00    +0.000 C 
ATOM     21  C   UNL     1      -0.118  14.172  18.655  0.00  0.00    +0.000 C 
ATOM     22  C   UNL     1       0.872  14.653  19.710  0.00  0.00    +0.000 C 
ATOM     23  C   UNL     1       1.695  13.487  20.251  0.00  0.00    +0.000 C 
ATOM     24  C   UNL     1       0.803  12.360  20.761  0.00  0.00    +0.000 C 
ENDBRANCH   5  17
TORSDOF 2
ENDMDL
MODEL 2
REMARK VINA RESULT:      -7.2      3.857      7.876
REMARK  Name = 
REMARK  3 active torsions:
REMARK  status: ('A' for Active; 'I' for Inactive)
REMARK    1  A    between atoms: C_1  and  C_2
REMARK    2  A    between atoms: C_8  and  N_9
REMARK    3  A    between atoms: C_13  and  C_15
REMARK                            x       y       z     vdW  Elec       q    Type
REMARK                         _______ _______ _______ _____ _____    ______ ____
ROOT
ATOM      1  N   UNL     1       1.492   7.639  19.995  0.00  0.00    +0.000 N 
ATOM      2  C   UNL     1       1.646   6.662  21.092  0.00  0.00    +0.000 C 
ATOM      3  C   UNL     1       1.468   5.247  20.513  0.00  0.00    +0.000 C 
ATOM      4  N   UNL     1       2.383   5.009  19.394  0.00  0.00    +0.000 N 
ATOM      5  C   UNL     1       3.187   3.881  19.409  0.00  0.00    +0.000 C 
ATOM      6  O   UNL     1       3.178   3.029  20.292  0.00  0.00    +0.000 OA
ATOM      7  C   UNL     1       2.363   6.039  18.339  0.00  0.00    +0.000 C 
ATOM      8  C   UNL     1       2.505   7.465  18.931  0.00  0.00    +0.000 C 
ENDROOT
BRANCH   1  16
ATOM      9  C   UNL     1       1.375   9.673  17.861  0.00  0.00    +0.000 C 
ATOM     10  C   UNL     1       0.846   9.882  19.257  0.00  0.00    +0.000 A 
ATOM     11  C   UNL     1       0.173  11.092  19.520  0.00  0.00    +0.000 A 
ATOM     12  C   UNL     1      -0.417  11.329  20.757  0.00  0.00    +0.000 A 
ATOM     13  C   UNL     1      -0.309  10.371  21.754  0.00  0.00    +0.000 A 
ATOM     14 CL   UNL     1      -1.054  10.644  23.282  0.00  0.00    +0.000 Cl
ATOM     15  C   UNL     1       0.376   9.178  21.517  0.00  0.00    +0.000 A 
ATOM     16  C   UNL     1       0.953   8.892  20.265  0.00  0.00    +0.000 A 
ENDBRANCH   1  16
BRANCH   5  17
ATOM     17  C   UNL     1       4.146   3.675  18.228  0.00  0.00    +0.000 C 
ATOM     18  O   UNL     1       3.814   2.883  17.352  0.00  0.00    +0.000 OA
ATOM     19  N   UNL     1       5.342   4.399  18.241  0.00  0.00    +0.000 N 
ATOM     20  C   UNL     1       6.121   4.446  17.009  0.00  0.00    +0.000 C 
ATOM     21  C   UNL     1       7.619   4.515  17.288  0.00  0.00    +0.000 C 
ATOM     22  C   UNL     1       7.958   5.630  18.271  0.00  0.00    +0.000 C 
ATOM     23  C   UNL     1       7.118   5.507  19.540  0.00  0.00    +0.000 C 
ATOM     24  C   UNL     1       5.627   5.443  19.222  0.00  0.00    +0.000 C 
ENDBRANCH   5  17
TORSDOF 2
ENDMDL
MODEL 3
REMARK VINA RESULT:      -6.9      1.706      2.627
REMARK  Name = 
REMARK  3 active torsions:
REMARK  status: ('A' for Active; 'I' for Inactive)
REMARK    1  A    between atoms: C_1  and  C_2
REMARK    2  A    between atoms: C_8  and  N_9
REMARK    3  A    between atoms: C_13  and  C_15
REMARK                            x       y       z     vdW  Elec       q    Type
REMARK                         _______ _______ _______ _____ _____    ______ ____
ROOT
ATOM      1  N   UNL     1       2.775   7.006  18.560  0.00  0.00    +0.000 N 
ATOM      2  C   UNL     1       2.981   8.249  17.789  0.00  0.00    +0.000 C 
ATOM      3  C   UNL     1       1.683   9.074  17.838  0.00  0.00    +0.000 C 
ATOM      4  N   UNL     1       1.255   9.314  19.218  0.00  0.00    +0.000 N 
ATOM      5  C   UNL     1       0.981  10.611  19.624  0.00  0.00    +0.000 C 
ATOM      6  O   UNL     1       1.045  11.597  18.896  0.00  0.00    +0.000 OA
ATOM      7  C   UNL     1       1.173   8.111  20.067  0.00  0.00    +0.000 C 
ATOM      8  C   UNL     1       2.469   7.264  19.984  0.00  0.00    +0.000 C 
ENDROOT
BRANCH   1  16
ATOM      9  C   UNL     1       1.214   4.649  17.715  0.00  0.00    +0.000 C 
ATOM     10  C   UNL     1       2.721   4.705  17.727  0.00  0.00    +0.000 A 
ATOM     11  C   UNL     1       3.414   3.591  17.212  0.00  0.00    +0.000 A 
ATOM     12  C   UNL     1       4.802   3.595  17.111  0.00  0.00    +0.000 A 
ATOM     13  C   UNL     1       5.510   4.701  17.555  0.00  0.00    +0.000 A 
ATOM     14 CL   UNL     1       7.226   4.726  17.414  0.00  0.00    +0.000 Cl
ATOM     15  C   UNL     1       4.840   5.803  18.090  0.00  0.00    +0.000 A 
ATOM     16  C   UNL     1       3.435   5.845  18.174  0.00  0.00    +0.000 A 
ENDBRANCH   1  16
BRANCH   5  17
ATOM     17  C   UNL     1       0.554  10.825  21.082  0.00  0.00    +0.000 C 
ATOM     18  O   UNL     1       1.256  10.337  21.962  0.00  0.00    +0.000 OA
ATOM     19  N   UNL     1      -0.616  11.556  21.306  0.00  0.00    +0.000 N 
ATOM     20  C   UNL     1      -0.879  12.019  22.662  0.00  0.00    +0.000 C 
ATOM     21  C   UNL     1      -2.374  12.057  22.969  0.00  0.00    +0.000 C 
ATOM     22  C   UNL     1      -3.148  12.819  21.899  0.00  0.00    +0.000 C 
ATOM     23  C   UNL     1      -2.837  12.269  20.510  0.00  0.00    +0.000 C 
ATOM     24  C   UNL     1      -1.335  12.248  20.239  0.00  0.00    +0.000 C 
ENDBRANCH   5  17
TORSDOF 2
ENDMDL
MODEL 4
REMARK VINA RESULT:      -6.8      1.332      1.856
REMARK  Name = 
REMARK  3 active torsions:
REMARK  status: ('A' for Active; 'I' for Inactive)
REMARK    1  A    between atoms: C_1  and  C_2
REMARK    2  A    between atoms: C_8  and  N_9
REMARK    3  A    between atoms: C_13  and  C_15
REMARK                            x       y       z     vdW  Elec       q    Type
REMARK                         _______ _______ _______ _____ _____    ______ ____
ROOT
ATOM      1  N   UNL     1       2.502   6.723  18.586  0.00  0.00    +0.000 N 
ATOM      2  C   UNL     1       1.878   6.479  19.903  0.00  0.00    +0.000 C 
ATOM      3  C   UNL     1       1.875   7.799  20.693  0.00  0.00    +0.000 C 
ATOM      4  N   UNL     1       1.226   8.872  19.936  0.00  0.00    +0.000 N 
ATOM      5  C   UNL     1       0.214   9.605  20.537  0.00  0.00    +0.000 C 
ATOM      6  O   UNL     1      -0.176   9.440  21.689  0.00  0.00    +0.000 OA
ATOM      7  C   UNL     1       1.724   9.059  18.561  0.00  0.00    +0.000 C 
ATOM      8  C   UNL     1       1.761   7.718  17.782  0.00  0.00    +0.000 C 
ENDROOT
BRANCH   1  16
ATOM      9  C   UNL     1       4.966   7.367  17.097  0.00  0.00    +0.000 C 
ATOM     10  C   UNL     1       4.429   5.971  17.278  0.00  0.00    +0.000 A 
ATOM     11  C   UNL     1       5.209   4.908  16.781  0.00  0.00    +0.000 A 
ATOM     12  C   UNL     1       4.827   3.584  16.979  0.00  0.00    +0.000 A 
ATOM     13  C   UNL     1       3.642   3.315  17.646  0.00  0.00    +0.000 A 
ATOM     14 CL   UNL     1       3.170   1.681  17.916  0.00  0.00    +0.000 Cl
ATOM     15  C   UNL     1       2.845   4.357  18.123  0.00  0.00    +0.000 A 
ATOM     16  C   UNL     1       3.221   5.705  17.970  0.00  0.00    +0.000 A 
ENDBRANCH   1  16
BRANCH   5  17
ATOM     17  C   UNL     1      -0.455  10.709  19.707  0.00  0.00    +0.000 C 
ATOM     18  O   UNL     1      -1.434  10.404  19.033  0.00  0.00    +0.000 OA
ATOM     19  N   UNL     1       0.108  11.986  19.768  0.00  0.00    +0.000 N 
ATOM     20  C   UNL     1      -0.669  13.098  19.234  0.00  0.00    +0.000 C 
ATOM     21  C   UNL     1       0.226  14.176  18.631  0.00  0.00    +0.000 C 
ATOM     22  C   UNL     1       1.323  14.605  19.599  0.00  0.00    +0.000 C 
ATOM     23  C   UNL     1       2.103  13.393  20.103  0.00  0.00    +0.000 C 
ATOM     24  C   UNL     1       1.177  12.338  20.701  0.00  0.00    +0.000 C 
ENDBRANCH   5  17
TORSDOF 2
ENDMDL
MODEL 5
REMARK VINA RESULT:      -6.7      3.302      7.684
REMARK  Name = 
REMARK  3 active torsions:
REMARK  status: ('A' for Active; 'I' for Inactive)
REMARK    1  A    between atoms: C_1  and  C_2
REMARK    2  A    between atoms: C_8  and  N_9
REMARK    3  A    between atoms: C_13  and  C_15
REMARK                            x       y       z     vdW  Elec       q    Type
REMARK                         _______ _______ _______ _____ _____    ______ ____
ROOT
ATOM      1  N   UNL     1       1.555   8.142  19.469  0.00  0.00    +0.000 N 
ATOM      2  C   UNL     1       2.129   7.430  20.629  0.00  0.00    +0.000 C 
ATOM      3  C   UNL     1       1.834   5.928  20.473  0.00  0.00    +0.000 C 
ATOM      4  N   UNL     1       2.316   5.420  19.187  0.00  0.00    +0.000 N 
ATOM      5  C   UNL     1       3.132   4.300  19.166  0.00  0.00    +0.000 C 
ATOM      6  O   UNL     1       3.472   3.667  20.162  0.00  0.00    +0.000 OA
ATOM      7  C   UNL     1       1.880   6.190  18.006  0.00  0.00    +0.000 C 
ATOM      8  C   UNL     1       2.145   7.707  18.185  0.00  0.00    +0.000 C 
ENDROOT
BRANCH   1  16
ATOM      9  C   UNL     1      -0.372   8.740  21.622  0.00  0.00    +0.000 C 
ATOM     10  C   UNL     1       0.183   9.772  20.674  0.00  0.00    +0.000 A 
ATOM     11  C   UNL     1      -0.176  11.117  20.900  0.00  0.00    +0.000 A 
ATOM     12  C   UNL     1       0.358  12.141  20.122  0.00  0.00    +0.000 A 
ATOM     13  C   UNL     1       1.228  11.824  19.091  0.00  0.00    +0.000 A 
ATOM     14 CL   UNL     1       1.912  13.084  18.137  0.00  0.00    +0.000 Cl
ATOM     15  C   UNL     1       1.574  10.495  18.839  0.00  0.00    +0.000 A 
ATOM     16  C   UNL     1       1.080   9.440  19.629  0.00  0.00    +0.000 A 
ENDBRANCH   1  16
BRANCH   5  17
ATOM     17  C   UNL     1       3.632   3.809  17.801  0.00  0.00    +0.000 C 
ATOM     18  O   UNL     1       2.983   2.936  17.233  0.00  0.00    +0.000 OA
ATOM     19  N   UNL     1       4.805   4.384  17.305  0.00  0.00    +0.000 N 
ATOM     20  C   UNL     1       5.134   4.154  15.903  0.00  0.00    +0.000 C 
ATOM     21  C   UNL     1       6.642   4.091  15.677  0.00  0.00    +0.000 C 
ATOM     22  C   UNL     1       7.352   5.297  16.284  0.00  0.00    +0.000 C 
ATOM     23  C   UNL     1       6.974   5.465  17.753  0.00  0.00    +0.000 C 
ATOM     24  C   UNL     1       5.460   5.525  17.940  0.00  0.00    +0.000 C 
ENDBRANCH   5  17
TORSDOF 2
ENDMDL
MODEL 6
REMARK VINA RESULT:      -6.6      3.997      8.199
REMARK  Name = 
REMARK  3 active torsions:
REMARK  status: ('A' for Active; 'I' for Inactive)
REMARK    1  A    between atoms: C_1  and  C_2
REMARK    2  A    between atoms: C_8  and  N_9
REMARK    3  A    between atoms: C_13  and  C_15
REMARK                            x       y       z     vdW  Elec       q    Type
REMARK                         _______ _______ _______ _____ _____    ______ ____
ROOT
ATOM      1  N   UNL     1       1.958   7.591  19.810  0.00  0.00    +0.000 N 
ATOM      2  C   UNL     1       1.800   6.321  20.549  0.00  0.00    +0.000 C 
ATOM      3  C   UNL     1       2.142   5.159  19.600  0.00  0.00    +0.000 C 
ATOM      4  N   UNL     1       3.473   5.325  19.012  0.00  0.00    +0.000 N 
ATOM      5  C   UNL     1       4.381   4.281  19.094  0.00  0.00    +0.000 C 
ATOM      6  O   UNL     1       4.147   3.192  19.610  0.00  0.00    +0.000 OA
ATOM      7  C   UNL     1       3.723   6.636  18.385  0.00  0.00    +0.000 C 
ATOM      8  C   UNL     1       3.341   7.803  19.332  0.00  0.00    +0.000 C 
ENDROOT
BRANCH   1  16
ATOM      9  C   UNL     1       0.987   9.365  17.662  0.00  0.00    +0.000 C 
ATOM     10  C   UNL     1       0.625   9.523  19.117  0.00  0.00    +0.000 A 
ATOM     11  C   UNL     1      -0.308  10.526  19.446  0.00  0.00    +0.000 A 
ATOM     12  C   UNL     1      -0.759  10.685  20.754  0.00  0.00    +0.000 A 
ATOM     13  C   UNL     1      -0.251   9.863  21.748  0.00  0.00    +0.000 A 
ATOM     14 CL   UNL     1      -0.817  10.036  23.366  0.00  0.00    +0.000 Cl
ATOM     15  C   UNL     1       0.692   8.881  21.443  0.00  0.00    +0.000 A 
ATOM     16  C   UNL     1       1.141   8.671  20.125  0.00  0.00    +0.000 A 
ENDBRANCH   1  16
BRANCH   5  17
ATOM     17  C   UNL     1       5.773   4.498  18.483  0.00  0.00    +0.000 C 
ATOM     18  O   UNL     1       6.692   4.789  19.242  0.00  0.00    +0.000 OA
ATOM     19  N   UNL     1       5.892   4.358  17.098  0.00  0.00    +0.000 N 
ATOM     20  C   UNL     1       7.235   4.268  16.537  0.00  0.00    +0.000 C 
ATOM     21  C   UNL     1       7.313   4.897  15.149  0.00  0.00    +0.000 C 
ATOM     22  C   UNL     1       6.225   4.360  14.226  0.00  0.00    +0.000 C 
ATOM     23  C   UNL     1       4.848   4.502  14.870  0.00  0.00    +0.000 C 
ATOM     24  C   UNL     1       4.808   3.861  16.254  0.00  0.00    +0.000 C 
ENDBRANCH   5  17
TORSDOF 2
ENDMDL
MODEL 7
REMARK VINA RESULT:      -6.6      1.633      2.537
REMARK  Name = 
REMARK  3 active torsions:
REMARK  status: ('A' for Active; 'I' for Inactive)
REMARK    1  A    between atoms: C_1  and  C_2
REMARK    2  A    between atoms: C_8  and  N_9
REMARK    3  A    between atoms: C_13  and  C_15
REMARK                            x       y       z     vdW  Elec       q    Type
REMARK                         _______ _______ _______ _____ _____    ______ ____
ROOT
ATOM      1  N   UNL     1       2.650   7.239  18.643  0.00  0.00    +0.000 N 
ATOM      2  C   UNL     1       1.829   6.925  19.830  0.00  0.00    +0.000 C 
ATOM      3  C   UNL     1       1.685   8.203  20.675  0.00  0.00    +0.000 C 
ATOM      4  N   UNL     1       1.151   9.311  19.879  0.00  0.00    +0.000 N 
ATOM      5  C   UNL     1       0.049  10.008  20.347  0.00  0.00    +0.000 C 
ATOM      6  O   UNL     1      -0.517   9.784  21.413  0.00  0.00    +0.000 OA
ATOM      7  C   UNL     1       1.858   9.569  18.610  0.00  0.00    +0.000 C 
ATOM      8  C   UNL     1       2.034   8.271  17.781  0.00  0.00    +0.000 C 
ENDROOT
BRANCH   1  16
ATOM      9  C   UNL     1       1.509   4.615  17.920  0.00  0.00    +0.000 C 
ATOM     10  C   UNL     1       2.951   4.998  17.706  0.00  0.00    +0.000 A 
ATOM     11  C   UNL     1       3.773   4.071  17.032  0.00  0.00    +0.000 A 
ATOM     12  C   UNL     1       5.094   4.379  16.720  0.00  0.00    +0.000 A 
ATOM     13  C   UNL     1       5.613   5.603  17.110  0.00  0.00    +0.000 A 
ATOM     14 CL   UNL     1       7.240   6.004  16.711  0.00  0.00    +0.000 Cl
ATOM     15  C   UNL     1       4.820   6.523  17.800  0.00  0.00    +0.000 A 
ATOM     16  C   UNL     1       3.470   6.256  18.099  0.00  0.00    +0.000 A 
ENDBRANCH   1  16
BRANCH   5  17
ATOM     17  C   UNL     1      -0.494  11.150  19.477  0.00  0.00    +0.000 C 
ATOM     18  O   UNL     1      -0.054  12.279  19.675  0.00  0.00    +0.000 OA
ATOM     19  N   UNL     1      -1.463  10.825  18.525  0.00  0.00    +0.000 N 
ATOM     20  C   UNL     1      -1.773  11.818  17.504  0.00  0.00    +0.000 C 
ATOM     21  C   UNL     1      -3.237  11.756  17.079  0.00  0.00    +0.000 C 
ATOM     22  C   UNL     1      -3.655  10.339  16.702  0.00  0.00    +0.000 C 
ATOM     23  C   UNL     1      -3.316   9.359  17.823  0.00  0.00    +0.000 C 
ATOM     24  C   UNL     1      -1.845   9.448  18.219  0.00  0.00    +0.000 C 
ENDBRANCH   5  17
TORSDOF 2
ENDMDL
MODEL 8
REMARK VINA RESULT:      -6.6      1.864      2.835
REMARK  Name = 
REMARK  3 active torsions:
REMARK  status: ('A' for Active; 'I' for Inactive)
REMARK    1  A    between atoms: C_1  and  C_2
REMARK    2  A    between atoms: C_8  and  N_9
REMARK    3  A    between atoms: C_13  and  C_15
REMARK                            x       y       z     vdW  Elec       q    Type
REMARK                         _______ _______ _______ _____ _____    ______ ____
ROOT
ATOM      1  N   UNL     1       2.308   7.184  18.790  0.00  0.00    +0.000 N 
ATOM      2  C   UNL     1       2.707   8.276  17.878  0.00  0.00    +0.000 C 
ATOM      3  C   UNL     1       1.538   9.270  17.767  0.00  0.00    +0.000 C 
ATOM      4  N   UNL     1       1.114   9.744  19.087  0.00  0.00    +0.000 N 
ATOM      5  C   UNL     1       1.016  11.108  19.313  0.00  0.00    +0.000 C 
ATOM      6  O   UNL     1       1.236  11.973  18.470  0.00  0.00    +0.000 OA
ATOM      7  C   UNL     1       0.840   8.685  20.076  0.00  0.00    +0.000 C 
ATOM      8  C   UNL     1       2.006   7.665  20.156  0.00  0.00    +0.000 C 
ENDROOT
BRANCH   1  16
ATOM      9  C   UNL     1       1.218   4.921  20.339  0.00  0.00    +0.000 C 
ATOM     10  C   UNL     1       2.282   4.786  19.281  0.00  0.00    +0.000 A 
ATOM     11  C   UNL     1       2.708   3.483  18.954  0.00  0.00    +0.000 A 
ATOM     12  C   UNL     1       3.627   3.264  17.932  0.00  0.00    +0.000 A 
ATOM     13  C   UNL     1       4.153   4.351  17.251  0.00  0.00    +0.000 A 
ATOM     14 CL   UNL     1       5.274   4.091  15.969  0.00  0.00    +0.000 Cl
ATOM     15  C   UNL     1       3.760   5.650  17.578  0.00  0.00    +0.000 A 
ATOM     16  C   UNL     1       2.806   5.903  18.583  0.00  0.00    +0.000 A 
ENDBRANCH   1  16
BRANCH   5  17
ATOM     17  C   UNL     1       0.586  11.568  20.713  0.00  0.00    +0.000 C 
ATOM     18  O   UNL     1       1.367  11.382  21.641  0.00  0.00    +0.000 OA
ATOM     19  N   UNL     1      -0.674  12.158  20.834  0.00  0.00    +0.000 N 
ATOM     20  C   UNL     1      -0.980  12.861  22.075  0.00  0.00    +0.000 C 
ATOM     21  C   UNL     1      -2.458  12.754  22.437  0.00  0.00    +0.000 C 
ATOM     22  C   UNL     1      -3.354  13.153  21.270  0.00  0.00    +0.000 C 
ATOM     23  C   UNL     1      -2.989  12.368  20.013  0.00  0.00    +0.000 C 
ATOM     24  C   UNL     1      -1.505  12.499  19.681  0.00  0.00    +0.000 C 
ENDBRANCH   5  17
TORSDOF 2
ENDMDL
MODEL 9
REMARK VINA RESULT:      -6.5      2.510      3.528
REMARK  Name = 
REMARK  3 active torsions:
REMARK  status: ('A' for Active; 'I' for Inactive)
REMARK    1  A    between atoms: C_1  and  C_2
REMARK    2  A    between atoms: C_8  and  N_9
REMARK    3  A    between atoms: C_13  and  C_15
REMARK                            x       y       z     vdW  Elec       q    Type
REMARK                         _______ _______ _______ _____ _____    ______ ____
ROOT
ATOM      1  N   UNL     1       2.063   7.335  19.284  0.00  0.00    +0.000 N 
ATOM      2  C   UNL     1       2.706   8.210  18.282  0.00  0.00    +0.000 C 
ATOM      3  C   UNL     1       1.712   9.319  17.894  0.00  0.00    +0.000 C 
ATOM      4  N   UNL     1       1.237  10.045  19.074  0.00  0.00    +0.000 N 
ATOM      5  C   UNL     1       1.319  11.428  19.094  0.00  0.00    +0.000 C 
ATOM      6  O   UNL     1       1.746  12.114  18.170  0.00  0.00    +0.000 OA
ATOM      7  C   UNL     1       0.714   9.198  20.163  0.00  0.00    +0.000 C 
ATOM      8  C   UNL     1       1.703   8.059  20.523  0.00  0.00    +0.000 C 
ENDROOT
BRANCH   1  16
ATOM      9  C   UNL     1       4.152   6.281  17.487  0.00  0.00    +0.000 C 
ATOM     10  C   UNL     1       3.408   5.447  18.498  0.00  0.00    +0.000 A 
ATOM     11  C   UNL     1       3.808   4.104  18.650  0.00  0.00    +0.000 A 
ATOM     12  C   UNL     1       3.229   3.289  19.618  0.00  0.00    +0.000 A 
ATOM     13  C   UNL     1       2.220   3.801  20.418  0.00  0.00    +0.000 A 
ATOM     14 CL   UNL     1       1.511   2.808  21.634  0.00  0.00    +0.000 Cl
ATOM     15  C   UNL     1       1.795   5.122  20.264  0.00  0.00    +0.000 A 
ATOM     16  C   UNL     1       2.385   5.983  19.319  0.00  0.00    +0.000 A 
ENDBRANCH   1  16
BRANCH   5  17
ATOM     17  C   UNL     1       0.828  12.153  20.354  0.00  0.00    +0.000 C 
ATOM     18  O   UNL     1       1.630  12.321  21.267  0.00  0.00    +0.000 OA
ATOM     19  N   UNL     1      -0.508  12.562  20.378  0.00  0.00    +0.000 N 
ATOM     20  C   UNL     1      -0.915  13.497  21.420  0.00  0.00    +0.000 C 
ATOM     21  C   UNL     1      -2.358  13.266  21.857  0.00  0.00    +0.000 C 
ATOM     22  C   UNL     1      -3.308  13.226  20.665  0.00  0.00    +0.000 C 
ATOM     23  C   UNL     1      -2.830  12.215  19.625  0.00  0.00    +0.000 C 
ATOM     24  C   UNL     1      -1.385  12.479  19.211  0.00  0.00    +0.000 C 
ENDBRANCH   5  17
TORSDOF 2
ENDMDL
