MODEL 1
REMARK VINA RESULT:      -8.2      0.000      0.000
REMARK  Name = 
REMARK  7 active torsions:
REMARK  status: ('A' for Active; 'I' for Inactive)
REMARK    1  A    between atoms: C_1  and  C_2
REMARK    2  A    between atoms: C_2  and  O_3
REMARK    3  A    between atoms: O_3  and  C_4
REMARK    4  A    between atoms: C_4  and  C_6
REMARK    5  A    between atoms: C_9  and  N_10
REMARK    6  A    between atoms: C_11  and  C_13
REMARK    7  A    between atoms: C_16  and  O_17
REMARK                            x       y       z     vdW  Elec       q    Type
REMARK                         _______ _______ _______ _____ _____    ______ ____
ROOT
ATOM      1  N   UNL     1       1.691   7.841  20.457  0.00  0.00    +0.000 N 
ATOM      2  C   UNL     1       2.271   7.634  19.163  0.00  0.00    +0.000 C 
ATOM      3  O   UNL     1       2.329   8.449  18.267  0.00  0.00    +0.000 OA
ATOM      4  H   UNL     1       1.778   7.028  21.062  0.00  0.00    +0.000 HD
ENDROOT
BRANCH   2   5
ATOM      5  C   UNL     1       2.880   6.208  19.017  0.00  0.00    +0.000 A 
ATOM      6  N   UNL     1       4.109   6.341  18.442  0.00  0.00    +0.000 NA
ATOM      7  N   UNL     1       4.906   5.282  18.328  0.00  0.00    +0.000 NA
ATOM      8  C   UNL     1       4.367   4.068  18.474  0.00  0.00    +0.000 A 
ATOM      9  C   UNL     1       3.020   3.860  18.660  0.00  0.00    +0.000 A 
ATOM     10  C   UNL     1       2.531   2.537  18.496  0.00  0.00    +0.000 A 
ATOM     11  C   UNL     1       1.566   2.059  19.351  0.00  0.00    +0.000 A 
ATOM     12  C   UNL     1       1.108   2.918  20.335  0.00  0.00    +0.000 A 
ATOM     13  C   UNL     1       1.403   4.321  20.282  0.00  0.00    +0.000 A 
ATOM     14  C   UNL     1       2.352   4.880  19.339  0.00  0.00    +0.000 A 
BRANCH   8  15
ATOM     15  O   UNL     1       5.131   3.285  19.345  0.00  0.00    +0.000 OA
ATOM     16  H   UNL     1       5.983   3.277  18.862  0.00  0.00    +0.000 HD
ENDBRANCH   8  15
ENDBRANCH   2   5
BRANCH   1  20
ATOM     17  C   UNL     1      -0.524  11.039  22.377  0.00  0.00    +0.000 A 
ATOM     18  C   UNL     1       0.072  11.216  21.103  0.00  0.00    +0.000 A 
ATOM     19  C   UNL     1       0.820  10.193  20.460  0.00  0.00    +0.000 A 
ATOM     20  C   UNL     1       1.001   8.947  21.055  0.00  0.00    +0.000 A 
ATOM     21  C   UNL     1       0.430   8.779  22.341  0.00  0.00    +0.000 A 
ATOM     22  C   UNL     1      -0.323   9.801  22.994  0.00  0.00    +0.000 A 
BRANCH  17  23
ATOM     23  C   UNL     1      -1.347  12.164  22.972  0.00  0.00    +0.000 C 
ATOM     24  O   UNL     1      -0.921  13.311  23.059  0.00  0.00    +0.000 OA
BRANCH  23  25
ATOM     25  O   UNL     1      -2.601  11.779  23.346  0.00  0.00    +0.000 OA
BRANCH  25  27
ATOM     26  C   UNL     1      -4.606  12.330  24.709  0.00  0.00    +0.000 C 
ATOM     27  C   UNL     1      -3.516  12.825  23.768  0.00  0.00    +0.000 C 
ENDBRANCH  25  27
ENDBRANCH  23  25
ENDBRANCH  17  23
ENDBRANCH   1  20
TORSDOF 6
ENDMDL
MODEL 2
REMARK VINA RESULT:      -8.1      0.988      1.235
REMARK  Name = 
REMARK  7 active torsions:
REMARK  status: ('A' for Active; 'I' for Inactive)
REMARK    1  A    between atoms: C_1  and  C_2
REMARK    2  A    between atoms: C_2  and  O_3
REMARK    3  A    between atoms: O_3  and  C_4
REMARK    4  A    between atoms: C_4  and  C_6
REMARK    5  A    between atoms: C_9  and  N_10
REMARK    6  A    between atoms: C_11  and  C_13
REMARK    7  A    between atoms: C_16  and  O_17
REMARK                            x       y       z     vdW  Elec       q    Type
REMARK                         _______ _______ _______ _____ _____    ______ ____
ROOT
ATOM      1  N   UNL     1       1.733   7.749  20.181  0.00  0.00    +0.000 N 
ATOM      2  C   UNL     1       2.314   7.581  18.882  0.00  0.00    +0.000 C 
ATOM      3  O   UNL     1       2.377   8.422  18.012  0.00  0.00    +0.000 OA
ATOM      4  H   UNL     1       1.815   6.917  20.760  0.00  0.00    +0.000 HD
ENDROOT
BRANCH   2   5
ATOM      5  C   UNL     1       2.918   6.157  18.693  0.00  0.00    +0.000 A 
ATOM      6  N   UNL     1       4.146   6.303  18.118  0.00  0.00    +0.000 NA
ATOM      7  N   UNL     1       4.938   5.246  17.971  0.00  0.00    +0.000 NA
ATOM      8  C   UNL     1       4.396   4.029  18.083  0.00  0.00    +0.000 A 
ATOM      9  C   UNL     1       3.048   3.820  18.266  0.00  0.00    +0.000 A 
ATOM     10  C   UNL     1       2.555   2.505  18.065  0.00  0.00    +0.000 A 
ATOM     11  C   UNL     1       1.591   2.004  18.908  0.00  0.00    +0.000 A 
ATOM     12  C   UNL     1       1.139   2.835  19.919  0.00  0.00    +0.000 A 
ATOM     13  C   UNL     1       1.438   4.239  19.906  0.00  0.00    +0.000 A 
ATOM     14  C   UNL     1       2.386   4.822  18.977  0.00  0.00    +0.000 A 
BRANCH   8  15
ATOM     15  O   UNL     1       5.160   3.218  18.927  0.00  0.00    +0.000 OA
ATOM     16  H   UNL     1       4.519   2.496  19.094  0.00  0.00    +0.000 HD
ENDBRANCH   8  15
ENDBRANCH   2   5
BRANCH   1  20
ATOM     17  C   UNL     1      -0.430  10.897  22.238  0.00  0.00    +0.000 A 
ATOM     18  C   UNL     1      -0.118  10.996  20.858  0.00  0.00    +0.000 A 
ATOM     19  C   UNL     1       0.607   9.989  20.164  0.00  0.00    +0.000 A 
ATOM     20  C   UNL     1       1.046   8.839  20.813  0.00  0.00    +0.000 A 
ATOM     21  C   UNL     1       0.759   8.752  22.197  0.00  0.00    +0.000 A 
ATOM     22  C   UNL     1       0.032   9.758  22.902  0.00  0.00    +0.000 A 
BRANCH  17  23
ATOM     23  C   UNL     1      -1.249  11.993  22.891  0.00  0.00    +0.000 C 
ATOM     24  O   UNL     1      -2.463  11.899  23.044  0.00  0.00    +0.000 OA
BRANCH  23  25
ATOM     25  O   UNL     1      -0.498  13.046  23.324  0.00  0.00    +0.000 OA
BRANCH  25  27
ATOM     26  C   UNL     1      -1.473  14.934  24.613  0.00  0.00    +0.000 C 
ATOM     27  C   UNL     1      -1.103  14.364  23.250  0.00  0.00    +0.000 C 
ENDBRANCH  25  27
ENDBRANCH  23  25
ENDBRANCH  17  23
ENDBRANCH   1  20
TORSDOF 6
ENDMDL
MODEL 3
REMARK VINA RESULT:      -8.0      0.589      1.072
REMARK  Name = 
REMARK  7 active torsions:
REMARK  status: ('A' for Active; 'I' for Inactive)
REMARK    1  A    between atoms: C_1  and  C_2
REMARK    2  A    between atoms: C_2  and  O_3
REMARK    3  A    between atoms: O_3  and  C_4
REMARK    4  A    between atoms: C_4  and  C_6
REMARK    5  A    between atoms: C_9  and  N_10
REMARK    6  A    between atoms: C_11  and  C_13
REMARK    7  A    between atoms: C_16  and  O_17
REMARK                            x       y       z     vdW  Elec       q    Type
REMARK                         _______ _______ _______ _____ _____    ______ ____
ROOT
ATOM      1  N   UNL     1       1.457   7.827  20.149  0.00  0.00    +0.000 N 
ATOM      2  C   UNL     1       2.189   7.844  18.918  0.00  0.00    +0.000 C 
ATOM      3  O   UNL     1       2.389   8.814  18.218  0.00  0.00    +0.000 OA
ATOM      4  H   UNL     1       1.438   6.907  20.583  0.00  0.00    +0.000 HD
ENDROOT
BRANCH   2   5
ATOM      5  C   UNL     1       2.765   6.441  18.561  0.00  0.00    +0.000 A 
ATOM      6  N   UNL     1       3.908   6.635  17.844  0.00  0.00    +0.000 NA
ATOM      7  N   UNL     1       4.676   5.596  17.528  0.00  0.00    +0.000 NA
ATOM      8  C   UNL     1       4.153   4.370  17.630  0.00  0.00    +0.000 A 
ATOM      9  C   UNL     1       2.841   4.137  17.971  0.00  0.00    +0.000 A 
ATOM     10  C   UNL     1       2.327   2.833  17.750  0.00  0.00    +0.000 A 
ATOM     11  C   UNL     1       1.480   2.271  18.676  0.00  0.00    +0.000 A 
ATOM     12  C   UNL     1       1.161   3.032  19.788  0.00  0.00    +0.000 A 
ATOM     13  C   UNL     1       1.455   4.436  19.827  0.00  0.00    +0.000 A 
ATOM     14  C   UNL     1       2.275   5.086  18.824  0.00  0.00    +0.000 A 
BRANCH   8  15
ATOM     15  O   UNL     1       5.020   3.514  18.315  0.00  0.00    +0.000 OA
ATOM     16  H   UNL     1       4.426   3.207  19.030  0.00  0.00    +0.000 HD
ENDBRANCH   8  15
ENDBRANCH   2   5
BRANCH   1  20
ATOM     17  C   UNL     1      -0.702  11.006  22.162  0.00  0.00    +0.000 A 
ATOM     18  C   UNL     1      -0.023   9.998  22.892  0.00  0.00    +0.000 A 
ATOM     19  C   UNL     1       0.675   8.934  22.259  0.00  0.00    +0.000 A 
ATOM     20  C   UNL     1       0.732   8.832  20.872  0.00  0.00    +0.000 A 
ATOM     21  C   UNL     1       0.030   9.822  20.142  0.00  0.00    +0.000 A 
ATOM     22  C   UNL     1      -0.674  10.894  20.769  0.00  0.00    +0.000 A 
BRANCH  17  23
ATOM     23  C   UNL     1      -1.381  12.134  22.913  0.00  0.00    +0.000 C 
ATOM     24  O   UNL     1      -0.900  13.261  22.977  0.00  0.00    +0.000 OA
BRANCH  23  25
ATOM     25  O   UNL     1      -2.581  11.778  23.456  0.00  0.00    +0.000 OA
BRANCH  25  27
ATOM     26  C   UNL     1      -4.621  12.355  24.755  0.00  0.00    +0.000 C 
ATOM     27  C   UNL     1      -3.432  12.850  23.941  0.00  0.00    +0.000 C 
ENDBRANCH  25  27
ENDBRANCH  23  25
ENDBRANCH  17  23
ENDBRANCH   1  20
TORSDOF 6
ENDMDL
MODEL 4
REMARK VINA RESULT:      -7.9      7.498      8.794
REMARK  Name = 
REMARK  7 active torsions:
REMARK  status: ('A' for Active; 'I' for Inactive)
REMARK    1  A    between atoms: C_1  and  C_2
REMARK    2  A    between atoms: C_2  and  O_3
REMARK    3  A    between atoms: O_3  and  C_4
REMARK    4  A    between atoms: C_4  and  C_6
REMARK    5  A    between atoms: C_9  and  N_10
REMARK    6  A    between atoms: C_11  and  C_13
REMARK    7  A    between atoms: C_16  and  O_17
REMARK                            x       y       z     vdW  Elec       q    Type
REMARK                         _______ _______ _______ _____ _____    ______ ____
ROOT
ATOM      1  N   UNL     1       7.843   8.426  17.719  0.00  0.00    +0.000 N 
ATOM      2  C   UNL     1       7.883   7.087  18.229  0.00  0.00    +0.000 C 
ATOM      3  O   UNL     1       8.427   6.726  19.250  0.00  0.00    +0.000 OA
ATOM      4  H   UNL     1       7.306   8.504  16.858  0.00  0.00    +0.000 HD
ENDROOT
BRANCH   2   5
ATOM      5  C   UNL     1       7.093   6.094  17.324  0.00  0.00    +0.000 A 
ATOM      6  N   UNL     1       7.555   6.239  16.050  0.00  0.00    +0.000 NA
ATOM      7  N   UNL     1       7.143   5.409  15.097  0.00  0.00    +0.000 NA
ATOM      8  C   UNL     1       6.052   4.672  15.330  0.00  0.00    +0.000 A 
ATOM      9  C   UNL     1       5.296   4.787  16.474  0.00  0.00    +0.000 A 
ATOM     10  C   UNL     1       4.011   4.186  16.474  0.00  0.00    +0.000 A 
ATOM     11  C   UNL     1       3.561   3.545  17.605  0.00  0.00    +0.000 A 
ATOM     12  C   UNL     1       4.401   3.534  18.704  0.00  0.00    +0.000 A 
ATOM     13  C   UNL     1       5.547   4.397  18.763  0.00  0.00    +0.000 A 
ATOM     14  C   UNL     1       6.006   5.157  17.617  0.00  0.00    +0.000 A 
BRANCH   8  15
ATOM     15  O   UNL     1       6.275   3.332  14.997  0.00  0.00    +0.000 OA
ATOM     16  H   UNL     1       5.532   2.912  15.478  0.00  0.00    +0.000 HD
ENDBRANCH   8  15
ENDBRANCH   2   5
BRANCH   1  20
ATOM     17  C   UNL     1       9.584  12.235  18.852  0.00  0.00    +0.000 A 
ATOM     18  C   UNL     1       9.886  11.045  19.562  0.00  0.00    +0.000 A 
ATOM     19  C   UNL     1       9.315   9.788  19.225  0.00  0.00    +0.000 A 
ATOM     20  C   UNL     1       8.424   9.660  18.163  0.00  0.00    +0.000 A 
ATOM     21  C   UNL     1       8.099  10.853  17.471  0.00  0.00    +0.000 A 
ATOM     22  C   UNL     1       8.668  12.120  17.802  0.00  0.00    +0.000 A 
BRANCH  17  23
ATOM     23  C   UNL     1      10.273  13.526  19.244  0.00  0.00    +0.000 C 
ATOM     24  O   UNL     1       9.713  14.391  19.910  0.00  0.00    +0.000 OA
BRANCH  23  25
ATOM     25  O   UNL     1      11.570  13.596  18.827  0.00  0.00    +0.000 OA
BRANCH  25  27
ATOM     26  C   UNL     1      11.257  15.214  16.965  0.00  0.00    +0.000 C 
ATOM     27  C   UNL     1      11.797  13.864  17.417  0.00  0.00    +0.000 C 
ENDBRANCH  25  27
ENDBRANCH  23  25
ENDBRANCH  17  23
ENDBRANCH   1  20
TORSDOF 6
ENDMDL
MODEL 5
REMARK VINA RESULT:      -7.9      7.556     11.292
REMARK  Name = 
REMARK  7 active torsions:
REMARK  status: ('A' for Active; 'I' for Inactive)
REMARK    1  A    between atoms: C_1  and  C_2
REMARK    2  A    between atoms: C_2  and  O_3
REMARK    3  A    between atoms: O_3  and  C_4
REMARK    4  A    between atoms: C_4  and  C_6
REMARK    5  A    between atoms: C_9  and  N_10
REMARK    6  A    between atoms: C_11  and  C_13
REMARK    7  A    between atoms: C_16  and  O_17
REMARK                            x       y       z     vdW  Elec       q    Type
REMARK                         _______ _______ _______ _____ _____    ______ ____
ROOT
ATOM      1  N   UNL     1       8.560   9.590  17.852  0.00  0.00    +0.000 N 
ATOM      2  C   UNL     1       9.151  10.434  18.848  0.00  0.00    +0.000 C 
ATOM      3  O   UNL     1       9.283  10.171  20.024  0.00  0.00    +0.000 OA
ATOM      4  H   UNL     1       8.579  10.004  16.923  0.00  0.00    +0.000 HD
ENDROOT
BRANCH   2   5
ATOM      5  C   UNL     1       9.668  11.776  18.244  0.00  0.00    +0.000 A 
ATOM      6  N   UNL     1      10.985  11.609  17.937  0.00  0.00    +0.000 NA
ATOM      7  N   UNL     1      11.637  12.563  17.279  0.00  0.00    +0.000 NA
ATOM      8  C   UNL     1      11.089  13.780  17.225  0.00  0.00    +0.000 A 
ATOM      9  C   UNL     1       9.926  14.112  17.879  0.00  0.00    +0.000 A 
ATOM     10  C   UNL     1       9.610  15.490  18.000  0.00  0.00    +0.000 A 
ATOM     11  C   UNL     1       8.307  15.904  17.854  0.00  0.00    +0.000 A 
ATOM     12  C   UNL     1       7.356  14.930  17.605  0.00  0.00    +0.000 A 
ATOM     13  C   UNL     1       7.663  13.539  17.787  0.00  0.00    +0.000 A 
ATOM     14  C   UNL     1       9.013  13.067  18.027  0.00  0.00    +0.000 A 
BRANCH   8  15
ATOM     15  O   UNL     1      11.100  14.275  15.917  0.00  0.00    +0.000 OA
ATOM     16  H   UNL     1      10.822  15.199  16.082  0.00  0.00    +0.000 HD
ENDBRANCH   8  15
ENDBRANCH   2   5
BRANCH   1  20
ATOM     17  C   UNL     1       6.464   5.794  17.985  0.00  0.00    +0.000 A 
ATOM     18  C   UNL     1       7.669   5.998  18.705  0.00  0.00    +0.000 A 
ATOM     19  C   UNL     1       8.387   7.224  18.663  0.00  0.00    +0.000 A 
ATOM     20  C   UNL     1       7.932   8.302  17.909  0.00  0.00    +0.000 A 
ATOM     21  C   UNL     1       6.744   8.090  17.167  0.00  0.00    +0.000 A 
ATOM     22  C   UNL     1       6.017   6.862  17.202  0.00  0.00    +0.000 A 
BRANCH  17  23
ATOM     23  C   UNL     1       5.735   4.473  18.122  0.00  0.00    +0.000 C 
ATOM     24  O   UNL     1       5.579   3.920  19.206  0.00  0.00    +0.000 OA
BRANCH  23  25
ATOM     25  O   UNL     1       5.240   4.002  16.940  0.00  0.00    +0.000 OA
BRANCH  25  27
ATOM     26  C   UNL     1       5.633   4.369  14.513  0.00  0.00    +0.000 C 
ATOM     27  C   UNL     1       6.178   3.860  15.841  0.00  0.00    +0.000 C 
ENDBRANCH  25  27
ENDBRANCH  23  25
ENDBRANCH  17  23
ENDBRANCH   1  20
TORSDOF 6
ENDMDL
MODEL 6
REMARK VINA RESULT:      -7.8      7.454      8.243
REMARK  Name = 
REMARK  7 active torsions:
REMARK  status: ('A' for Active; 'I' for Inactive)
REMARK    1  A    between atoms: C_1  and  C_2
REMARK    2  A    between atoms: C_2  and  O_3
REMARK    3  A    between atoms: O_3  and  C_4
REMARK    4  A    between atoms: C_4  and  C_6
REMARK    5  A    between atoms: C_9  and  N_10
REMARK    6  A    between atoms: C_11  and  C_13
REMARK    7  A    between atoms: C_16  and  O_17
REMARK                            x       y       z     vdW  Elec       q    Type
REMARK                         _______ _______ _______ _____ _____    ______ ____
ROOT
ATOM      1  N   UNL     1       7.873   8.387  17.731  0.00  0.00    +0.000 N 
ATOM      2  C   UNL     1       7.885   7.046  18.235  0.00  0.00    +0.000 C 
ATOM      3  O   UNL     1       8.405   6.672  19.264  0.00  0.00    +0.000 OA
ATOM      4  H   UNL     1       7.354   8.477  16.861  0.00  0.00    +0.000 HD
ENDROOT
BRANCH   2   5
ATOM      5  C   UNL     1       7.098   6.068  17.310  0.00  0.00    +0.000 A 
ATOM      6  N   UNL     1       7.570   6.231  16.041  0.00  0.00    +0.000 NA
ATOM      7  N   UNL     1       7.162   5.415  15.074  0.00  0.00    +0.000 NA
ATOM      8  C   UNL     1       6.068   4.679  15.288  0.00  0.00    +0.000 A 
ATOM      9  C   UNL     1       5.303   4.780  16.428  0.00  0.00    +0.000 A 
ATOM     10  C   UNL     1       4.016   4.183  16.410  0.00  0.00    +0.000 A 
ATOM     11  C   UNL     1       3.556   3.527  17.528  0.00  0.00    +0.000 A 
ATOM     12  C   UNL     1       4.389   3.497  18.633  0.00  0.00    +0.000 A 
ATOM     13  C   UNL     1       5.536   4.356  18.713  0.00  0.00    +0.000 A 
ATOM     14  C   UNL     1       6.006   5.131  17.581  0.00  0.00    +0.000 A 
BRANCH   8  15
ATOM     15  O   UNL     1       6.288   3.343  14.937  0.00  0.00    +0.000 OA
ATOM     16  H   UNL     1       6.967   3.461  14.241  0.00  0.00    +0.000 HD
ENDBRANCH   8  15
ENDBRANCH   2   5
BRANCH   1  20
ATOM     17  C   UNL     1       9.644  12.166  18.917  0.00  0.00    +0.000 A 
ATOM     18  C   UNL     1       9.919  10.968  19.624  0.00  0.00    +0.000 A 
ATOM     19  C   UNL     1       9.337   9.720  19.270  0.00  0.00    +0.000 A 
ATOM     20  C   UNL     1       8.462   9.611  18.193  0.00  0.00    +0.000 A 
ATOM     21  C   UNL     1       8.165  10.813  17.504  0.00  0.00    +0.000 A 
ATOM     22  C   UNL     1       8.744  12.070  17.852  0.00  0.00    +0.000 A 
BRANCH  17  23
ATOM     23  C   UNL     1      10.344  13.446  19.330  0.00  0.00    +0.000 C 
ATOM     24  O   UNL     1      10.641  14.319  18.521  0.00  0.00    +0.000 OA
BRANCH  23  25
ATOM     25  O   UNL     1      10.558  13.537  20.674  0.00  0.00    +0.000 OA
BRANCH  25  27
ATOM     26  C   UNL     1       8.949  13.116  22.521  0.00  0.00    +0.000 C 
ATOM     27  C   UNL     1       9.484  14.090  21.479  0.00  0.00    +0.000 C 
ENDBRANCH  25  27
ENDBRANCH  23  25
ENDBRANCH  17  23
ENDBRANCH   1  20
TORSDOF 6
ENDMDL
MODEL 7
REMARK VINA RESULT:      -7.8      3.095      9.128
REMARK  Name = 
REMARK  7 active torsions:
REMARK  status: ('A' for Active; 'I' for Inactive)
REMARK    1  A    between atoms: C_1  and  C_2
REMARK    2  A    between atoms: C_2  and  O_3
REMARK    3  A    between atoms: O_3  and  C_4
REMARK    4  A    between atoms: C_4  and  C_6
REMARK    5  A    between atoms: C_9  and  N_10
REMARK    6  A    between atoms: C_11  and  C_13
REMARK    7  A    between atoms: C_16  and  O_17
REMARK                            x       y       z     vdW  Elec       q    Type
REMARK                         _______ _______ _______ _____ _____    ______ ____
ROOT
ATOM      1  N   UNL     1       1.543   8.686  18.917  0.00  0.00    +0.000 N 
ATOM      2  C   UNL     1       0.914   9.202  20.097  0.00  0.00    +0.000 C 
ATOM      3  O   UNL     1       1.090   8.811  21.231  0.00  0.00    +0.000 OA
ATOM      4  H   UNL     1       1.267   9.184  18.074  0.00  0.00    +0.000 HD
ENDROOT
BRANCH   2   5
ATOM      5  C   UNL     1      -0.037  10.394  19.778  0.00  0.00    +0.000 A 
ATOM      6  N   UNL     1       0.250  11.398  20.655  0.00  0.00    +0.000 NA
ATOM      7  N   UNL     1      -0.327  12.587  20.513  0.00  0.00    +0.000 NA
ATOM      8  C   UNL     1      -1.407  12.675  19.731  0.00  0.00    +0.000 A 
ATOM      9  C   UNL     1      -1.992  11.586  19.129  0.00  0.00    +0.000 A 
ATOM     10  C   UNL     1      -3.290  11.756  18.582  0.00  0.00    +0.000 A 
ATOM     11  C   UNL     1      -3.607  11.157  17.385  0.00  0.00    +0.000 A 
ATOM     12  C   UNL     1      -2.624  10.397  16.776  0.00  0.00    +0.000 A 
ATOM     13  C   UNL     1      -1.444  10.008  17.495  0.00  0.00    +0.000 A 
ATOM     14  C   UNL     1      -1.114  10.552  18.798  0.00  0.00    +0.000 A 
BRANCH   8  15
ATOM     15  O   UNL     1      -1.293  13.751  18.844  0.00  0.00    +0.000 OA
ATOM     16  H   UNL     1      -0.359  13.647  18.570  0.00  0.00    +0.000 HD
ENDBRANCH   8  15
ENDBRANCH   2   5
BRANCH   1  20
ATOM     17  C   UNL     1       4.307   5.468  18.007  0.00  0.00    +0.000 A 
ATOM     18  C   UNL     1       3.408   5.382  19.101  0.00  0.00    +0.000 A 
ATOM     19  C   UNL     1       2.507   6.430  19.434  0.00  0.00    +0.000 A 
ATOM     20  C   UNL     1       2.456   7.604  18.688  0.00  0.00    +0.000 A 
ATOM     21  C   UNL     1       3.373   7.702  17.613  0.00  0.00    +0.000 A 
ATOM     22  C   UNL     1       4.282   6.656  17.271  0.00  0.00    +0.000 A 
BRANCH  17  23
ATOM     23  C   UNL     1       5.202   4.287  17.690  0.00  0.00    +0.000 C 
ATOM     24  O   UNL     1       4.961   3.511  16.771  0.00  0.00    +0.000 OA
BRANCH  23  25
ATOM     25  O   UNL     1       6.305   4.213  18.490  0.00  0.00    +0.000 OA
BRANCH  25  27
ATOM     26  C   UNL     1       7.862   6.106  18.901  0.00  0.00    +0.000 C 
ATOM     27  C   UNL     1       7.498   4.906  18.038  0.00  0.00    +0.000 C 
ENDBRANCH  25  27
ENDBRANCH  23  25
ENDBRANCH  17  23
ENDBRANCH   1  20
TORSDOF 6
ENDMDL
MODEL 8
REMARK VINA RESULT:      -7.8      3.002      4.453
REMARK  Name = 
REMARK  7 active torsions:
REMARK  status: ('A' for Active; 'I' for Inactive)
REMARK    1  A    between atoms: C_1  and  C_2
REMARK    2  A    between atoms: C_2  and  O_3
REMARK    3  A    between atoms: O_3  and  C_4
REMARK    4  A    between atoms: C_4  and  C_6
REMARK    5  A    between atoms: C_9  and  N_10
REMARK    6  A    between atoms: C_11  and  C_13
REMARK    7  A    between atoms: C_16  and  O_17
REMARK                            x       y       z     vdW  Elec       q    Type
REMARK                         _______ _______ _______ _____ _____    ______ ____
ROOT
ATOM      1  N   UNL     1       3.316   7.339  18.596  0.00  0.00    +0.000 N 
ATOM      2  C   UNL     1       3.651   5.998  18.969  0.00  0.00    +0.000 C 
ATOM      3  O   UNL     1       2.965   5.246  19.629  0.00  0.00    +0.000 OA
ATOM      4  H   UNL     1       4.029   7.777  18.017  0.00  0.00    +0.000 HD
ENDROOT
BRANCH   2   5
ATOM      5  C   UNL     1       5.030   5.557  18.392  0.00  0.00    +0.000 A 
ATOM      6  N   UNL     1       5.961   5.726  19.374  0.00  0.00    +0.000 NA
ATOM      7  N   UNL     1       7.205   5.296  19.188  0.00  0.00    +0.000 NA
ATOM      8  C   UNL     1       7.595   5.011  17.942  0.00  0.00    +0.000 A 
ATOM      9  C   UNL     1       6.799   5.214  16.839  0.00  0.00    +0.000 A 
ATOM     10  C   UNL     1       7.420   5.167  15.564  0.00  0.00    +0.000 A 
ATOM     11  C   UNL     1       6.767   4.569  14.512  0.00  0.00    +0.000 A 
ATOM     12  C   UNL     1       5.509   4.046  14.761  0.00  0.00    +0.000 A 
ATOM     13  C   UNL     1       4.802   4.375  15.965  0.00  0.00    +0.000 A 
ATOM     14  C   UNL     1       5.429   5.080  17.066  0.00  0.00    +0.000 A 
BRANCH   8  15
ATOM     15  O   UNL     1       8.233   3.768  17.891  0.00  0.00    +0.000 OA
ATOM     16  H   UNL     1       8.279   3.640  16.921  0.00  0.00    +0.000 HD
ENDBRANCH   8  15
ENDBRANCH   2   5
BRANCH   1  20
ATOM     17  C   UNL     1      -0.007  10.034  19.316  0.00  0.00    +0.000 A 
ATOM     18  C   UNL     1       0.585   9.294  20.371  0.00  0.00    +0.000 A 
ATOM     19  C   UNL     1       1.661   8.390  20.160  0.00  0.00    +0.000 A 
ATOM     20  C   UNL     1       2.198   8.188  18.892  0.00  0.00    +0.000 A 
ATOM     21  C   UNL     1       1.587   8.905  17.833  0.00  0.00    +0.000 A 
ATOM     22  C   UNL     1       0.506   9.815  18.035  0.00  0.00    +0.000 A 
BRANCH  17  23
ATOM     23  C   UNL     1      -1.119  11.014  19.633  0.00  0.00    +0.000 C 
ATOM     24  O   UNL     1      -1.398  11.337  20.783  0.00  0.00    +0.000 OA
BRANCH  23  25
ATOM     25  O   UNL     1      -1.727  11.521  18.522  0.00  0.00    +0.000 OA
BRANCH  25  27
ATOM     26  C   UNL     1      -3.096  10.181  16.939  0.00  0.00    +0.000 C 
ATOM     27  C   UNL     1      -3.054  11.021  18.208  0.00  0.00    +0.000 C 
ENDBRANCH  25  27
ENDBRANCH  23  25
ENDBRANCH  17  23
ENDBRANCH   1  20
TORSDOF 6
ENDMDL
MODEL 9
REMARK VINA RESULT:      -7.8      3.052      9.036
REMARK  Name = 
REMARK  7 active torsions:
REMARK  status: ('A' for Active; 'I' for Inactive)
REMARK    1  A    between atoms: C_1  and  C_2
REMARK    2  A    between atoms: C_2  and  O_3
REMARK    3  A    between atoms: O_3  and  C_4
REMARK    4  A    between atoms: C_4  and  C_6
REMARK    5  A    between atoms: C_9  and  N_10
REMARK    6  A    between atoms: C_11  and  C_13
REMARK    7  A    between atoms: C_16  and  O_17
REMARK                            x       y       z     vdW  Elec       q    Type
REMARK                         _______ _______ _______ _____ _____    ______ ____
ROOT
ATOM      1  N   UNL     1       1.485   8.731  19.076  0.00  0.00    +0.000 N 
ATOM      2  C   UNL     1       0.909   9.319  20.249  0.00  0.00    +0.000 C 
ATOM      3  O   UNL     1       1.137   8.999  21.396  0.00  0.00    +0.000 OA
ATOM      4  H   UNL     1       1.169   9.175  18.217  0.00  0.00    +0.000 HD
ENDROOT
BRANCH   2   5
ATOM      5  C   UNL     1      -0.060  10.488  19.900  0.00  0.00    +0.000 A 
ATOM      6  N   UNL     1       0.193  11.507  20.770  0.00  0.00    +0.000 NA
ATOM      7  N   UNL     1      -0.404  12.684  20.604  0.00  0.00    +0.000 NA
ATOM      8  C   UNL     1      -1.472  12.742  19.803  0.00  0.00    +0.000 A 
ATOM      9  C   UNL     1      -2.026  11.633  19.205  0.00  0.00    +0.000 A 
ATOM     10  C   UNL     1      -3.319  11.772  18.635  0.00  0.00    +0.000 A 
ATOM     11  C   UNL     1      -3.605  11.153  17.441  0.00  0.00    +0.000 A 
ATOM     12  C   UNL     1      -2.597  10.405  16.858  0.00  0.00    +0.000 A 
ATOM     13  C   UNL     1      -1.422  10.047  17.600  0.00  0.00    +0.000 A 
ATOM     14  C   UNL     1      -1.124  10.613  18.901  0.00  0.00    +0.000 A 
BRANCH   8  15
ATOM     15  O   UNL     1      -1.365  13.808  18.905  0.00  0.00    +0.000 OA
ATOM     16  H   UNL     1      -2.140  14.340  19.180  0.00  0.00    +0.000 HD
ENDBRANCH   8  15
ENDBRANCH   2   5
BRANCH   1  20
ATOM     17  C   UNL     1       4.229   5.393  18.686  0.00  0.00    +0.000 A 
ATOM     18  C   UNL     1       4.193   6.435  17.725  0.00  0.00    +0.000 A 
ATOM     19  C   UNL     1       3.291   7.530  17.818  0.00  0.00    +0.000 A 
ATOM     20  C   UNL     1       2.390   7.637  18.874  0.00  0.00    +0.000 A 
ATOM     21  C   UNL     1       2.406   6.581  19.819  0.00  0.00    +0.000 A 
ATOM     22  C   UNL     1       3.308   5.478  19.734  0.00  0.00    +0.000 A 
BRANCH  17  23
ATOM     23  C   UNL     1       5.254   4.287  18.540  0.00  0.00    +0.000 C 
ATOM     24  O   UNL     1       5.238   3.282  19.243  0.00  0.00    +0.000 OA
BRANCH  23  25
ATOM     25  O   UNL     1       6.147   4.505  17.531  0.00  0.00    +0.000 OA
BRANCH  25  27
ATOM     26  C   UNL     1       7.780   6.019  18.636  0.00  0.00    +0.000 C 
ATOM     27  C   UNL     1       7.535   4.704  17.909  0.00  0.00    +0.000 C 
ENDBRANCH  25  27
ENDBRANCH  23  25
ENDBRANCH  17  23
ENDBRANCH   1  20
TORSDOF 6
ENDMDL
