MODEL 1
REMARK VINA RESULT:      -7.8      0.000      0.000
REMARK  Name = 
REMARK  6 active torsions:
REMARK  status: ('A' for Active; 'I' for Inactive)
REMARK    1  A    between atoms: C_1  and  N_2
REMARK    2  A    between atoms: C_3  and  C_5
REMARK    3  A    between atoms: C_6  and  C_7
REMARK    4  A    between atoms: C_20  and  O_21
REMARK    5  A    between atoms: C_22  and  C_23
REMARK    6  A    between atoms: C_23  and  N_24
REMARK                            x       y       z     vdW  Elec       q    Type
REMARK                         _______ _______ _______ _____ _____    ______ ____
ROOT
ATOM      1  C   UNL     1       3.632   5.875  17.785  0.00  0.00    +0.000 A 
ATOM      2  C   UNL     1       2.554   6.440  18.457  0.00  0.00    +0.000 A 
ATOM      3  O   UNL     1       1.758   5.462  18.963  0.00  0.00    +0.000 OA
ATOM      4  C   UNL     1       2.316   4.274  18.660  0.00  0.00    +0.000 A 
ATOM      5  C   UNL     1       1.769   3.071  19.078  0.00  0.00    +0.000 A 
ATOM      6  C   UNL     1       2.472   1.935  18.734  0.00  0.00    +0.000 A 
ATOM      7  C   UNL     1       3.656   2.026  17.997  0.00  0.00    +0.000 A 
ATOM      8  C   UNL     1       4.215   3.250  17.528  0.00  0.00    +0.000 A 
ATOM      9  C   UNL     1       3.481   4.430  17.912  0.00  0.00    +0.000 A 
ENDROOT
BRANCH   2  10
ATOM     10  C   UNL     1       2.083   7.789  18.736  0.00  0.00    +0.000 A 
ATOM     11  C   UNL     1       2.071   8.768  17.739  0.00  0.00    +0.000 A 
ATOM     12  C   UNL     1       1.659  10.080  18.000  0.00  0.00    +0.000 A 
ATOM     13  C   UNL     1       1.240  10.372  19.302  0.00  0.00    +0.000 A 
ATOM     14  N   UNL     1       0.814  11.566  19.844  0.00  0.00    +0.000 N 
ATOM     15  C   UNL     1       0.490  11.394  21.164  0.00  0.00    +0.000 A 
ATOM     16  C   UNL     1       0.717  10.077  21.486  0.00  0.00    +0.000 A 
ATOM     17  C   UNL     1       1.204   9.426  20.317  0.00  0.00    +0.000 A 
ATOM     18  C   UNL     1       1.625   8.115  20.028  0.00  0.00    +0.000 A 
ATOM     19  H   UNL     1       0.758  12.440  19.338  0.00  0.00    +0.000 HD
ENDBRANCH   2  10
BRANCH   1  22
ATOM     20  C   UNL     1       7.032   7.410  17.413  0.00  0.00    +0.000 C 
ATOM     21  N   UNL     1       5.895   6.650  17.870  0.00  0.00    +0.000 N 
ATOM     22  C   UNL     1       4.694   6.680  17.199  0.00  0.00    +0.000 C 
ATOM     23  O   UNL     1       4.550   7.299  16.150  0.00  0.00    +0.000 OA
ATOM     24  H   UNL     1       6.038   5.941  18.575  0.00  0.00    +0.000 HD
ENDBRANCH   1  22
BRANCH   7  25
ATOM     25  O   UNL     1       4.268   0.829  17.762  0.00  0.00    +0.000 OA
ATOM     26  H   UNL     1       5.148   0.991  17.382  0.00  0.00    +0.000 HD
ENDBRANCH   7  25
BRANCH   8  27
ATOM     27  C   UNL     1       5.484   3.393  16.697  0.00  0.00    +0.000 C 
BRANCH  27  28
ATOM     28  N   UNL     1       5.578   4.118  15.436  0.00  0.00    +0.000 NA
ATOM     29  C   UNL     1       6.901   4.575  15.050  0.00  0.00    +0.000 C 
ATOM     30  C   UNL     1       6.951   4.520  13.525  0.00  0.00    +0.000 C 
ATOM     31  C   UNL     1       5.768   3.660  13.105  0.00  0.00    +0.000 C 
ATOM     32  C   UNL     1       5.092   4.083  11.786  0.00  0.00    +0.000 C 
ATOM     33  O   UNL     1       4.953   2.698  11.377  0.00  0.00    +0.000 OA
ATOM     34  C   UNL     1       5.974   2.326  12.341  0.00  0.00    +0.000 C 
ATOM     35  C   UNL     1       4.864   3.517  14.317  0.00  0.00    +0.000 C 
ENDBRANCH  27  28
ENDBRANCH   8  27
TORSDOF 5
ENDMDL
MODEL 2
REMARK VINA RESULT:      -7.7      5.030     10.951
REMARK  Name = 
REMARK  6 active torsions:
REMARK  status: ('A' for Active; 'I' for Inactive)
REMARK    1  A    between atoms: C_1  and  N_2
REMARK    2  A    between atoms: C_3  and  C_5
REMARK    3  A    between atoms: C_6  and  C_7
REMARK    4  A    between atoms: C_20  and  O_21
REMARK    5  A    between atoms: C_22  and  C_23
REMARK    6  A    between atoms: C_23  and  N_24
REMARK                            x       y       z     vdW  Elec       q    Type
REMARK                         _______ _______ _______ _____ _____    ______ ____
ROOT
ATOM      1  C   UNL     1      -1.096  10.979  19.236  0.00  0.00    +0.000 A 
ATOM      2  C   UNL     1       0.102  10.439  19.692  0.00  0.00    +0.000 A 
ATOM      3  O   UNL     1       0.478  11.051  20.846  0.00  0.00    +0.000 OA
ATOM      4  C   UNL     1      -0.469  11.955  21.164  0.00  0.00    +0.000 A 
ATOM      5  C   UNL     1      -0.405  12.718  22.320  0.00  0.00    +0.000 A 
ATOM      6  C   UNL     1      -1.468  13.569  22.541  0.00  0.00    +0.000 A 
ATOM      7  C   UNL     1      -2.523  13.644  21.628  0.00  0.00    +0.000 A 
ATOM      8  C   UNL     1      -2.589  12.894  20.418  0.00  0.00    +0.000 A 
ATOM      9  C   UNL     1      -1.483  11.994  20.209  0.00  0.00    +0.000 A 
ENDROOT
BRANCH   2  10
ATOM     10  C   UNL     1       1.027   9.409  19.241  0.00  0.00    +0.000 A 
ATOM     11  C   UNL     1       1.657   9.503  17.997  0.00  0.00    +0.000 A 
ATOM     12  C   UNL     1       2.517   8.502  17.531  0.00  0.00    +0.000 A 
ATOM     13  C   UNL     1       2.738   7.405  18.370  0.00  0.00    +0.000 A 
ATOM     14  N   UNL     1       3.504   6.277  18.164  0.00  0.00    +0.000 N 
ATOM     15  C   UNL     1       3.442   5.460  19.262  0.00  0.00    +0.000 A 
ATOM     16  C   UNL     1       2.621   6.059  20.187  0.00  0.00    +0.000 A 
ATOM     17  C   UNL     1       2.161   7.284  19.627  0.00  0.00    +0.000 A 
ATOM     18  C   UNL     1       1.298   8.303  20.070  0.00  0.00    +0.000 A 
ATOM     19  H   UNL     1       4.026   6.083  17.319  0.00  0.00    +0.000 HD
ENDBRANCH   2  10
BRANCH   1  22
ATOM     20  C   UNL     1      -2.585  11.007  15.796  0.00  0.00    +0.000 C 
ATOM     21  N   UNL     1      -1.916  11.367  17.022  0.00  0.00    +0.000 N 
ATOM     22  C   UNL     1      -1.780  10.471  18.056  0.00  0.00    +0.000 C 
ATOM     23  O   UNL     1      -2.162   9.309  17.966  0.00  0.00    +0.000 OA
ATOM     24  H   UNL     1      -1.374  12.220  17.045  0.00  0.00    +0.000 HD
ENDBRANCH   1  22
BRANCH   7  25
ATOM     25  O   UNL     1      -3.524  14.497  21.991  0.00  0.00    +0.000 OA
ATOM     26  H   UNL     1      -3.196  15.097  22.683  0.00  0.00    +0.000 HD
ENDBRANCH   7  25
BRANCH   8  27
ATOM     27  C   UNL     1      -3.704  12.967  19.381  0.00  0.00    +0.000 C 
BRANCH  27  28
ATOM     28  N   UNL     1      -5.127  12.866  19.679  0.00  0.00    +0.000 NA
ATOM     29  C   UNL     1      -6.037  13.103  18.573  0.00  0.00    +0.000 C 
ATOM     30  C   UNL     1      -7.250  12.206  18.810  0.00  0.00    +0.000 C 
ATOM     31  C   UNL     1      -6.814  11.192  19.858  0.00  0.00    +0.000 C 
ATOM     32  C   UNL     1      -7.915  10.764  20.847  0.00  0.00    +0.000 C 
ATOM     33  O   UNL     1      -7.478   9.383  20.785  0.00  0.00    +0.000 OA
ATOM     34  C   UNL     1      -6.782   9.674  19.543  0.00  0.00    +0.000 C 
ATOM     35  C   UNL     1      -5.518  11.701  20.463  0.00  0.00    +0.000 C 
ENDBRANCH  27  28
ENDBRANCH   8  27
TORSDOF 5
ENDMDL
MODEL 3
REMARK VINA RESULT:      -7.5      4.536     10.967
REMARK  Name = 
REMARK  6 active torsions:
REMARK  status: ('A' for Active; 'I' for Inactive)
REMARK    1  A    between atoms: C_1  and  N_2
REMARK    2  A    between atoms: C_3  and  C_5
REMARK    3  A    between atoms: C_6  and  C_7
REMARK    4  A    between atoms: C_20  and  O_21
REMARK    5  A    between atoms: C_22  and  C_23
REMARK    6  A    between atoms: C_23  and  N_24
REMARK                            x       y       z     vdW  Elec       q    Type
REMARK                         _______ _______ _______ _____ _____    ______ ____
ROOT
ATOM      1  C   UNL     1      -0.140  10.882  19.646  0.00  0.00    +0.000 A 
ATOM      2  C   UNL     1       0.137   9.757  18.876  0.00  0.00    +0.000 A 
ATOM      3  O   UNL     1      -0.951   9.424  18.133  0.00  0.00    +0.000 OA
ATOM      4  C   UNL     1      -1.917  10.330  18.382  0.00  0.00    +0.000 A 
ATOM      5  C   UNL     1      -3.145  10.298  17.740  0.00  0.00    +0.000 A 
ATOM      6  C   UNL     1      -4.021  11.315  18.058  0.00  0.00    +0.000 A 
ATOM      7  C   UNL     1      -3.664  12.296  18.987  0.00  0.00    +0.000 A 
ATOM      8  C   UNL     1      -2.421  12.326  19.684  0.00  0.00    +0.000 A 
ATOM      9  C   UNL     1      -1.508  11.269  19.326  0.00  0.00    +0.000 A 
ENDROOT
BRANCH   2  10
ATOM     10  C   UNL     1       1.277   8.871  18.684  0.00  0.00    +0.000 A 
ATOM     11  C   UNL     1       2.188   9.086  17.646  0.00  0.00    +0.000 A 
ATOM     12  C   UNL     1       3.266   8.221  17.424  0.00  0.00    +0.000 A 
ATOM     13  C   UNL     1       3.408   7.137  18.296  0.00  0.00    +0.000 A 
ATOM     14  N   UNL     1       4.345   6.125  18.299  0.00  0.00    +0.000 N 
ATOM     15  C   UNL     1       4.112   5.272  19.346  0.00  0.00    +0.000 A 
ATOM     16  C   UNL     1       3.007   5.730  20.024  0.00  0.00    +0.000 A 
ATOM     17  C   UNL     1       2.547   6.902  19.359  0.00  0.00    +0.000 A 
ATOM     18  C   UNL     1       1.470   7.785  19.559  0.00  0.00    +0.000 A 
ATOM     19  H   UNL     1       5.088   6.028  17.621  0.00  0.00    +0.000 HD
ENDBRANCH   2  10
BRANCH   1  22
ATOM     20  C   UNL     1       2.471  13.364  20.685  0.00  0.00    +0.000 C 
ATOM     21  N   UNL     1       1.450  12.641  19.965  0.00  0.00    +0.000 N 
ATOM     22  C   UNL     1       0.864  11.513  20.490  0.00  0.00    +0.000 C 
ATOM     23  O   UNL     1       1.130  11.104  21.616  0.00  0.00    +0.000 OA
ATOM     24  H   UNL     1       1.027  13.077  19.158  0.00  0.00    +0.000 HD
ENDBRANCH   1  22
BRANCH   7  25
ATOM     25  O   UNL     1      -4.608  13.263  19.177  0.00  0.00    +0.000 OA
ATOM     26  H   UNL     1      -5.431  12.847  19.487  0.00  0.00    +0.000 HD
ENDBRANCH   7  25
BRANCH   8  27
ATOM     27  C   UNL     1      -2.004  13.358  20.725  0.00  0.00    +0.000 C 
BRANCH  27  28
ATOM     28  N   UNL     1      -2.210  13.223  22.161  0.00  0.00    +0.000 NA
ATOM     29  C   UNL     1      -2.082  14.435  22.949  0.00  0.00    +0.000 C 
ATOM     30  C   UNL     1      -3.065  14.303  24.111  0.00  0.00    +0.000 C 
ATOM     31  C   UNL     1      -4.006  13.172  23.726  0.00  0.00    +0.000 C 
ATOM     32  C   UNL     1      -4.489  12.300  24.902  0.00  0.00    +0.000 C 
ATOM     33  O   UNL     1      -5.833  12.254  24.356  0.00  0.00    +0.000 OA
ATOM     34  C   UNL     1      -5.527  13.418  23.543  0.00  0.00    +0.000 C 
ATOM     35  C   UNL     1      -3.376  12.442  22.554  0.00  0.00    +0.000 C 
ENDBRANCH  27  28
ENDBRANCH   8  27
TORSDOF 5
ENDMDL
MODEL 4
REMARK VINA RESULT:      -7.4      2.251      3.368
REMARK  Name = 
REMARK  6 active torsions:
REMARK  status: ('A' for Active; 'I' for Inactive)
REMARK    1  A    between atoms: C_1  and  N_2
REMARK    2  A    between atoms: C_3  and  C_5
REMARK    3  A    between atoms: C_6  and  C_7
REMARK    4  A    between atoms: C_20  and  O_21
REMARK    5  A    between atoms: C_22  and  C_23
REMARK    6  A    between atoms: C_23  and  N_24
REMARK                            x       y       z     vdW  Elec       q    Type
REMARK                         _______ _______ _______ _____ _____    ______ ____
ROOT
ATOM      1  C   UNL     1       2.208   6.425  19.030  0.00  0.00    +0.000 A 
ATOM      2  C   UNL     1       1.545   6.947  20.136  0.00  0.00    +0.000 A 
ATOM      3  O   UNL     1       1.134   5.938  20.949  0.00  0.00    +0.000 OA
ATOM      4  C   UNL     1       1.545   4.775  20.408  0.00  0.00    +0.000 A 
ATOM      5  C   UNL     1       1.324   3.553  21.025  0.00  0.00    +0.000 A 
ATOM      6  C   UNL     1       1.842   2.448  20.381  0.00  0.00    +0.000 A 
ATOM      7  C   UNL     1       2.532   2.587  19.174  0.00  0.00    +0.000 A 
ATOM      8  C   UNL     1       2.739   3.829  18.507  0.00  0.00    +0.000 A 
ATOM      9  C   UNL     1       2.211   4.977  19.201  0.00  0.00    +0.000 A 
ENDROOT
BRANCH   2  10
ATOM     10  C   UNL     1       1.190   8.275  20.616  0.00  0.00    +0.000 A 
ATOM     11  C   UNL     1       1.168   8.564  21.983  0.00  0.00    +0.000 A 
ATOM     12  C   UNL     1       0.790   9.824  22.461  0.00  0.00    +0.000 A 
ATOM     13  C   UNL     1       0.449  10.794  21.513  0.00  0.00    +0.000 A 
ATOM     14  N   UNL     1       0.020  12.091  21.694  0.00  0.00    +0.000 N 
ATOM     15  C   UNL     1      -0.192  12.690  20.480  0.00  0.00    +0.000 A 
ATOM     16  C   UNL     1       0.094  11.769  19.501  0.00  0.00    +0.000 A 
ATOM     17  C   UNL     1       0.488  10.563  20.145  0.00  0.00    +0.000 A 
ATOM     18  C   UNL     1       0.870   9.287  19.690  0.00  0.00    +0.000 A 
ATOM     19  H   UNL     1      -0.123  12.529  22.595  0.00  0.00    +0.000 HD
ENDBRANCH   2  10
BRANCH   1  22
ATOM     20  C   UNL     1       4.899   7.792  16.807  0.00  0.00    +0.000 C 
ATOM     21  N   UNL     1       4.154   7.021  17.772  0.00  0.00    +0.000 N 
ATOM     22  C   UNL     1       2.825   7.272  18.020  0.00  0.00    +0.000 C 
ATOM     23  O   UNL     1       2.193   8.115  17.392  0.00  0.00    +0.000 OA
ATOM     24  H   UNL     1       4.561   6.167  18.126  0.00  0.00    +0.000 HD
ENDBRANCH   1  22
BRANCH   7  25
ATOM     25  O   UNL     1       3.023   1.418  18.668  0.00  0.00    +0.000 OA
ATOM     26  H   UNL     1       3.351   0.867  19.400  0.00  0.00    +0.000 HD
ENDBRANCH   7  25
BRANCH   8  27
ATOM     27  C   UNL     1       3.458   4.021  17.177  0.00  0.00    +0.000 C 
BRANCH  27  28
ATOM     28  N   UNL     1       4.882   3.801  16.960  0.00  0.00    +0.000 NA
ATOM     29  C   UNL     1       5.446   4.367  15.748  0.00  0.00    +0.000 C 
ATOM     30  C   UNL     1       6.883   4.762  16.082  0.00  0.00    +0.000 C 
ATOM     31  C   UNL     1       6.969   4.757  17.600  0.00  0.00    +0.000 C 
ATOM     32  C   UNL     1       8.323   4.296  18.174  0.00  0.00    +0.000 C 
ATOM     33  O   UNL     1       8.285   5.336  19.184  0.00  0.00    +0.000 OA
ATOM     34  C   UNL     1       7.299   6.050  18.391  0.00  0.00    +0.000 C 
ATOM     35  C   UNL     1       5.733   4.043  18.118  0.00  0.00    +0.000 C 
ENDBRANCH  27  28
ENDBRANCH   8  27
TORSDOF 5
ENDMDL
MODEL 5
REMARK VINA RESULT:      -7.2      2.299      3.311
REMARK  Name = 
REMARK  6 active torsions:
REMARK  status: ('A' for Active; 'I' for Inactive)
REMARK    1  A    between atoms: C_1  and  N_2
REMARK    2  A    between atoms: C_3  and  C_5
REMARK    3  A    between atoms: C_6  and  C_7
REMARK    4  A    between atoms: C_20  and  O_21
REMARK    5  A    between atoms: C_22  and  C_23
REMARK    6  A    between atoms: C_23  and  N_24
REMARK                            x       y       z     vdW  Elec       q    Type
REMARK                         _______ _______ _______ _____ _____    ______ ____
ROOT
ATOM      1  C   UNL     1       2.081   6.364  19.010  0.00  0.00    +0.000 A 
ATOM      2  C   UNL     1       1.403   6.910  20.095  0.00  0.00    +0.000 A 
ATOM      3  O   UNL     1       1.048   5.927  20.963  0.00  0.00    +0.000 OA
ATOM      4  C   UNL     1       1.511   4.758  20.479  0.00  0.00    +0.000 A 
ATOM      5  C   UNL     1       1.355   3.561  21.160  0.00  0.00    +0.000 A 
ATOM      6  C   UNL     1       1.920   2.450  20.569  0.00  0.00    +0.000 A 
ATOM      7  C   UNL     1       2.593   2.558  19.349  0.00  0.00    +0.000 A 
ATOM      8  C   UNL     1       2.733   3.773  18.616  0.00  0.00    +0.000 A 
ATOM      9  C   UNL     1       2.156   4.928  19.255  0.00  0.00    +0.000 A 
ENDROOT
BRANCH   2  10
ATOM     10  C   UNL     1       0.987   8.243  20.509  0.00  0.00    +0.000 A 
ATOM     11  C   UNL     1       1.380   9.375  19.789  0.00  0.00    +0.000 A 
ATOM     12  C   UNL     1       1.023  10.665  20.196  0.00  0.00    +0.000 A 
ATOM     13  C   UNL     1       0.239  10.779  21.349  0.00  0.00    +0.000 A 
ATOM     14  N   UNL     1      -0.231  11.907  21.987  0.00  0.00    +0.000 N 
ATOM     15  C   UNL     1      -0.972  11.552  23.084  0.00  0.00    +0.000 A 
ATOM     16  C   UNL     1      -0.976  10.180  23.164  0.00  0.00    +0.000 A 
ATOM     17  C   UNL     1      -0.202   9.683  22.077  0.00  0.00    +0.000 A 
ATOM     18  C   UNL     1       0.173   8.397  21.648  0.00  0.00    +0.000 A 
ATOM     19  H   UNL     1      -0.046  12.856  21.689  0.00  0.00    +0.000 HD
ENDBRANCH   2  10
BRANCH   1  22
ATOM     20  C   UNL     1       4.679   7.728  16.677  0.00  0.00    +0.000 C 
ATOM     21  N   UNL     1       3.981   6.976  17.691  0.00  0.00    +0.000 N 
ATOM     22  C   UNL     1       2.647   7.186  17.951  0.00  0.00    +0.000 C 
ATOM     23  O   UNL     1       1.972   7.973  17.296  0.00  0.00    +0.000 OA
ATOM     24  H   UNL     1       4.427   6.155  18.077  0.00  0.00    +0.000 HD
ENDBRANCH   1  22
BRANCH   7  25
ATOM     25  O   UNL     1       3.136   1.390  18.898  0.00  0.00    +0.000 OA
ATOM     26  H   UNL     1       2.780   0.651  19.421  0.00  0.00    +0.000 HD
ENDBRANCH   7  25
BRANCH   8  27
ATOM     27  C   UNL     1       3.430   3.929  17.270  0.00  0.00    +0.000 C 
BRANCH  27  28
ATOM     28  N   UNL     1       4.858   3.743  17.045  0.00  0.00    +0.000 NA
ATOM     29  C   UNL     1       5.394   4.287  15.810  0.00  0.00    +0.000 C 
ATOM     30  C   UNL     1       6.822   4.731  16.116  0.00  0.00    +0.000 C 
ATOM     31  C   UNL     1       6.924   4.775  17.633  0.00  0.00    +0.000 C 
ATOM     32  C   UNL     1       8.296   4.369  18.205  0.00  0.00    +0.000 C 
ATOM     33  O   UNL     1       8.239   5.438  19.184  0.00  0.00    +0.000 OA
ATOM     34  C   UNL     1       7.226   6.100  18.381  0.00  0.00    +0.000 C 
ATOM     35  C   UNL     1       5.714   4.043  18.185  0.00  0.00    +0.000 C 
ENDBRANCH  27  28
ENDBRANCH   8  27
TORSDOF 5
ENDMDL
MODEL 6
REMARK VINA RESULT:      -7.1      5.111     11.113
REMARK  Name = 
REMARK  6 active torsions:
REMARK  status: ('A' for Active; 'I' for Inactive)
REMARK    1  A    between atoms: C_1  and  N_2
REMARK    2  A    between atoms: C_3  and  C_5
REMARK    3  A    between atoms: C_6  and  C_7
REMARK    4  A    between atoms: C_20  and  O_21
REMARK    5  A    between atoms: C_22  and  C_23
REMARK    6  A    between atoms: C_23  and  N_24
REMARK                            x       y       z     vdW  Elec       q    Type
REMARK                         _______ _______ _______ _____ _____    ______ ____
ROOT
ATOM      1  C   UNL     1      -1.295  11.033  19.601  0.00  0.00    +0.000 A 
ATOM      2  C   UNL     1      -0.135  10.498  20.153  0.00  0.00    +0.000 A 
ATOM      3  O   UNL     1       0.257  11.243  21.220  0.00  0.00    +0.000 OA
ATOM      4  C   UNL     1      -0.643  12.230  21.391  0.00  0.00    +0.000 A 
ATOM      5  C   UNL     1      -0.554  13.140  22.433  0.00  0.00    +0.000 A 
ATOM      6  C   UNL     1      -1.571  14.069  22.513  0.00  0.00    +0.000 A 
ATOM      7  C   UNL     1      -2.608  14.072  21.575  0.00  0.00    +0.000 A 
ATOM      8  C   UNL     1      -2.697  13.167  20.478  0.00  0.00    +0.000 A 
ATOM      9  C   UNL     1      -1.640  12.190  20.418  0.00  0.00    +0.000 A 
ENDROOT
BRANCH   2  10
ATOM     10  C   UNL     1       0.739   9.369  19.866  0.00  0.00    +0.000 A 
ATOM     11  C   UNL     1       0.888   8.324  20.782  0.00  0.00    +0.000 A 
ATOM     12  C   UNL     1       1.754   7.252  20.539  0.00  0.00    +0.000 A 
ATOM     13  C   UNL     1       2.457   7.257  19.330  0.00  0.00    +0.000 A 
ATOM     14  N   UNL     1       3.384   6.359  18.845  0.00  0.00    +0.000 N 
ATOM     15  C   UNL     1       3.816   6.752  17.606  0.00  0.00    +0.000 A 
ATOM     16  C   UNL     1       3.170   7.922  17.286  0.00  0.00    +0.000 A 
ATOM     17  C   UNL     1       2.318   8.256  18.377  0.00  0.00    +0.000 A 
ATOM     18  C   UNL     1       1.442   9.324  18.646  0.00  0.00    +0.000 A 
ATOM     19  H   UNL     1       3.701   5.536  19.341  0.00  0.00    +0.000 HD
ENDBRANCH   2  10
BRANCH   1  22
ATOM     20  C   UNL     1      -2.418  10.477  16.068  0.00  0.00    +0.000 C 
ATOM     21  N   UNL     1      -1.783  10.986  17.259  0.00  0.00    +0.000 N 
ATOM     22  C   UNL     1      -1.989  10.404  18.487  0.00  0.00    +0.000 C 
ATOM     23  O   UNL     1      -2.668   9.391  18.622  0.00  0.00    +0.000 OA
ATOM     24  H   UNL     1      -1.030  11.653  17.159  0.00  0.00    +0.000 HD
ENDBRANCH   1  22
BRANCH   7  25
ATOM     25  O   UNL     1      -3.566  15.018  21.797  0.00  0.00    +0.000 OA
ATOM     26  H   UNL     1      -3.135  15.869  21.986  0.00  0.00    +0.000 HD
ENDBRANCH   7  25
BRANCH   8  27
ATOM     27  C   UNL     1      -3.792  13.155  19.417  0.00  0.00    +0.000 C 
BRANCH  27  28
ATOM     28  N   UNL     1      -5.213  12.982  19.688  0.00  0.00    +0.000 NA
ATOM     29  C   UNL     1      -6.113  13.169  18.564  0.00  0.00    +0.000 C 
ATOM     30  C   UNL     1      -7.283  12.211  18.781  0.00  0.00    +0.000 C 
ATOM     31  C   UNL     1      -6.816  11.225  19.841  0.00  0.00    +0.000 C 
ATOM     32  C   UNL     1      -7.913  10.743  20.810  0.00  0.00    +0.000 C 
ATOM     33  O   UNL     1      -7.404   9.386  20.762  0.00  0.00    +0.000 OA
ATOM     34  C   UNL     1      -6.701   9.709  19.533  0.00  0.00    +0.000 C 
ATOM     35  C   UNL     1      -5.560  11.801  20.469  0.00  0.00    +0.000 C 
ENDBRANCH  27  28
ENDBRANCH   8  27
TORSDOF 5
ENDMDL
MODEL 7
REMARK VINA RESULT:      -7.1      2.118      3.863
REMARK  Name = 
REMARK  6 active torsions:
REMARK  status: ('A' for Active; 'I' for Inactive)
REMARK    1  A    between atoms: C_1  and  N_2
REMARK    2  A    between atoms: C_3  and  C_5
REMARK    3  A    between atoms: C_6  and  C_7
REMARK    4  A    between atoms: C_20  and  O_21
REMARK    5  A    between atoms: C_22  and  C_23
REMARK    6  A    between atoms: C_23  and  N_24
REMARK                            x       y       z     vdW  Elec       q    Type
REMARK                         _______ _______ _______ _____ _____    ______ ____
ROOT
ATOM      1  C   UNL     1       1.697   8.505  19.310  0.00  0.00    +0.000 A 
ATOM      2  C   UNL     1       0.963   8.593  20.488  0.00  0.00    +0.000 A 
ATOM      3  O   UNL     1       1.039   7.421  21.172  0.00  0.00    +0.000 OA
ATOM      4  C   UNL     1       1.834   6.586  20.476  0.00  0.00    +0.000 A 
ATOM      5  C   UNL     1       2.154   5.316  20.933  0.00  0.00    +0.000 A 
ATOM      6  C   UNL     1       3.017   4.588  20.140  0.00  0.00    +0.000 A 
ATOM      7  C   UNL     1       3.510   5.123  18.947  0.00  0.00    +0.000 A 
ATOM      8  C   UNL     1       3.165   6.411  18.443  0.00  0.00    +0.000 A 
ATOM      9  C   UNL     1       2.280   7.169  19.291  0.00  0.00    +0.000 A 
ENDROOT
BRANCH   2  10
ATOM     10  C   UNL     1       0.150   9.608  21.144  0.00  0.00    +0.000 A 
ATOM     11  C   UNL     1       0.051   9.662  22.537  0.00  0.00    +0.000 A 
ATOM     12  C   UNL     1      -0.758  10.605  23.181  0.00  0.00    +0.000 A 
ATOM     13  C   UNL     1      -1.455  11.510  22.373  0.00  0.00    +0.000 A 
ATOM     14  N   UNL     1      -2.331  12.513  22.727  0.00  0.00    +0.000 N 
ATOM     15  C   UNL     1      -2.777  13.165  21.607  0.00  0.00    +0.000 A 
ATOM     16  C   UNL     1      -2.190  12.572  20.514  0.00  0.00    +0.000 A 
ATOM     17  C   UNL     1      -1.362  11.516  20.988  0.00  0.00    +0.000 A 
ATOM     18  C   UNL     1      -0.544  10.555  20.366  0.00  0.00    +0.000 A 
ATOM     19  H   UNL     1      -2.607  12.728  23.676  0.00  0.00    +0.000 HD
ENDBRANCH   2  10
BRANCH   1  22
ATOM     20  C   UNL     1       2.370  12.033  18.236  0.00  0.00    +0.000 C 
ATOM     21  N   UNL     1       2.191  10.827  19.007  0.00  0.00    +0.000 N 
ATOM     22  C   UNL     1       1.859   9.635  18.406  0.00  0.00    +0.000 C 
ATOM     23  O   UNL     1       1.761   9.523  17.189  0.00  0.00    +0.000 OA
ATOM     24  H   UNL     1       2.502  10.815  19.967  0.00  0.00    +0.000 HD
ENDBRANCH   1  22
BRANCH   7  25
ATOM     25  O   UNL     1       4.383   4.311  18.283  0.00  0.00    +0.000 OA
ATOM     26  H   UNL     1       4.640   4.736  17.446  0.00  0.00    +0.000 HD
ENDBRANCH   7  25
BRANCH   8  27
ATOM     27  C   UNL     1       3.655   7.020  17.134  0.00  0.00    +0.000 C 
BRANCH  27  28
ATOM     28  N   UNL     1       5.003   6.874  16.601  0.00  0.00    +0.000 NA
ATOM     29  C   UNL     1       6.052   6.596  17.564  0.00  0.00    +0.000 C 
ATOM     30  C   UNL     1       7.074   5.714  16.850  0.00  0.00    +0.000 C 
ATOM     31  C   UNL     1       6.373   5.199  15.603  0.00  0.00    +0.000 C 
ATOM     32  C   UNL     1       7.280   5.033  14.368  0.00  0.00    +0.000 C 
ATOM     33  O   UNL     1       6.637   3.779  14.024  0.00  0.00    +0.000 OA
ATOM     34  C   UNL     1       6.134   3.682  15.384  0.00  0.00    +0.000 C 
ATOM     35  C   UNL     1       5.117   6.032  15.417  0.00  0.00    +0.000 C 
ENDBRANCH  27  28
ENDBRANCH   8  27
TORSDOF 5
ENDMDL
MODEL 8
REMARK VINA RESULT:      -7.0      4.591     11.123
REMARK  Name = 
REMARK  6 active torsions:
REMARK  status: ('A' for Active; 'I' for Inactive)
REMARK    1  A    between atoms: C_1  and  N_2
REMARK    2  A    between atoms: C_3  and  C_5
REMARK    3  A    between atoms: C_6  and  C_7
REMARK    4  A    between atoms: C_20  and  O_21
REMARK    5  A    between atoms: C_22  and  C_23
REMARK    6  A    between atoms: C_23  and  N_24
REMARK                            x       y       z     vdW  Elec       q    Type
REMARK                         _______ _______ _______ _____ _____    ______ ____
ROOT
ATOM      1  C   UNL     1      -0.145  10.791  19.594  0.00  0.00    +0.000 A 
ATOM      2  C   UNL     1       0.163   9.682  18.811  0.00  0.00    +0.000 A 
ATOM      3  O   UNL     1      -0.906   9.345  18.043  0.00  0.00    +0.000 OA
ATOM      4  C   UNL     1      -1.890  10.232  18.288  0.00  0.00    +0.000 A 
ATOM      5  C   UNL     1      -3.105  10.192  17.622  0.00  0.00    +0.000 A 
ATOM      6  C   UNL     1      -4.002  11.192  17.940  0.00  0.00    +0.000 A 
ATOM      7  C   UNL     1      -3.677  12.164  18.890  0.00  0.00    +0.000 A 
ATOM      8  C   UNL     1      -2.448  12.200  19.610  0.00  0.00    +0.000 A 
ATOM      9  C   UNL     1      -1.513  11.163  19.254  0.00  0.00    +0.000 A 
ENDROOT
BRANCH   2  10
ATOM     10  C   UNL     1       1.319   8.817  18.628  0.00  0.00    +0.000 A 
ATOM     11  C   UNL     1       2.229   9.041  17.590  0.00  0.00    +0.000 A 
ATOM     12  C   UNL     1       3.323   8.196  17.376  0.00  0.00    +0.000 A 
ATOM     13  C   UNL     1       3.483   7.119  18.255  0.00  0.00    +0.000 A 
ATOM     14  N   UNL     1       4.438   6.125  18.267  0.00  0.00    +0.000 N 
ATOM     15  C   UNL     1       4.218   5.275  19.319  0.00  0.00    +0.000 A 
ATOM     16  C   UNL     1       3.104   5.716  19.991  0.00  0.00    +0.000 A 
ATOM     17  C   UNL     1       2.624   6.875  19.318  0.00  0.00    +0.000 A 
ATOM     18  C   UNL     1       1.531   7.740  19.510  0.00  0.00    +0.000 A 
ATOM     19  H   UNL     1       5.185   6.037  17.590  0.00  0.00    +0.000 HD
ENDBRANCH   2  10
BRANCH   1  22
ATOM     20  C   UNL     1       2.385  13.312  20.732  0.00  0.00    +0.000 C 
ATOM     21  N   UNL     1       1.391  12.584  19.982  0.00  0.00    +0.000 N 
ATOM     22  C   UNL     1       0.833  11.424  20.466  0.00  0.00    +0.000 C 
ATOM     23  O   UNL     1       1.102  10.988  21.580  0.00  0.00    +0.000 OA
ATOM     24  H   UNL     1       0.962  13.032  19.185  0.00  0.00    +0.000 HD
ENDBRANCH   1  22
BRANCH   7  25
ATOM     25  O   UNL     1      -4.640  13.113  19.077  0.00  0.00    +0.000 OA
ATOM     26  H   UNL     1      -5.422  12.698  19.480  0.00  0.00    +0.000 HD
ENDBRANCH   7  25
BRANCH   8  27
ATOM     27  C   UNL     1      -2.066  13.223  20.675  0.00  0.00    +0.000 C 
BRANCH  27  28
ATOM     28  N   UNL     1      -2.947  13.684  21.741  0.00  0.00    +0.000 NA
ATOM     29  C   UNL     1      -3.400  12.679  22.685  0.00  0.00    +0.000 C 
ATOM     30  C   UNL     1      -3.544  13.383  24.032  0.00  0.00    +0.000 C 
ATOM     31  C   UNL     1      -2.792  14.698  23.891  0.00  0.00    +0.000 C 
ATOM     32  C   UNL     1      -3.409  15.886  24.656  0.00  0.00    +0.000 C 
ATOM     33  O   UNL     1      -2.096  16.340  25.073  0.00  0.00    +0.000 OA
ATOM     34  C   UNL     1      -1.563  15.021  24.782  0.00  0.00    +0.000 C 
ATOM     35  C   UNL     1      -2.525  14.907  22.412  0.00  0.00    +0.000 C 
ENDBRANCH  27  28
ENDBRANCH   8  27
TORSDOF 5
ENDMDL
MODEL 9
REMARK VINA RESULT:      -7.0      4.916     10.857
REMARK  Name = 
REMARK  6 active torsions:
REMARK  status: ('A' for Active; 'I' for Inactive)
REMARK    1  A    between atoms: C_1  and  N_2
REMARK    2  A    between atoms: C_3  and  C_5
REMARK    3  A    between atoms: C_6  and  C_7
REMARK    4  A    between atoms: C_20  and  O_21
REMARK    5  A    between atoms: C_22  and  C_23
REMARK    6  A    between atoms: C_23  and  N_24
REMARK                            x       y       z     vdW  Elec       q    Type
REMARK                         _______ _______ _______ _____ _____    ______ ____
ROOT
ATOM      1  C   UNL     1       0.553  11.997  20.450  0.00  0.00    +0.000 A 
ATOM      2  C   UNL     1       0.553  10.608  20.523  0.00  0.00    +0.000 A 
ATOM      3  O   UNL     1      -0.261  10.197  21.531  0.00  0.00    +0.000 OA
ATOM      4  C   UNL     1      -0.812  11.290  22.092  0.00  0.00    +0.000 A 
ATOM      5  C   UNL     1      -1.734  11.207  23.125  0.00  0.00    +0.000 A 
ATOM      6  C   UNL     1      -2.252  12.406  23.570  0.00  0.00    +0.000 A 
ATOM      7  C   UNL     1      -1.841  13.614  23.002  0.00  0.00    +0.000 A 
ATOM      8  C   UNL     1      -0.869  13.722  21.965  0.00  0.00    +0.000 A 
ATOM      9  C   UNL     1      -0.352  12.462  21.495  0.00  0.00    +0.000 A 
ENDROOT
BRANCH   2  10
ATOM     10  C   UNL     1       1.200   9.520  19.805  0.00  0.00    +0.000 A 
ATOM     11  C   UNL     1       1.526   9.644  18.451  0.00  0.00    +0.000 A 
ATOM     12  C   UNL     1       2.112   8.594  17.736  0.00  0.00    +0.000 A 
ATOM     13  C   UNL     1       2.377   7.412  18.436  0.00  0.00    +0.000 A 
ATOM     14  N   UNL     1       2.916   6.225  17.988  0.00  0.00    +0.000 N 
ATOM     15  C   UNL     1       3.007   5.331  19.023  0.00  0.00    +0.000 A 
ATOM     16  C   UNL     1       2.514   5.941  20.152  0.00  0.00    +0.000 A 
ATOM     17  C   UNL     1       2.102   7.254  19.787  0.00  0.00    +0.000 A 
ATOM     18  C   UNL     1       1.511   8.325  20.482  0.00  0.00    +0.000 A 
ATOM     19  H   UNL     1       3.194   6.043  17.033  0.00  0.00    +0.000 HD
ENDBRANCH   2  10
BRANCH   1  22
ATOM     20  C   UNL     1       3.330  13.967  18.881  0.00  0.00    +0.000 C 
ATOM     21  N   UNL     1       2.506  13.216  19.796  0.00  0.00    +0.000 N 
ATOM     22  C   UNL     1       1.279  12.723  19.418  0.00  0.00    +0.000 C 
ATOM     23  O   UNL     1       0.854  12.840  18.273  0.00  0.00    +0.000 OA
ATOM     24  H   UNL     1       2.917  12.885  20.657  0.00  0.00    +0.000 HD
ENDBRANCH   1  22
BRANCH   7  25
ATOM     25  O   UNL     1      -2.463  14.717  23.511  0.00  0.00    +0.000 OA
ATOM     26  H   UNL     1      -2.402  14.697  24.481  0.00  0.00    +0.000 HD
ENDBRANCH   7  25
BRANCH   8  27
ATOM     27  C   UNL     1      -0.371  15.019  21.338  0.00  0.00    +0.000 C 
BRANCH  27  28
ATOM     28  N   UNL     1      -0.940  15.644  20.151  0.00  0.00    +0.000 NA
ATOM     29  C   UNL     1      -2.025  16.583  20.373  0.00  0.00    +0.000 C 
ATOM     30  C   UNL     1      -1.905  17.649  19.286  0.00  0.00    +0.000 C 
ATOM     31  C   UNL     1      -0.509  17.487  18.704  0.00  0.00    +0.000 C 
ATOM     32  C   UNL     1      -0.397  17.768  17.193  0.00  0.00    +0.000 C 
ATOM     33  O   UNL     1       0.857  18.471  17.384  0.00  0.00    +0.000 OA
ATOM     34  C   UNL     1       0.536  18.631  18.792  0.00  0.00    +0.000 C 
ATOM     35  C   UNL     1       0.029  16.153  19.189  0.00  0.00    +0.000 C 
ENDBRANCH  27  28
ENDBRANCH   8  27
TORSDOF 5
ENDMDL
