MODEL 1
REMARK VINA RESULT:      -7.3      0.000      0.000
REMARK  Name = 
REMARK  1 active torsions:
REMARK  status: ('A' for Active; 'I' for Inactive)
REMARK    1  A    between atoms: C_4  and  C_5
REMARK                            x       y       z     vdW  Elec       q    Type
REMARK                         _______ _______ _______ _____ _____    ______ ____
ROOT
ATOM      1  C   UNL     1       3.965   3.373  17.892  0.00  0.00    +0.000 A 
ATOM      2  C   UNL     1       3.504   2.097  17.625  0.00  0.00    +0.000 A 
ATOM      3  N   UNL     1       2.365   1.884  18.356  0.00  0.00    +0.000 N 
ATOM      4  C   UNL     1       2.071   2.995  19.107  0.00  0.00    +0.000 A 
ATOM      5  C   UNL     1       1.026   3.225  19.994  0.00  0.00    +0.000 A 
ATOM      6  N   UNL     1       0.944   4.419  20.623  0.00  0.00    +0.000 NA
ATOM      7  C   UNL     1       1.873   5.361  20.356  0.00  0.00    +0.000 A 
ATOM      8  C   UNL     1       2.934   5.199  19.476  0.00  0.00    +0.000 A 
ATOM      9  C   UNL     1       3.046   3.955  18.833  0.00  0.00    +0.000 A 
ATOM     10  H   UNL     1       1.821   1.030  18.351  0.00  0.00    +0.000 HD
ENDROOT
BRANCH   1  14
ATOM     11  F   UNL     1       6.723   4.401  14.068  0.00  0.00    +0.000 F 
ATOM     12  C   UNL     1       6.541   4.429  15.396  0.00  0.00    +0.000 A 
ATOM     13  C   UNL     1       5.369   3.902  15.909  0.00  0.00    +0.000 A 
ATOM     14  C   UNL     1       5.180   3.917  17.291  0.00  0.00    +0.000 A 
ATOM     15  C   UNL     1       6.190   4.458  18.089  0.00  0.00    +0.000 A 
ATOM     16  C   UNL     1       7.323   4.973  17.477  0.00  0.00    +0.000 A 
ATOM     17  N   UNL     1       7.522   4.971  16.145  0.00  0.00    +0.000 NA
ENDBRANCH   1  14
TORSDOF 1
ENDMDL
MODEL 2
REMARK VINA RESULT:      -7.2      1.217      1.688
REMARK  Name = 
REMARK  1 active torsions:
REMARK  status: ('A' for Active; 'I' for Inactive)
REMARK    1  A    between atoms: C_4  and  C_5
REMARK                            x       y       z     vdW  Elec       q    Type
REMARK                         _______ _______ _______ _____ _____    ______ ____
ROOT
ATOM      1  C   UNL     1       4.020   3.520  17.820  0.00  0.00    +0.000 A 
ATOM      2  C   UNL     1       3.717   2.207  17.511  0.00  0.00    +0.000 A 
ATOM      3  N   UNL     1       2.638   1.821  18.264  0.00  0.00    +0.000 N 
ATOM      4  C   UNL     1       2.231   2.855  19.070  0.00  0.00    +0.000 A 
ATOM      5  C   UNL     1       1.196   2.914  19.995  0.00  0.00    +0.000 A 
ATOM      6  N   UNL     1       0.984   4.063  20.677  0.00  0.00    +0.000 NA
ATOM      7  C   UNL     1       1.776   5.125  20.425  0.00  0.00    +0.000 A 
ATOM      8  C   UNL     1       2.819   5.135  19.510  0.00  0.00    +0.000 A 
ATOM      9  C   UNL     1       3.067   3.942  18.810  0.00  0.00    +0.000 A 
ATOM     10  H   UNL     1       2.207   0.906  18.238  0.00  0.00    +0.000 HD
ENDROOT
BRANCH   1  14
ATOM     11  F   UNL     1       7.987   6.253  18.111  0.00  0.00    +0.000 F 
ATOM     12  C   UNL     1       7.102   5.587  17.356  0.00  0.00    +0.000 A 
ATOM     13  C   UNL     1       6.067   4.923  17.990  0.00  0.00    +0.000 A 
ATOM     14  C   UNL     1       5.136   4.239  17.208  0.00  0.00    +0.000 A 
ATOM     15  C   UNL     1       5.292   4.265  15.821  0.00  0.00    +0.000 A 
ATOM     16  C   UNL     1       6.371   4.950  15.283  0.00  0.00    +0.000 A 
ATOM     17  N   UNL     1       7.282   5.613  16.020  0.00  0.00    +0.000 NA
ENDBRANCH   1  14
TORSDOF 1
ENDMDL
MODEL 3
REMARK VINA RESULT:      -7.2      1.144      2.081
REMARK  Name = 
REMARK  1 active torsions:
REMARK  status: ('A' for Active; 'I' for Inactive)
REMARK    1  A    between atoms: C_4  and  C_5
REMARK                            x       y       z     vdW  Elec       q    Type
REMARK                         _______ _______ _______ _____ _____    ______ ____
ROOT
ATOM      1  C   UNL     1       4.084   4.799  18.552  0.00  0.00    +0.000 A 
ATOM      2  C   UNL     1       3.969   5.828  19.469  0.00  0.00    +0.000 A 
ATOM      3  N   UNL     1       2.826   5.634  20.199  0.00  0.00    +0.000 N 
ATOM      4  C   UNL     1       2.181   4.500  19.774  0.00  0.00    +0.000 A 
ATOM      5  C   UNL     1       0.994   3.926  20.216  0.00  0.00    +0.000 A 
ATOM      6  N   UNL     1       0.555   2.787  19.635  0.00  0.00    +0.000 NA
ATOM      7  C   UNL     1       1.293   2.230  18.653  0.00  0.00    +0.000 A 
ATOM      8  C   UNL     1       2.489   2.745  18.173  0.00  0.00    +0.000 A 
ATOM      9  C   UNL     1       2.947   3.941  18.750  0.00  0.00    +0.000 A 
ATOM     10  H   UNL     1       2.498   6.242  20.940  0.00  0.00    +0.000 HD
ENDROOT
BRANCH   1  14
ATOM     11  F   UNL     1       5.787   4.489  14.048  0.00  0.00    +0.000 F 
ATOM     12  C   UNL     1       6.025   4.563  15.365  0.00  0.00    +0.000 A 
ATOM     13  C   UNL     1       4.943   4.647  16.223  0.00  0.00    +0.000 A 
ATOM     14  C   UNL     1       5.185   4.711  17.596  0.00  0.00    +0.000 A 
ATOM     15  C   UNL     1       6.510   4.681  18.034  0.00  0.00    +0.000 A 
ATOM     16  C   UNL     1       7.525   4.607  17.093  0.00  0.00    +0.000 A 
ATOM     17  N   UNL     1       7.313   4.548  15.764  0.00  0.00    +0.000 NA
ENDBRANCH   1  14
TORSDOF 1
ENDMDL
MODEL 4
REMARK VINA RESULT:      -7.1      1.221      1.310
REMARK  Name = 
REMARK  1 active torsions:
REMARK  status: ('A' for Active; 'I' for Inactive)
REMARK    1  A    between atoms: C_4  and  C_5
REMARK                            x       y       z     vdW  Elec       q    Type
REMARK                         _______ _______ _______ _____ _____    ______ ____
ROOT
ATOM      1  C   UNL     1       3.501   3.530  17.800  0.00  0.00    +0.000 A 
ATOM      2  C   UNL     1       3.111   2.269  17.387  0.00  0.00    +0.000 A 
ATOM      3  N   UNL     1       2.337   1.709  18.370  0.00  0.00    +0.000 N 
ATOM      4  C   UNL     1       2.218   2.576  19.427  0.00  0.00    +0.000 A 
ATOM      5  C   UNL     1       1.542   2.429  20.633  0.00  0.00    +0.000 A 
ATOM      6  N   UNL     1       1.567   3.439  21.532  0.00  0.00    +0.000 NA
ATOM      7  C   UNL     1       2.236   4.569  21.223  0.00  0.00    +0.000 A 
ATOM      8  C   UNL     1       2.922   4.783  20.035  0.00  0.00    +0.000 A 
ATOM      9  C   UNL     1       2.925   3.734  19.101  0.00  0.00    +0.000 A 
ATOM     10  H   UNL     1       1.919   0.788  18.328  0.00  0.00    +0.000 HD
ENDROOT
BRANCH   1  14
ATOM     11  F   UNL     1       6.975   4.212  14.520  0.00  0.00    +0.000 F 
ATOM     12  C   UNL     1       6.073   4.731  15.365  0.00  0.00    +0.000 A 
ATOM     13  C   UNL     1       5.288   3.861  16.102  0.00  0.00    +0.000 A 
ATOM     14  C   UNL     1       4.357   4.396  16.993  0.00  0.00    +0.000 A 
ATOM     15  C   UNL     1       4.269   5.785  17.100  0.00  0.00    +0.000 A 
ATOM     16  C   UNL     1       5.093   6.571  16.309  0.00  0.00    +0.000 A 
ATOM     17  N   UNL     1       5.995   6.074  15.440  0.00  0.00    +0.000 NA
ENDBRANCH   1  14
TORSDOF 1
ENDMDL
MODEL 5
REMARK VINA RESULT:      -7.0      1.452      1.957
REMARK  Name = 
REMARK  1 active torsions:
REMARK  status: ('A' for Active; 'I' for Inactive)
REMARK    1  A    between atoms: C_4  and  C_5
REMARK                            x       y       z     vdW  Elec       q    Type
REMARK                         _______ _______ _______ _____ _____    ______ ____
ROOT
ATOM      1  C   UNL     1       3.966   5.006  18.376  0.00  0.00    +0.000 A 
ATOM      2  C   UNL     1       3.139   6.070  18.065  0.00  0.00    +0.000 A 
ATOM      3  N   UNL     1       2.009   5.983  18.835  0.00  0.00    +0.000 N 
ATOM      4  C   UNL     1       2.073   4.875  19.643  0.00  0.00    +0.000 A 
ATOM      5  C   UNL     1       1.159   4.391  20.572  0.00  0.00    +0.000 A 
ATOM      6  N   UNL     1       1.451   3.264  21.260  0.00  0.00    +0.000 NA
ATOM      7  C   UNL     1       2.632   2.652  21.036  0.00  0.00    +0.000 A 
ATOM      8  C   UNL     1       3.591   3.088  20.132  0.00  0.00    +0.000 A 
ATOM      9  C   UNL     1       3.292   4.244  19.393  0.00  0.00    +0.000 A 
ATOM     10  H   UNL     1       1.235   6.635  18.809  0.00  0.00    +0.000 HD
ENDROOT
BRANCH   1  14
ATOM     11  F   UNL     1       6.620   3.782  14.537  0.00  0.00    +0.000 F 
ATOM     12  C   UNL     1       6.563   4.183  15.815  0.00  0.00    +0.000 A 
ATOM     13  C   UNL     1       5.317   4.379  16.385  0.00  0.00    +0.000 A 
ATOM     14  C   UNL     1       5.251   4.785  17.718  0.00  0.00    +0.000 A 
ATOM     15  C   UNL     1       6.449   4.966  18.413  0.00  0.00    +0.000 A 
ATOM     16  C   UNL     1       7.647   4.755  17.747  0.00  0.00    +0.000 A 
ATOM     17  N   UNL     1       7.732   4.367  16.460  0.00  0.00    +0.000 NA
ENDBRANCH   1  14
TORSDOF 1
ENDMDL
MODEL 6
REMARK VINA RESULT:      -7.0      2.704      5.747
REMARK  Name = 
REMARK  1 active torsions:
REMARK  status: ('A' for Active; 'I' for Inactive)
REMARK    1  A    between atoms: C_4  and  C_5
REMARK                            x       y       z     vdW  Elec       q    Type
REMARK                         _______ _______ _______ _____ _____    ______ ____
ROOT
ATOM      1  C   UNL     1       3.501   5.538  18.450  0.00  0.00    +0.000 A 
ATOM      2  C   UNL     1       3.063   6.754  17.959  0.00  0.00    +0.000 A 
ATOM      3  N   UNL     1       4.115   7.380  17.345  0.00  0.00    +0.000 N 
ATOM      4  C   UNL     1       5.243   6.602  17.430  0.00  0.00    +0.000 A 
ATOM      5  C   UNL     1       6.530   6.837  16.962  0.00  0.00    +0.000 A 
ATOM      6  N   UNL     1       7.488   5.905  17.167  0.00  0.00    +0.000 NA
ATOM      7  C   UNL     1       7.160   4.764  17.808  0.00  0.00    +0.000 A 
ATOM      8  C   UNL     1       5.894   4.464  18.291  0.00  0.00    +0.000 A 
ATOM      9  C   UNL     1       4.894   5.432  18.107  0.00  0.00    +0.000 A 
ATOM     10  H   UNL     1       4.073   8.288  16.899  0.00  0.00    +0.000 HD
ENDROOT
BRANCH   1  14
ATOM     11  F   UNL     1       0.210   2.013  18.611  0.00  0.00    +0.000 F 
ATOM     12  C   UNL     1       1.006   2.873  19.261  0.00  0.00    +0.000 A 
ATOM     13  C   UNL     1       1.810   3.716  18.513  0.00  0.00    +0.000 A 
ATOM     14  C   UNL     1       2.632   4.622  19.184  0.00  0.00    +0.000 A 
ATOM     15  C   UNL     1       2.595   4.637  20.580  0.00  0.00    +0.000 A 
ATOM     16  C   UNL     1       1.763   3.744  21.237  0.00  0.00    +0.000 A 
ATOM     17  N   UNL     1       0.966   2.859  20.608  0.00  0.00    +0.000 NA
ENDBRANCH   1  14
TORSDOF 1
ENDMDL
MODEL 7
REMARK VINA RESULT:      -6.9      1.620      2.625
REMARK  Name = 
REMARK  1 active torsions:
REMARK  status: ('A' for Active; 'I' for Inactive)
REMARK    1  A    between atoms: C_4  and  C_5
REMARK                            x       y       z     vdW  Elec       q    Type
REMARK                         _______ _______ _______ _____ _____    ______ ____
ROOT
ATOM      1  C   UNL     1       3.882   5.257  18.493  0.00  0.00    +0.000 A 
ATOM      2  C   UNL     1       3.372   6.485  18.871  0.00  0.00    +0.000 A 
ATOM      3  N   UNL     1       2.256   6.275  19.638  0.00  0.00    +0.000 N 
ATOM      4  C   UNL     1       2.017   4.929  19.765  0.00  0.00    +0.000 A 
ATOM      5  C   UNL     1       1.002   4.260  20.439  0.00  0.00    +0.000 A 
ATOM      6  N   UNL     1       0.978   2.908  20.423  0.00  0.00    +0.000 NA
ATOM      7  C   UNL     1       1.953   2.247  19.766  0.00  0.00    +0.000 A 
ATOM      8  C   UNL     1       2.998   2.853  19.083  0.00  0.00    +0.000 A 
ATOM      9  C   UNL     1       3.024   4.258  19.071  0.00  0.00    +0.000 A 
ATOM     10  H   UNL     1       1.684   7.004  20.047  0.00  0.00    +0.000 HD
ENDROOT
BRANCH   1  14
ATOM     11  F   UNL     1       8.527   4.127  17.830  0.00  0.00    +0.000 F 
ATOM     12  C   UNL     1       7.363   4.554  17.321  0.00  0.00    +0.000 A 
ATOM     13  C   UNL     1       6.276   4.663  18.169  0.00  0.00    +0.000 A 
ATOM     14  C   UNL     1       5.065   5.119  17.647  0.00  0.00    +0.000 A 
ATOM     15  C   UNL     1       5.015   5.449  16.291  0.00  0.00    +0.000 A 
ATOM     16  C   UNL     1       6.157   5.294  15.522  0.00  0.00    +0.000 A 
ATOM     17  N   UNL     1       7.334   4.852  16.006  0.00  0.00    +0.000 NA
ENDBRANCH   1  14
TORSDOF 1
ENDMDL
MODEL 8
REMARK VINA RESULT:      -6.9      1.848      2.347
REMARK  Name = 
REMARK  1 active torsions:
REMARK  status: ('A' for Active; 'I' for Inactive)
REMARK    1  A    between atoms: C_4  and  C_5
REMARK                            x       y       z     vdW  Elec       q    Type
REMARK                         _______ _______ _______ _____ _____    ______ ____
ROOT
ATOM      1  C   UNL     1       3.604   4.196  18.171  0.00  0.00    +0.000 A 
ATOM      2  C   UNL     1       2.520   4.614  17.422  0.00  0.00    +0.000 A 
ATOM      3  N   UNL     1       1.373   4.297  18.102  0.00  0.00    +0.000 N 
ATOM      4  C   UNL     1       1.683   3.670  19.283  0.00  0.00    +0.000 A 
ATOM      5  C   UNL     1       0.849   3.169  20.276  0.00  0.00    +0.000 A 
ATOM      6  N   UNL     1       1.397   2.587  21.367  0.00  0.00    +0.000 NA
ATOM      7  C   UNL     1       2.741   2.525  21.466  0.00  0.00    +0.000 A 
ATOM      8  C   UNL     1       3.628   3.013  20.517  0.00  0.00    +0.000 A 
ATOM      9  C   UNL     1       3.074   3.599  19.367  0.00  0.00    +0.000 A 
ATOM     10  H   UNL     1       0.433   4.489  17.780  0.00  0.00    +0.000 HD
ENDROOT
BRANCH   1  14
ATOM     11  F   UNL     1       8.200   5.450  18.940  0.00  0.00    +0.000 F 
ATOM     12  C   UNL     1       7.261   4.979  18.109  0.00  0.00    +0.000 A 
ATOM     13  C   UNL     1       5.970   4.840  18.589  0.00  0.00    +0.000 A 
ATOM     14  C   UNL     1       4.985   4.362  17.724  0.00  0.00    +0.000 A 
ATOM     15  C   UNL     1       5.352   4.053  16.413  0.00  0.00    +0.000 A 
ATOM     16  C   UNL     1       6.676   4.216  16.032  0.00  0.00    +0.000 A 
ATOM     17  N   UNL     1       7.641   4.672  16.853  0.00  0.00    +0.000 NA
ENDBRANCH   1  14
TORSDOF 1
ENDMDL
MODEL 9
REMARK VINA RESULT:      -6.9      1.773      2.834
REMARK  Name = 
REMARK  1 active torsions:
REMARK  status: ('A' for Active; 'I' for Inactive)
REMARK    1  A    between atoms: C_4  and  C_5
REMARK                            x       y       z     vdW  Elec       q    Type
REMARK                         _______ _______ _______ _____ _____    ______ ____
ROOT
ATOM      1  C   UNL     1       3.837   5.306  18.098  0.00  0.00    +0.000 A 
ATOM      2  C   UNL     1       3.231   6.300  18.844  0.00  0.00    +0.000 A 
ATOM      3  N   UNL     1       2.117   5.775  19.444  0.00  0.00    +0.000 N 
ATOM      4  C   UNL     1       1.973   4.455  19.099  0.00  0.00    +0.000 A 
ATOM      5  C   UNL     1       0.993   3.537  19.461  0.00  0.00    +0.000 A 
ATOM      6  N   UNL     1       1.067   2.272  18.989  0.00  0.00    +0.000 NA
ATOM      7  C   UNL     1       2.102   1.933  18.193  0.00  0.00    +0.000 A 
ATOM      8  C   UNL     1       3.116   2.797  17.802  0.00  0.00    +0.000 A 
ATOM      9  C   UNL     1       3.040   4.121  18.265  0.00  0.00    +0.000 A 
ATOM     10  H   UNL     1       1.485   6.287  20.048  0.00  0.00    +0.000 HD
ENDROOT
BRANCH   1  14
ATOM     11  F   UNL     1       8.090   7.466  17.365  0.00  0.00    +0.000 F 
ATOM     12  C   UNL     1       7.153   6.602  16.951  0.00  0.00    +0.000 A 
ATOM     13  C   UNL     1       6.030   6.424  17.741  0.00  0.00    +0.000 A 
ATOM     14  C   UNL     1       5.046   5.535  17.309  0.00  0.00    +0.000 A 
ATOM     15  C   UNL     1       5.241   4.874  16.095  0.00  0.00    +0.000 A 
ATOM     16  C   UNL     1       6.406   5.113  15.383  0.00  0.00    +0.000 A 
ATOM     17  N   UNL     1       7.370   5.963  15.784  0.00  0.00    +0.000 NA
ENDBRANCH   1  14
TORSDOF 1
ENDMDL
