MODEL 1
REMARK VINA RESULT:      -7.1      0.000      0.000
REMARK  Name = 
REMARK  6 active torsions:
REMARK  status: ('A' for Active; 'I' for Inactive)
REMARK    1  A    between atoms: C_2  and  C_3
REMARK    2  A    between atoms: C_6  and  S_7
REMARK    3  A    between atoms: S_7  and  C_8
REMARK    4  A    between atoms: C_8  and  C_9
REMARK    5  A    between atoms: C_9  and  C_10
REMARK    6  A    between atoms: C_17  and  N_18
REMARK                            x       y       z     vdW  Elec       q    Type
REMARK                         _______ _______ _______ _____ _____    ______ ____
ROOT
ATOM      1  C   UNL     1       6.324   4.055  14.227  0.00  0.00    +0.000 A 
ATOM      2  C   UNL     1       5.573   3.635  15.301  0.00  0.00    +0.000 A 
ATOM      3  N   UNL     1       5.703   4.127  16.551  0.00  0.00    +0.000 NA
ATOM      4  C   UNL     1       6.624   5.090  16.712  0.00  0.00    +0.000 A 
ATOM      5  N   UNL     1       7.403   5.571  15.724  0.00  0.00    +0.000 NA
ATOM      6  C   UNL     1       7.253   5.044  14.496  0.00  0.00    +0.000 A 
ENDROOT
BRANCH   6   7
ATOM      7  N   UNL     1       8.048   5.619  13.506  0.00  0.00    +0.000 N 
ATOM      8  H   UNL     1       7.470   5.784  12.683  0.00  0.00    +0.000 HD
ATOM      9  H   UNL     1       8.544   6.454  13.797  0.00  0.00    +0.000 HD
ENDBRANCH   6   7
BRANCH   1  11
ATOM     10  N   UNL     1       6.009   2.989  11.894  0.00  0.00    +0.000 NA
ATOM     11  C   UNL     1       6.138   3.484  12.935  0.00  0.00    +0.000 C 
ENDBRANCH   1  11
BRANCH   4  12
ATOM     12  S   UNL     1       6.813   5.848  18.306  0.00  0.00    +0.000 S 
BRANCH  12  13
ATOM     13  C   UNL     1       5.579   4.918  19.285  0.00  0.00    +0.000 C 
BRANCH  13  14
ATOM     14  C   UNL     1       4.259   5.696  19.305  0.00  0.00    +0.000 C 
BRANCH  14  15
ATOM     15  C   UNL     1       3.046   4.800  19.418  0.00  0.00    +0.000 A 
ATOM     16  C   UNL     1       2.424   4.581  20.656  0.00  0.00    +0.000 A 
ATOM     17  C   UNL     1       1.293   3.766  20.747  0.00  0.00    +0.000 A 
ATOM     18  C   UNL     1       0.772   3.159  19.606  0.00  0.00    +0.000 A 
ATOM     19  C   UNL     1       1.381   3.369  18.371  0.00  0.00    +0.000 A 
ATOM     20  C   UNL     1       2.513   4.183  18.278  0.00  0.00    +0.000 A 
ENDBRANCH  14  15
ENDBRANCH  13  14
ENDBRANCH  12  13
ENDBRANCH   4  12
TORSDOF 6
ENDMDL
MODEL 2
REMARK VINA RESULT:      -7.1      0.060      1.138
REMARK  Name = 
REMARK  6 active torsions:
REMARK  status: ('A' for Active; 'I' for Inactive)
REMARK    1  A    between atoms: C_2  and  C_3
REMARK    2  A    between atoms: C_6  and  S_7
REMARK    3  A    between atoms: S_7  and  C_8
REMARK    4  A    between atoms: C_8  and  C_9
REMARK    5  A    between atoms: C_9  and  C_10
REMARK    6  A    between atoms: C_17  and  N_18
REMARK                            x       y       z     vdW  Elec       q    Type
REMARK                         _______ _______ _______ _____ _____    ______ ____
ROOT
ATOM      1  C   UNL     1       6.300   4.069  14.240  0.00  0.00    +0.000 A 
ATOM      2  C   UNL     1       5.530   3.658  15.304  0.00  0.00    +0.000 A 
ATOM      3  N   UNL     1       5.648   4.153  16.555  0.00  0.00    +0.000 NA
ATOM      4  C   UNL     1       6.576   5.107  16.726  0.00  0.00    +0.000 A 
ATOM      5  N   UNL     1       7.373   5.576  15.748  0.00  0.00    +0.000 NA
ATOM      6  C   UNL     1       7.235   5.048  14.519  0.00  0.00    +0.000 A 
ENDROOT
BRANCH   6   7
ATOM      7  N   UNL     1       8.049   5.613  13.539  0.00  0.00    +0.000 N 
ATOM      8  H   UNL     1       8.416   4.865  12.953  0.00  0.00    +0.000 HD
ATOM      9  H   UNL     1       7.605   6.342  12.992  0.00  0.00    +0.000 HD
ENDBRANCH   6   7
BRANCH   1  11
ATOM     10  N   UNL     1       5.947   3.024  11.903  0.00  0.00    +0.000 NA
ATOM     11  C   UNL     1       6.126   3.496  12.946  0.00  0.00    +0.000 C 
ENDBRANCH   1  11
BRANCH   4  12
ATOM     12  S   UNL     1       6.750   5.866  18.322  0.00  0.00    +0.000 S 
BRANCH  12  13
ATOM     13  C   UNL     1       5.520   4.926  19.295  0.00  0.00    +0.000 C 
BRANCH  13  14
ATOM     14  C   UNL     1       4.194   5.694  19.310  0.00  0.00    +0.000 C 
BRANCH  14  15
ATOM     15  C   UNL     1       2.987   4.789  19.421  0.00  0.00    +0.000 A 
ATOM     16  C   UNL     1       2.433   4.183  18.285  0.00  0.00    +0.000 A 
ATOM     17  C   UNL     1       1.328   3.335  18.401  0.00  0.00    +0.000 A 
ATOM     18  C   UNL     1       0.764   3.085  19.650  0.00  0.00    +0.000 A 
ATOM     19  C   UNL     1       1.307   3.682  20.787  0.00  0.00    +0.000 A 
ATOM     20  C   UNL     1       2.410   4.530  20.673  0.00  0.00    +0.000 A 
ENDBRANCH  14  15
ENDBRANCH  13  14
ENDBRANCH  12  13
ENDBRANCH   4  12
TORSDOF 6
ENDMDL
MODEL 3
REMARK VINA RESULT:      -6.7      2.755      3.840
REMARK  Name = 
REMARK  6 active torsions:
REMARK  status: ('A' for Active; 'I' for Inactive)
REMARK    1  A    between atoms: C_2  and  C_3
REMARK    2  A    between atoms: C_6  and  S_7
REMARK    3  A    between atoms: S_7  and  C_8
REMARK    4  A    between atoms: C_8  and  C_9
REMARK    5  A    between atoms: C_9  and  C_10
REMARK    6  A    between atoms: C_17  and  N_18
REMARK                            x       y       z     vdW  Elec       q    Type
REMARK                         _______ _______ _______ _____ _____    ______ ____
ROOT
ATOM      1  C   UNL     1       6.079   4.579  16.553  0.00  0.00    +0.000 A 
ATOM      2  C   UNL     1       4.779   4.233  16.261  0.00  0.00    +0.000 A 
ATOM      3  N   UNL     1       3.898   3.771  17.174  0.00  0.00    +0.000 NA
ATOM      4  C   UNL     1       4.353   3.669  18.432  0.00  0.00    +0.000 A 
ATOM      5  N   UNL     1       5.604   3.986  18.817  0.00  0.00    +0.000 NA
ATOM      6  C   UNL     1       6.457   4.428  17.875  0.00  0.00    +0.000 A 
ENDROOT
BRANCH   6   7
ATOM      7  N   UNL     1       7.718   4.792  18.343  0.00  0.00    +0.000 N 
ATOM      8  H   UNL     1       8.421   4.379  17.732  0.00  0.00    +0.000 HD
ATOM      9  H   UNL     1       7.852   5.790  18.458  0.00  0.00    +0.000 HD
ENDBRANCH   6   7
BRANCH   1  11
ATOM     10  N   UNL     1       7.667   5.402  14.689  0.00  0.00    +0.000 NA
ATOM     11  C   UNL     1       6.957   5.052  15.535  0.00  0.00    +0.000 C 
ENDBRANCH   1  11
BRANCH   4  12
ATOM     12  S   UNL     1       3.243   3.140  19.712  0.00  0.00    +0.000 S 
BRANCH  12  13
ATOM     13  C   UNL     1       2.058   4.533  19.746  0.00  0.00    +0.000 C 
BRANCH  13  14
ATOM     14  C   UNL     1       2.759   5.779  20.299  0.00  0.00    +0.000 C 
BRANCH  14  15
ATOM     15  C   UNL     1       2.278   7.062  19.658  0.00  0.00    +0.000 A 
ATOM     16  C   UNL     1       1.554   8.009  20.396  0.00  0.00    +0.000 A 
ATOM     17  C   UNL     1       1.129   9.199  19.800  0.00  0.00    +0.000 A 
ATOM     18  C   UNL     1       1.419   9.455  18.462  0.00  0.00    +0.000 A 
ATOM     19  C   UNL     1       2.137   8.521  17.718  0.00  0.00    +0.000 A 
ATOM     20  C   UNL     1       2.562   7.330  18.312  0.00  0.00    +0.000 A 
ENDBRANCH  14  15
ENDBRANCH  13  14
ENDBRANCH  12  13
ENDBRANCH   4  12
TORSDOF 6
ENDMDL
MODEL 4
REMARK VINA RESULT:      -6.6      2.356      3.748
REMARK  Name = 
REMARK  6 active torsions:
REMARK  status: ('A' for Active; 'I' for Inactive)
REMARK    1  A    between atoms: C_2  and  C_3
REMARK    2  A    between atoms: C_6  and  S_7
REMARK    3  A    between atoms: S_7  and  C_8
REMARK    4  A    between atoms: C_8  and  C_9
REMARK    5  A    between atoms: C_9  and  C_10
REMARK    6  A    between atoms: C_17  and  N_18
REMARK                            x       y       z     vdW  Elec       q    Type
REMARK                         _______ _______ _______ _____ _____    ______ ____
ROOT
ATOM      1  C   UNL     1       6.224   5.324  17.557  0.00  0.00    +0.000 A 
ATOM      2  C   UNL     1       6.021   5.031  18.886  0.00  0.00    +0.000 A 
ATOM      3  N   UNL     1       5.245   4.016  19.325  0.00  0.00    +0.000 NA
ATOM      4  C   UNL     1       4.664   3.266  18.376  0.00  0.00    +0.000 A 
ATOM      5  N   UNL     1       4.806   3.471  17.052  0.00  0.00    +0.000 NA
ATOM      6  C   UNL     1       5.575   4.500  16.656  0.00  0.00    +0.000 A 
ENDROOT
BRANCH   6   7
ATOM      7  N   UNL     1       5.726   4.627  15.276  0.00  0.00    +0.000 N 
ATOM      8  H   UNL     1       5.725   3.695  14.864  0.00  0.00    +0.000 HD
ATOM      9  H   UNL     1       5.050   5.240  14.833  0.00  0.00    +0.000 HD
ENDBRANCH   6   7
BRANCH   1  11
ATOM     10  N   UNL     1       7.721   7.320  16.885  0.00  0.00    +0.000 NA
ATOM     11  C   UNL     1       7.051   6.417  17.166  0.00  0.00    +0.000 C 
ENDBRANCH   1  11
BRANCH   4  12
ATOM     12  S   UNL     1       3.686   1.866  18.860  0.00  0.00    +0.000 S 
BRANCH  12  13
ATOM     13  C   UNL     1       2.187   2.118  17.843  0.00  0.00    +0.000 C 
BRANCH  13  14
ATOM     14  C   UNL     1       1.137   2.868  18.670  0.00  0.00    +0.000 C 
BRANCH  14  15
ATOM     15  C   UNL     1       1.549   4.284  19.005  0.00  0.00    +0.000 A 
ATOM     16  C   UNL     1       1.525   4.748  20.328  0.00  0.00    +0.000 A 
ATOM     17  C   UNL     1       1.925   6.052  20.630  0.00  0.00    +0.000 A 
ATOM     18  C   UNL     1       2.348   6.908  19.615  0.00  0.00    +0.000 A 
ATOM     19  C   UNL     1       2.376   6.459  18.297  0.00  0.00    +0.000 A 
ATOM     20  C   UNL     1       1.976   5.155  17.993  0.00  0.00    +0.000 A 
ENDBRANCH  14  15
ENDBRANCH  13  14
ENDBRANCH  12  13
ENDBRANCH   4  12
TORSDOF 6
ENDMDL
MODEL 5
REMARK VINA RESULT:      -6.6      1.003      1.038
REMARK  Name = 
REMARK  6 active torsions:
REMARK  status: ('A' for Active; 'I' for Inactive)
REMARK    1  A    between atoms: C_2  and  C_3
REMARK    2  A    between atoms: C_6  and  S_7
REMARK    3  A    between atoms: S_7  and  C_8
REMARK    4  A    between atoms: C_8  and  C_9
REMARK    5  A    between atoms: C_9  and  C_10
REMARK    6  A    between atoms: C_17  and  N_18
REMARK                            x       y       z     vdW  Elec       q    Type
REMARK                         _______ _______ _______ _____ _____    ______ ____
ROOT
ATOM      1  C   UNL     1       6.196   4.116  14.102  0.00  0.00    +0.000 A 
ATOM      2  C   UNL     1       5.117   3.772  14.884  0.00  0.00    +0.000 A 
ATOM      3  N   UNL     1       4.859   4.312  16.094  0.00  0.00    +0.000 NA
ATOM      4  C   UNL     1       5.726   5.244  16.519  0.00  0.00    +0.000 A 
ATOM      5  N   UNL     1       6.807   5.650  15.826  0.00  0.00    +0.000 NA
ATOM      6  C   UNL     1       7.037   5.078  14.631  0.00  0.00    +0.000 A 
ENDROOT
BRANCH   6   7
ATOM      7  N   UNL     1       8.138   5.578  13.939  0.00  0.00    +0.000 N 
ATOM      8  H   UNL     1       7.826   5.901  13.025  0.00  0.00    +0.000 HD
ATOM      9  H   UNL     1       8.660   6.291  14.437  0.00  0.00    +0.000 HD
ENDBRANCH   6   7
BRANCH   1  11
ATOM     10  N   UNL     1       6.589   3.029  11.791  0.00  0.00    +0.000 NA
ATOM     11  C   UNL     1       6.411   3.497  12.836  0.00  0.00    +0.000 C 
ENDBRANCH   1  11
BRANCH   4  12
ATOM     12  S   UNL     1       5.426   6.062  18.066  0.00  0.00    +0.000 S 
BRANCH  12  13
ATOM     13  C   UNL     1       3.776   6.790  17.764  0.00  0.00    +0.000 C 
BRANCH  13  14
ATOM     14  C   UNL     1       2.952   6.727  19.055  0.00  0.00    +0.000 C 
BRANCH  14  15
ATOM     15  C   UNL     1       2.243   5.404  19.241  0.00  0.00    +0.000 A 
ATOM     16  C   UNL     1       1.837   4.977  20.513  0.00  0.00    +0.000 A 
ATOM     17  C   UNL     1       1.167   3.761  20.673  0.00  0.00    +0.000 A 
ATOM     18  C   UNL     1       0.899   2.958  19.566  0.00  0.00    +0.000 A 
ATOM     19  C   UNL     1       1.298   3.373  18.297  0.00  0.00    +0.000 A 
ATOM     20  C   UNL     1       1.968   4.587  18.136  0.00  0.00    +0.000 A 
ENDBRANCH  14  15
ENDBRANCH  13  14
ENDBRANCH  12  13
ENDBRANCH   4  12
TORSDOF 6
ENDMDL
MODEL 6
REMARK VINA RESULT:      -6.6      1.005      1.536
REMARK  Name = 
REMARK  6 active torsions:
REMARK  status: ('A' for Active; 'I' for Inactive)
REMARK    1  A    between atoms: C_2  and  C_3
REMARK    2  A    between atoms: C_6  and  S_7
REMARK    3  A    between atoms: S_7  and  C_8
REMARK    4  A    between atoms: C_8  and  C_9
REMARK    5  A    between atoms: C_9  and  C_10
REMARK    6  A    between atoms: C_17  and  N_18
REMARK                            x       y       z     vdW  Elec       q    Type
REMARK                         _______ _______ _______ _____ _____    ______ ____
ROOT
ATOM      1  C   UNL     1       6.226   4.115  14.054  0.00  0.00    +0.000 A 
ATOM      2  C   UNL     1       5.150   3.750  14.831  0.00  0.00    +0.000 A 
ATOM      3  N   UNL     1       4.888   4.271  16.048  0.00  0.00    +0.000 NA
ATOM      4  C   UNL     1       5.745   5.206  16.486  0.00  0.00    +0.000 A 
ATOM      5  N   UNL     1       6.822   5.632  15.799  0.00  0.00    +0.000 NA
ATOM      6  C   UNL     1       7.057   5.077  14.596  0.00  0.00    +0.000 A 
ENDROOT
BRANCH   6   7
ATOM      7  N   UNL     1       8.153   5.598  13.911  0.00  0.00    +0.000 N 
ATOM      8  H   UNL     1       8.832   4.851  13.771  0.00  0.00    +0.000 HD
ATOM      9  H   UNL     1       7.922   6.069  13.043  0.00  0.00    +0.000 HD
ENDBRANCH   6   7
BRANCH   1  11
ATOM     10  N   UNL     1       6.653   3.006  11.760  0.00  0.00    +0.000 NA
ATOM     11  C   UNL     1       6.446   3.515  12.780  0.00  0.00    +0.000 C 
ENDBRANCH   1  11
BRANCH   4  12
ATOM     12  S   UNL     1       5.437   5.999  18.045  0.00  0.00    +0.000 S 
BRANCH  12  13
ATOM     13  C   UNL     1       3.803   6.759  17.735  0.00  0.00    +0.000 C 
BRANCH  13  14
ATOM     14  C   UNL     1       2.969   6.702  19.019  0.00  0.00    +0.000 C 
BRANCH  14  15
ATOM     15  C   UNL     1       2.246   5.386  19.198  0.00  0.00    +0.000 A 
ATOM     16  C   UNL     1       1.973   4.558  18.099  0.00  0.00    +0.000 A 
ATOM     17  C   UNL     1       1.320   3.335  18.277  0.00  0.00    +0.000 A 
ATOM     18  C   UNL     1       0.930   2.928  19.551  0.00  0.00    +0.000 A 
ATOM     19  C   UNL     1       1.196   3.742  20.650  0.00  0.00    +0.000 A 
ATOM     20  C   UNL     1       1.848   4.964  20.475  0.00  0.00    +0.000 A 
ENDBRANCH  14  15
ENDBRANCH  13  14
ENDBRANCH  12  13
ENDBRANCH   4  12
TORSDOF 6
ENDMDL
MODEL 7
REMARK VINA RESULT:      -6.6      2.557      4.092
REMARK  Name = 
REMARK  6 active torsions:
REMARK  status: ('A' for Active; 'I' for Inactive)
REMARK    1  A    between atoms: C_2  and  C_3
REMARK    2  A    between atoms: C_6  and  S_7
REMARK    3  A    between atoms: S_7  and  C_8
REMARK    4  A    between atoms: C_8  and  C_9
REMARK    5  A    between atoms: C_9  and  C_10
REMARK    6  A    between atoms: C_17  and  N_18
REMARK                            x       y       z     vdW  Elec       q    Type
REMARK                         _______ _______ _______ _____ _____    ______ ____
ROOT
ATOM      1  C   UNL     1       6.256   5.154  17.478  0.00  0.00    +0.000 A 
ATOM      2  C   UNL     1       5.450   4.459  16.605  0.00  0.00    +0.000 A 
ATOM      3  N   UNL     1       4.649   3.435  16.971  0.00  0.00    +0.000 NA
ATOM      4  C   UNL     1       4.660   3.115  18.274  0.00  0.00    +0.000 A 
ATOM      5  N   UNL     1       5.409   3.737  19.204  0.00  0.00    +0.000 NA
ATOM      6  C   UNL     1       6.205   4.742  18.798  0.00  0.00    +0.000 A 
ENDROOT
BRANCH   6   7
ATOM      7  N   UNL     1       6.913   5.382  19.813  0.00  0.00    +0.000 N 
ATOM      8  H   UNL     1       6.461   6.273  20.011  0.00  0.00    +0.000 HD
ATOM      9  H   UNL     1       7.041   4.826  20.652  0.00  0.00    +0.000 HD
ENDBRANCH   6   7
BRANCH   1  11
ATOM     10  N   UNL     1       7.728   7.112  16.656  0.00  0.00    +0.000 NA
ATOM     11  C   UNL     1       7.083   6.220  17.020  0.00  0.00    +0.000 C 
ENDBRANCH   1  11
BRANCH   4  12
ATOM     12  S   UNL     1       3.583   1.829  18.857  0.00  0.00    +0.000 S 
BRANCH  12  13
ATOM     13  C   UNL     1       2.083   2.150  17.861  0.00  0.00    +0.000 C 
BRANCH  13  14
ATOM     14  C   UNL     1       1.074   2.934  18.706  0.00  0.00    +0.000 C 
BRANCH  14  15
ATOM     15  C   UNL     1       1.536   4.338  19.028  0.00  0.00    +0.000 A 
ATOM     16  C   UNL     1       1.978   5.201  18.015  0.00  0.00    +0.000 A 
ATOM     17  C   UNL     1       2.386   6.503  18.320  0.00  0.00    +0.000 A 
ATOM     18  C   UNL     1       2.360   6.955  19.638  0.00  0.00    +0.000 A 
ATOM     19  C   UNL     1       1.922   6.106  20.652  0.00  0.00    +0.000 A 
ATOM     20  C   UNL     1       1.515   4.805  20.350  0.00  0.00    +0.000 A 
ENDBRANCH  14  15
ENDBRANCH  13  14
ENDBRANCH  12  13
ENDBRANCH   4  12
TORSDOF 6
ENDMDL
MODEL 8
REMARK VINA RESULT:      -6.6      2.365      3.906
REMARK  Name = 
REMARK  6 active torsions:
REMARK  status: ('A' for Active; 'I' for Inactive)
REMARK    1  A    between atoms: C_2  and  C_3
REMARK    2  A    between atoms: C_6  and  S_7
REMARK    3  A    between atoms: S_7  and  C_8
REMARK    4  A    between atoms: C_8  and  C_9
REMARK    5  A    between atoms: C_9  and  C_10
REMARK    6  A    between atoms: C_17  and  N_18
REMARK                            x       y       z     vdW  Elec       q    Type
REMARK                         _______ _______ _______ _____ _____    ______ ____
ROOT
ATOM      1  C   UNL     1       6.196   5.218  17.521  0.00  0.00    +0.000 A 
ATOM      2  C   UNL     1       6.020   4.918  18.853  0.00  0.00    +0.000 A 
ATOM      3  N   UNL     1       5.232   3.917  19.302  0.00  0.00    +0.000 NA
ATOM      4  C   UNL     1       4.610   3.190  18.362  0.00  0.00    +0.000 A 
ATOM      5  N   UNL     1       4.723   3.403  17.037  0.00  0.00    +0.000 NA
ATOM      6  C   UNL     1       5.505   4.418  16.630  0.00  0.00    +0.000 A 
ENDROOT
BRANCH   6   7
ATOM      7  N   UNL     1       5.624   4.554  15.248  0.00  0.00    +0.000 N 
ATOM      8  H   UNL     1       6.307   3.875  14.914  0.00  0.00    +0.000 HD
ATOM      9  H   UNL     1       4.748   4.493  14.742  0.00  0.00    +0.000 HD
ENDBRANCH   6   7
BRANCH   1  11
ATOM     10  N   UNL     1       7.699   7.178  16.761  0.00  0.00    +0.000 NA
ATOM     11  C   UNL     1       7.038   6.296  17.119  0.00  0.00    +0.000 C 
ENDBRANCH   1  11
BRANCH   4  12
ATOM     12  S   UNL     1       3.612   1.808  18.858  0.00  0.00    +0.000 S 
BRANCH  12  13
ATOM     13  C   UNL     1       2.054   2.163  17.969  0.00  0.00    +0.000 C 
BRANCH  13  14
ATOM     14  C   UNL     1       1.109   2.935  18.896  0.00  0.00    +0.000 C 
BRANCH  14  15
ATOM     15  C   UNL     1       1.549   4.363  19.135  0.00  0.00    +0.000 A 
ATOM     16  C   UNL     1       1.974   5.173  18.073  0.00  0.00    +0.000 A 
ATOM     17  C   UNL     1       2.361   6.496  18.301  0.00  0.00    +0.000 A 
ATOM     18  C   UNL     1       2.332   7.022  19.591  0.00  0.00    +0.000 A 
ATOM     19  C   UNL     1       1.912   6.226  20.654  0.00  0.00    +0.000 A 
ATOM     20  C   UNL     1       1.524   4.904  20.428  0.00  0.00    +0.000 A 
ENDBRANCH  14  15
ENDBRANCH  13  14
ENDBRANCH  12  13
ENDBRANCH   4  12
TORSDOF 6
ENDMDL
MODEL 9
REMARK VINA RESULT:      -6.5      3.136      7.104
REMARK  Name = 
REMARK  6 active torsions:
REMARK  status: ('A' for Active; 'I' for Inactive)
REMARK    1  A    between atoms: C_2  and  C_3
REMARK    2  A    between atoms: C_6  and  S_7
REMARK    3  A    between atoms: S_7  and  C_8
REMARK    4  A    between atoms: C_8  and  C_9
REMARK    5  A    between atoms: C_9  and  C_10
REMARK    6  A    between atoms: C_17  and  N_18
REMARK                            x       y       z     vdW  Elec       q    Type
REMARK                         _______ _______ _______ _____ _____    ______ ____
ROOT
ATOM      1  C   UNL     1       2.955   3.410  20.765  0.00  0.00    +0.000 A 
ATOM      2  C   UNL     1       4.014   2.645  20.330  0.00  0.00    +0.000 A 
ATOM      3  N   UNL     1       4.999   3.107  19.530  0.00  0.00    +0.000 NA
ATOM      4  C   UNL     1       4.909   4.396  19.169  0.00  0.00    +0.000 A 
ATOM      5  N   UNL     1       3.916   5.224  19.546  0.00  0.00    +0.000 NA
ATOM      6  C   UNL     1       2.946   4.722  20.331  0.00  0.00    +0.000 A 
ENDROOT
BRANCH   6   7
ATOM      7  N   UNL     1       1.977   5.640  20.731  0.00  0.00    +0.000 N 
ATOM      8  H   UNL     1       2.436   6.526  20.939  0.00  0.00    +0.000 HD
ATOM      9  H   UNL     1       1.209   5.754  20.078  0.00  0.00    +0.000 HD
ENDBRANCH   6   7
BRANCH   1  11
ATOM     10  N   UNL     1       1.152   2.381  22.304  0.00  0.00    +0.000 NA
ATOM     11  C   UNL     1       1.946   2.853  21.603  0.00  0.00    +0.000 C 
ENDBRANCH   1  11
BRANCH   4  12
ATOM     12  S   UNL     1       6.198   5.108  18.178  0.00  0.00    +0.000 S 
BRANCH  12  13
ATOM     13  C   UNL     1       5.291   5.475  16.633  0.00  0.00    +0.000 C 
BRANCH  13  14
ATOM     14  C   UNL     1       5.138   4.186  15.819  0.00  0.00    +0.000 C 
BRANCH  14  15
ATOM     15  C   UNL     1       5.858   4.236  14.489  0.00  0.00    +0.000 A 
ATOM     16  C   UNL     1       7.044   4.968  14.339  0.00  0.00    +0.000 A 
ATOM     17  C   UNL     1       7.712   4.994  13.111  0.00  0.00    +0.000 A 
ATOM     18  C   UNL     1       7.201   4.292  12.022  0.00  0.00    +0.000 A 
ATOM     19  C   UNL     1       6.023   3.561  12.159  0.00  0.00    +0.000 A 
ATOM     20  C   UNL     1       5.354   3.535  13.385  0.00  0.00    +0.000 A 
ENDBRANCH  14  15
ENDBRANCH  13  14
ENDBRANCH  12  13
ENDBRANCH   4  12
TORSDOF 6
ENDMDL
