MODEL 1
REMARK VINA RESULT:      -7.3      0.000      0.000
REMARK  Name = 
REMARK  2 active torsions:
REMARK  status: ('A' for Active; 'I' for Inactive)
REMARK    1  A    between atoms: C_2  and  C_3
REMARK    2  A    between atoms: C_7  and  C_8
REMARK                            x       y       z     vdW  Elec       q    Type
REMARK                         _______ _______ _______ _____ _____    ______ ____
ROOT
ATOM      1  C   UNL     1       4.504   3.888  18.388  0.00  0.00    +0.000 A 
ATOM      2  N   UNL     1       4.794   3.229  19.496  0.00  0.00    +0.000 NA
ATOM      3  C   UNL     1       3.585   3.099  20.114  0.00  0.00    +0.000 A 
ATOM      4  N   UNL     1       3.350   2.500  21.303  0.00  0.00    +0.000 NA
ATOM      5  C   UNL     1       2.048   2.518  21.671  0.00  0.00    +0.000 A 
ATOM      6  C   UNL     1       0.997   3.076  20.940  0.00  0.00    +0.000 A 
ATOM      7  C   UNL     1       1.255   3.692  19.713  0.00  0.00    +0.000 A 
ATOM      8  C   UNL     1       2.589   3.678  19.345  0.00  0.00    +0.000 A 
ATOM      9  O   UNL     1       3.172   4.194  18.228  0.00  0.00    +0.000 OA
ENDROOT
BRANCH   1  14
ATOM     10  C   UNL     1       6.190   4.329  15.029  0.00  0.00    +0.000 A 
ATOM     11  C   UNL     1       7.135   5.312  15.337  0.00  0.00    +0.000 A 
ATOM     12  C   UNL     1       7.229   5.804  16.638  0.00  0.00    +0.000 A 
ATOM     13  C   UNL     1       6.371   5.321  17.628  0.00  0.00    +0.000 A 
ATOM     14  C   UNL     1       5.409   4.341  17.336  0.00  0.00    +0.000 A 
ATOM     15  C   UNL     1       5.334   3.843  16.026  0.00  0.00    +0.000 A 
BRANCH  10  17
ATOM     16  N   UNL     1       6.004   3.420  12.607  0.00  0.00    +0.000 NA
ATOM     17  C   UNL     1       6.089   3.824  13.691  0.00  0.00    +0.000 C 
ENDBRANCH  10  17
ENDBRANCH   1  14
TORSDOF 2
ENDMDL
MODEL 2
REMARK VINA RESULT:      -7.0      1.179      1.468
REMARK  Name = 
REMARK  2 active torsions:
REMARK  status: ('A' for Active; 'I' for Inactive)
REMARK    1  A    between atoms: C_2  and  C_3
REMARK    2  A    between atoms: C_7  and  C_8
REMARK                            x       y       z     vdW  Elec       q    Type
REMARK                         _______ _______ _______ _____ _____    ______ ____
ROOT
ATOM      1  C   UNL     1       4.127   4.105  18.046  0.00  0.00    +0.000 A 
ATOM      2  N   UNL     1       2.838   4.389  17.992  0.00  0.00    +0.000 NA
ATOM      3  C   UNL     1       2.343   3.841  19.138  0.00  0.00    +0.000 A 
ATOM      4  N   UNL     1       1.053   3.853  19.544  0.00  0.00    +0.000 NA
ATOM      5  C   UNL     1       0.852   3.230  20.729  0.00  0.00    +0.000 A 
ATOM      6  C   UNL     1       1.835   2.621  21.512  0.00  0.00    +0.000 A 
ATOM      7  C   UNL     1       3.163   2.616  21.080  0.00  0.00    +0.000 A 
ATOM      8  C   UNL     1       3.362   3.247  19.864  0.00  0.00    +0.000 A 
ATOM      9  O   UNL     1       4.520   3.408  19.166  0.00  0.00    +0.000 OA
ENDROOT
BRANCH   1  14
ATOM     10  C   UNL     1       6.123   4.270  14.836  0.00  0.00    +0.000 A 
ATOM     11  C   UNL     1       7.170   5.113  15.220  0.00  0.00    +0.000 A 
ATOM     12  C   UNL     1       7.228   5.600  16.525  0.00  0.00    +0.000 A 
ATOM     13  C   UNL     1       6.233   5.253  17.442  0.00  0.00    +0.000 A 
ATOM     14  C   UNL     1       5.169   4.415  17.072  0.00  0.00    +0.000 A 
ATOM     15  C   UNL     1       5.130   3.920  15.760  0.00  0.00    +0.000 A 
BRANCH  10  17
ATOM     16  N   UNL     1       6.011   3.372  12.405  0.00  0.00    +0.000 NA
ATOM     17  C   UNL     1       6.060   3.771  13.493  0.00  0.00    +0.000 C 
ENDBRANCH  10  17
ENDBRANCH   1  14
TORSDOF 2
ENDMDL
MODEL 3
REMARK VINA RESULT:      -7.0      2.341      6.513
REMARK  Name = 
REMARK  2 active torsions:
REMARK  status: ('A' for Active; 'I' for Inactive)
REMARK    1  A    between atoms: C_2  and  C_3
REMARK    2  A    between atoms: C_7  and  C_8
REMARK                            x       y       z     vdW  Elec       q    Type
REMARK                         _______ _______ _______ _____ _____    ______ ____
ROOT
ATOM      1  C   UNL     1       5.279   4.707  16.082  0.00  0.00    +0.000 A 
ATOM      2  N   UNL     1       6.369   5.424  15.877  0.00  0.00    +0.000 NA
ATOM      3  C   UNL     1       6.754   5.064  14.620  0.00  0.00    +0.000 A 
ATOM      4  N   UNL     1       7.837   5.518  13.949  0.00  0.00    +0.000 NA
ATOM      5  C   UNL     1       7.971   4.984  12.712  0.00  0.00    +0.000 A 
ATOM      6  C   UNL     1       7.110   4.057  12.121  0.00  0.00    +0.000 A 
ATOM      7  C   UNL     1       5.996   3.596  12.826  0.00  0.00    +0.000 A 
ATOM      8  C   UNL     1       5.868   4.139  14.093  0.00  0.00    +0.000 A 
ATOM      9  O   UNL     1       4.911   3.898  15.032  0.00  0.00    +0.000 OA
ENDROOT
BRANCH   1  14
ATOM     10  C   UNL     1       2.514   3.800  18.502  0.00  0.00    +0.000 A 
ATOM     11  C   UNL     1       2.901   4.530  19.629  0.00  0.00    +0.000 A 
ATOM     12  C   UNL     1       4.044   5.327  19.583  0.00  0.00    +0.000 A 
ATOM     13  C   UNL     1       4.805   5.385  18.414  0.00  0.00    +0.000 A 
ATOM     14  C   UNL     1       4.438   4.651  17.274  0.00  0.00    +0.000 A 
ATOM     15  C   UNL     1       3.278   3.864  17.329  0.00  0.00    +0.000 A 
BRANCH  10  17
ATOM     16  N   UNL     1       0.392   2.311  18.591  0.00  0.00    +0.000 NA
ATOM     17  C   UNL     1       1.341   2.976  18.548  0.00  0.00    +0.000 C 
ENDBRANCH  10  17
ENDBRANCH   1  14
TORSDOF 2
ENDMDL
MODEL 4
REMARK VINA RESULT:      -7.0      2.584      6.449
REMARK  Name = 
REMARK  2 active torsions:
REMARK  status: ('A' for Active; 'I' for Inactive)
REMARK    1  A    between atoms: C_2  and  C_3
REMARK    2  A    between atoms: C_7  and  C_8
REMARK                            x       y       z     vdW  Elec       q    Type
REMARK                         _______ _______ _______ _____ _____    ______ ____
ROOT
ATOM      1  C   UNL     1       4.762   4.776  18.341  0.00  0.00    +0.000 A 
ATOM      2  N   UNL     1       4.777   5.723  17.419  0.00  0.00    +0.000 NA
ATOM      3  C   UNL     1       5.959   6.365  17.643  0.00  0.00    +0.000 A 
ATOM      4  N   UNL     1       6.439   7.429  16.960  0.00  0.00    +0.000 NA
ATOM      5  C   UNL     1       7.645   7.858  17.402  0.00  0.00    +0.000 A 
ATOM      6  C   UNL     1       8.380   7.299  18.451  0.00  0.00    +0.000 A 
ATOM      7  C   UNL     1       7.871   6.201  19.147  0.00  0.00    +0.000 A 
ATOM      8  C   UNL     1       6.635   5.771  18.697  0.00  0.00    +0.000 A 
ATOM      9  O   UNL     1       5.868   4.745  19.158  0.00  0.00    +0.000 OA
ENDROOT
BRANCH   1  14
ATOM     10  C   UNL     1       2.148   2.685  20.107  0.00  0.00    +0.000 A 
ATOM     11  C   UNL     1       1.671   1.910  19.046  0.00  0.00    +0.000 A 
ATOM     12  C   UNL     1       2.220   2.060  17.774  0.00  0.00    +0.000 A 
ATOM     13  C   UNL     1       3.237   2.992  17.559  0.00  0.00    +0.000 A 
ATOM     14  C   UNL     1       3.723   3.786  18.610  0.00  0.00    +0.000 A 
ATOM     15  C   UNL     1       3.173   3.616  19.890  0.00  0.00    +0.000 A 
BRANCH  10  17
ATOM     16  N   UNL     1       1.129   2.419  22.477  0.00  0.00    +0.000 NA
ATOM     17  C   UNL     1       1.583   2.536  21.416  0.00  0.00    +0.000 C 
ENDBRANCH  10  17
ENDBRANCH   1  14
TORSDOF 2
ENDMDL
MODEL 5
REMARK VINA RESULT:      -6.9      2.128      6.458
REMARK  Name = 
REMARK  2 active torsions:
REMARK  status: ('A' for Active; 'I' for Inactive)
REMARK    1  A    between atoms: C_2  and  C_3
REMARK    2  A    between atoms: C_7  and  C_8
REMARK                            x       y       z     vdW  Elec       q    Type
REMARK                         _______ _______ _______ _____ _____    ______ ____
ROOT
ATOM      1  C   UNL     1       4.445   5.361  17.575  0.00  0.00    +0.000 A 
ATOM      2  N   UNL     1       5.606   5.971  17.415  0.00  0.00    +0.000 NA
ATOM      3  C   UNL     1       6.075   5.457  16.242  0.00  0.00    +0.000 A 
ATOM      4  N   UNL     1       7.251   5.759  15.645  0.00  0.00    +0.000 NA
ATOM      5  C   UNL     1       7.454   5.094  14.483  0.00  0.00    +0.000 A 
ATOM      6  C   UNL     1       6.577   4.178  13.898  0.00  0.00    +0.000 A 
ATOM      7  C   UNL     1       5.367   3.876  14.527  0.00  0.00    +0.000 A 
ATOM      8  C   UNL     1       5.167   4.552  15.718  0.00  0.00    +0.000 A 
ATOM      9  O   UNL     1       4.110   4.480  16.574  0.00  0.00    +0.000 OA
ENDROOT
BRANCH   1  14
ATOM     10  C   UNL     1       2.277   4.567  20.574  0.00  0.00    +0.000 A 
ATOM     11  C   UNL     1       1.713   5.821  20.829  0.00  0.00    +0.000 A 
ATOM     12  C   UNL     1       2.026   6.905  20.010  0.00  0.00    +0.000 A 
ATOM     13  C   UNL     1       2.911   6.738  18.943  0.00  0.00    +0.000 A 
ATOM     14  C   UNL     1       3.495   5.489  18.676  0.00  0.00    +0.000 A 
ATOM     15  C   UNL     1       3.161   4.403  19.499  0.00  0.00    +0.000 A 
BRANCH  10  17
ATOM     16  N   UNL     1       1.698   2.549  22.096  0.00  0.00    +0.000 NA
ATOM     17  C   UNL     1       1.959   3.453  21.417  0.00  0.00    +0.000 C 
ENDBRANCH  10  17
ENDBRANCH   1  14
TORSDOF 2
ENDMDL
MODEL 6
REMARK VINA RESULT:      -6.9      1.007      1.062
REMARK  Name = 
REMARK  2 active torsions:
REMARK  status: ('A' for Active; 'I' for Inactive)
REMARK    1  A    between atoms: C_2  and  C_3
REMARK    2  A    between atoms: C_7  and  C_8
REMARK                            x       y       z     vdW  Elec       q    Type
REMARK                         _______ _______ _______ _____ _____    ______ ____
ROOT
ATOM      1  C   UNL     1       4.251   4.150  17.736  0.00  0.00    +0.000 A 
ATOM      2  N   UNL     1       4.257   4.540  18.998  0.00  0.00    +0.000 NA
ATOM      3  C   UNL     1       3.069   4.074  19.480  0.00  0.00    +0.000 A 
ATOM      4  N   UNL     1       2.595   4.228  20.737  0.00  0.00    +0.000 NA
ATOM      5  C   UNL     1       1.383   3.657  20.933  0.00  0.00    +0.000 A 
ATOM      6  C   UNL     1       0.643   2.957  19.978  0.00  0.00    +0.000 A 
ATOM      7  C   UNL     1       1.145   2.807  18.684  0.00  0.00    +0.000 A 
ATOM      8  C   UNL     1       2.380   3.399  18.486  0.00  0.00    +0.000 A 
ATOM      9  O   UNL     1       3.134   3.444  17.353  0.00  0.00    +0.000 OA
ENDROOT
BRANCH   1  14
ATOM     10  C   UNL     1       6.100   4.138  14.433  0.00  0.00    +0.000 A 
ATOM     11  C   UNL     1       7.198   4.945  14.745  0.00  0.00    +0.000 A 
ATOM     12  C   UNL     1       7.337   5.465  16.031  0.00  0.00    +0.000 A 
ATOM     13  C   UNL     1       6.373   5.188  17.002  0.00  0.00    +0.000 A 
ATOM     14  C   UNL     1       5.258   4.387  16.706  0.00  0.00    +0.000 A 
ATOM     15  C   UNL     1       5.137   3.858  15.412  0.00  0.00    +0.000 A 
BRANCH  10  17
ATOM     16  N   UNL     1       5.832   3.179  12.039  0.00  0.00    +0.000 NA
ATOM     17  C   UNL     1       5.952   3.605  13.111  0.00  0.00    +0.000 C 
ENDBRANCH  10  17
ENDBRANCH   1  14
TORSDOF 2
ENDMDL
MODEL 7
REMARK VINA RESULT:      -6.9      1.398      1.487
REMARK  Name = 
REMARK  2 active torsions:
REMARK  status: ('A' for Active; 'I' for Inactive)
REMARK    1  A    between atoms: C_2  and  C_3
REMARK    2  A    between atoms: C_7  and  C_8
REMARK                            x       y       z     vdW  Elec       q    Type
REMARK                         _______ _______ _______ _____ _____    ______ ____
ROOT
ATOM      1  C   UNL     1       4.010   4.055  17.444  0.00  0.00    +0.000 A 
ATOM      2  N   UNL     1       3.081   3.123  17.320  0.00  0.00    +0.000 NA
ATOM      3  C   UNL     1       2.328   3.274  18.446  0.00  0.00    +0.000 A 
ATOM      4  N   UNL     1       1.249   2.538  18.797  0.00  0.00    +0.000 NA
ATOM      5  C   UNL     1       0.695   2.914  19.974  0.00  0.00    +0.000 A 
ATOM      6  C   UNL     1       1.140   3.955  20.793  0.00  0.00    +0.000 A 
ATOM      7  C   UNL     1       2.256   4.706  20.419  0.00  0.00    +0.000 A 
ATOM      8  C   UNL     1       2.823   4.312  19.218  0.00  0.00    +0.000 A 
ATOM      9  O   UNL     1       3.912   4.823  18.581  0.00  0.00    +0.000 OA
ENDROOT
BRANCH   1  14
ATOM     10  C   UNL     1       6.243   4.184  14.391  0.00  0.00    +0.000 A 
ATOM     11  C   UNL     1       7.257   5.034  14.843  0.00  0.00    +0.000 A 
ATOM     12  C   UNL     1       7.216   5.536  16.143  0.00  0.00    +0.000 A 
ATOM     13  C   UNL     1       6.155   5.200  16.986  0.00  0.00    +0.000 A 
ATOM     14  C   UNL     1       5.122   4.356  16.547  0.00  0.00    +0.000 A 
ATOM     15  C   UNL     1       5.183   3.844  15.242  0.00  0.00    +0.000 A 
BRANCH  10  17
ATOM     16  N   UNL     1       6.317   3.253  11.972  0.00  0.00    +0.000 NA
ATOM     17  C   UNL     1       6.281   3.669  13.054  0.00  0.00    +0.000 C 
ENDBRANCH  10  17
ENDBRANCH   1  14
TORSDOF 2
ENDMDL
MODEL 8
REMARK VINA RESULT:      -6.8      6.100      7.939
REMARK  Name = 
REMARK  2 active torsions:
REMARK  status: ('A' for Active; 'I' for Inactive)
REMARK    1  A    between atoms: C_2  and  C_3
REMARK    2  A    between atoms: C_7  and  C_8
REMARK                            x       y       z     vdW  Elec       q    Type
REMARK                         _______ _______ _______ _____ _____    ______ ____
ROOT
ATOM      1  C   UNL     1       8.433   8.942  18.326  0.00  0.00    +0.000 A 
ATOM      2  N   UNL     1       7.562   8.832  17.339  0.00  0.00    +0.000 NA
ATOM      3  C   UNL     1       7.222   7.511  17.361  0.00  0.00    +0.000 A 
ATOM      4  N   UNL     1       6.357   6.889  16.528  0.00  0.00    +0.000 NA
ATOM      5  C   UNL     1       6.212   5.568  16.786  0.00  0.00    +0.000 A 
ATOM      6  C   UNL     1       6.855   4.855  17.801  0.00  0.00    +0.000 A 
ATOM      7  C   UNL     1       7.745   5.511  18.654  0.00  0.00    +0.000 A 
ATOM      8  C   UNL     1       7.896   6.860  18.381  0.00  0.00    +0.000 A 
ATOM      9  O   UNL     1       8.685   7.775  19.009  0.00  0.00    +0.000 OA
ENDROOT
BRANCH   1  14
ATOM     10  C   UNL     1      10.416  12.165  18.301  0.00  0.00    +0.000 A 
ATOM     11  C   UNL     1      10.503  12.430  19.671  0.00  0.00    +0.000 A 
ATOM     12  C   UNL     1       9.937  11.547  20.588  0.00  0.00    +0.000 A 
ATOM     13  C   UNL     1       9.273  10.404  20.136  0.00  0.00    +0.000 A 
ATOM     14  C   UNL     1       9.167  10.126  18.764  0.00  0.00    +0.000 A 
ATOM     15  C   UNL     1       9.753  11.015  17.851  0.00  0.00    +0.000 A 
BRANCH  10  17
ATOM     16  N   UNL     1      11.466  13.810  16.594  0.00  0.00    +0.000 NA
ATOM     17  C   UNL     1      10.994  13.074  17.356  0.00  0.00    +0.000 C 
ENDBRANCH  10  17
ENDBRANCH   1  14
TORSDOF 2
ENDMDL
MODEL 9
REMARK VINA RESULT:      -6.8      4.355      4.973
REMARK  Name = 
REMARK  2 active torsions:
REMARK  status: ('A' for Active; 'I' for Inactive)
REMARK    1  A    between atoms: C_2  and  C_3
REMARK    2  A    between atoms: C_7  and  C_8
REMARK                            x       y       z     vdW  Elec       q    Type
REMARK                         _______ _______ _______ _____ _____    ______ ____
ROOT
ATOM      1  C   UNL     1       2.564   7.202  18.542  0.00  0.00    +0.000 A 
ATOM      2  N   UNL     1       2.172   8.362  18.045  0.00  0.00    +0.000 NA
ATOM      3  C   UNL     1       1.575   8.977  19.106  0.00  0.00    +0.000 A 
ATOM      4  N   UNL     1       0.994  10.198  19.105  0.00  0.00    +0.000 NA
ATOM      5  C   UNL     1       0.481  10.555  20.306  0.00  0.00    +0.000 A 
ATOM      6  C   UNL     1       0.519   9.789  21.474  0.00  0.00    +0.000 A 
ATOM      7  C   UNL     1       1.120   8.529  21.459  0.00  0.00    +0.000 A 
ATOM      8  C   UNL     1       1.636   8.166  20.227  0.00  0.00    +0.000 A 
ATOM      9  O   UNL     1       2.271   7.014  19.873  0.00  0.00    +0.000 OA
ENDROOT
BRANCH   1  14
ATOM     10  C   UNL     1       5.114   5.198  16.593  0.00  0.00    +0.000 A 
ATOM     11  C   UNL     1       4.534   3.927  16.631  0.00  0.00    +0.000 A 
ATOM     12  C   UNL     1       3.309   3.740  17.269  0.00  0.00    +0.000 A 
ATOM     13  C   UNL     1       2.670   4.821  17.880  0.00  0.00    +0.000 A 
ATOM     14  C   UNL     1       3.242   6.103  17.861  0.00  0.00    +0.000 A 
ATOM     15  C   UNL     1       4.468   6.282  17.202  0.00  0.00    +0.000 A 
BRANCH  10  17
ATOM     16  N   UNL     1       7.397   5.554  15.414  0.00  0.00    +0.000 NA
ATOM     17  C   UNL     1       6.375   5.392  15.940  0.00  0.00    +0.000 C 
ENDBRANCH  10  17
ENDBRANCH   1  14
TORSDOF 2
ENDMDL
