MODEL 1
REMARK VINA RESULT:      -8.2      0.000      0.000
REMARK  Name = 
REMARK  13 active torsions:
REMARK  status: ('A' for Active; 'I' for Inactive)
REMARK    1  A    between atoms: C_1  and  C_2
REMARK    2  A    between atoms: C_2  and  C_3
REMARK    3  A    between atoms: C_3  and  C_4
REMARK    4  A    between atoms: C_5  and  O_6
REMARK    5  A    between atoms: O_6  and  C_7
REMARK    6  A    between atoms: C_7  and  C_8
REMARK    7  A    between atoms: C_11  and  C_12
REMARK    8  A    between atoms: C_12  and  O_14
REMARK    9  A    between atoms: C_16  and  O_17
REMARK   10  A    between atoms: O_17  and  C_18
REMARK   11  A    between atoms: C_21  and  C_22
REMARK   12  A    between atoms: N_24  and  C_25
REMARK   13  A    between atoms: C_31  and  O_32
REMARK                            x       y       z     vdW  Elec       q    Type
REMARK                         _______ _______ _______ _____ _____    ______ ____
ROOT
ATOM      1  C   UNL     1       2.385   6.030  19.756  0.00  0.00    +0.000 A 
ATOM      2  C   UNL     1       2.867   5.838  18.438  0.00  0.00    +0.000 A 
ATOM      3  C   UNL     1       2.895   6.913  17.537  0.00  0.00    +0.000 A 
ATOM      4  C   UNL     1       2.368   8.149  17.887  0.00  0.00    +0.000 A 
ATOM      5  C   UNL     1       1.881   8.362  19.172  0.00  0.00    +0.000 A 
ATOM      6  C   UNL     1       1.923   7.318  20.109  0.00  0.00    +0.000 A 
ENDROOT
BRANCH   5   7
ATOM      7  C   UNL     1       1.295   9.700  19.429  0.00  0.00    +0.000 C 
ATOM      8  O   UNL     1       0.469   9.787  20.331  0.00  0.00    +0.000 OA
ATOM      9  N   UNL     1       1.706  10.718  18.592  0.00  0.00    +0.000 N 
ATOM     10  H   UNL     1       2.270  10.458  17.789  0.00  0.00    +0.000 HD
BRANCH   9  11
ATOM     11  C   UNL     1       1.305  12.067  18.698  0.00  0.00    +0.000 A 
ATOM     12  C   UNL     1      -0.029  12.475  18.590  0.00  0.00    +0.000 A 
ATOM     13  C   UNL     1      -0.381  13.818  18.711  0.00  0.00    +0.000 A 
ATOM     14  C   UNL     1       0.603  14.774  18.936  0.00  0.00    +0.000 A 
ATOM     15  C   UNL     1       1.938  14.385  19.050  0.00  0.00    +0.000 A 
ATOM     16  C   UNL     1       2.287  13.034  18.946  0.00  0.00    +0.000 A 
ENDBRANCH   9  11
ENDBRANCH   5   7
BRANCH   6  17
ATOM     17  O   UNL     1       1.508   7.533  21.397  0.00  0.00    +0.000 OA
ATOM     18  H   UNL     1       1.370   6.651  21.792  0.00  0.00    +0.000 HD
ENDBRANCH   6  17
BRANCH   1  19
ATOM     19  C   UNL     1       2.366   4.904  20.777  0.00  0.00    +0.000 C 
BRANCH  19  21
ATOM     20  C   UNL     1       1.377   2.646  21.470  0.00  0.00    +0.000 C 
ATOM     21  C   UNL     1       1.152   3.954  20.731  0.00  0.00    +0.000 C 
ENDBRANCH  19  21
ENDBRANCH   1  19
BRANCH   2  22
ATOM     22  O   UNL     1       3.308   4.583  18.076  0.00  0.00    +0.000 OA
BRANCH  22  23
ATOM     23  C   UNL     1       4.713   4.346  18.290  0.00  0.00    +0.000 C 
BRANCH  23  24
ATOM     24  C   UNL     1       5.532   4.467  17.023  0.00  0.00    +0.000 A 
ATOM     25  C   UNL     1       5.021   3.974  15.810  0.00  0.00    +0.000 A 
ATOM     26  C   UNL     1       5.720   4.161  14.623  0.00  0.00    +0.000 A 
ATOM     27  C   UNL     1       6.944   4.839  14.625  0.00  0.00    +0.000 A 
ATOM     28  C   UNL     1       7.449   5.369  15.826  0.00  0.00    +0.000 A 
ATOM     29  C   UNL     1       6.745   5.183  17.026  0.00  0.00    +0.000 A 
BRANCH  27  30
ATOM     30  C   UNL     1       7.621   5.043  13.328  0.00  0.00    +0.000 C 
ATOM     31  O   UNL     1       8.546   5.817  13.182  0.00  0.00    +0.000 OA
BRANCH  30  32
ATOM     32  O   UNL     1       7.102   4.323  12.314  0.00  0.00    +0.000 OA
ATOM     33  H   UNL     1       6.747   4.848  11.568  0.00  0.00    +0.000 HD
ENDBRANCH  30  32
ENDBRANCH  27  30
BRANCH  29  34
ATOM     34  O   UNL     1       7.150   5.686  18.238  0.00  0.00    +0.000 OA
ATOM     35  C   UNL     1       7.843   6.923  18.250  0.00  0.00    +0.000 C 
ENDBRANCH  29  34
ENDBRANCH  23  24
ENDBRANCH  22  23
ENDBRANCH   2  22
TORSDOF 11
ENDMDL
MODEL 2
REMARK VINA RESULT:      -8.2      1.495      1.624
REMARK  Name = 
REMARK  13 active torsions:
REMARK  status: ('A' for Active; 'I' for Inactive)
REMARK    1  A    between atoms: C_1  and  C_2
REMARK    2  A    between atoms: C_2  and  C_3
REMARK    3  A    between atoms: C_3  and  C_4
REMARK    4  A    between atoms: C_5  and  O_6
REMARK    5  A    between atoms: O_6  and  C_7
REMARK    6  A    between atoms: C_7  and  C_8
REMARK    7  A    between atoms: C_11  and  C_12
REMARK    8  A    between atoms: C_12  and  O_14
REMARK    9  A    between atoms: C_16  and  O_17
REMARK   10  A    between atoms: O_17  and  C_18
REMARK   11  A    between atoms: C_21  and  C_22
REMARK   12  A    between atoms: N_24  and  C_25
REMARK   13  A    between atoms: C_31  and  O_32
REMARK                            x       y       z     vdW  Elec       q    Type
REMARK                         _______ _______ _______ _____ _____    ______ ____
ROOT
ATOM      1  C   UNL     1       2.268   6.034  19.952  0.00  0.00    +0.000 A 
ATOM      2  C   UNL     1       2.773   5.830  18.645  0.00  0.00    +0.000 A 
ATOM      3  C   UNL     1       2.783   6.889  17.724  0.00  0.00    +0.000 A 
ATOM      4  C   UNL     1       2.218   8.116  18.043  0.00  0.00    +0.000 A 
ATOM      5  C   UNL     1       1.708   8.339  19.317  0.00  0.00    +0.000 A 
ATOM      6  C   UNL     1       1.765   7.314  20.274  0.00  0.00    +0.000 A 
ENDROOT
BRANCH   5   7
ATOM      7  C   UNL     1       1.082   9.665  19.541  0.00  0.00    +0.000 C 
ATOM      8  O   UNL     1       0.593  10.226  18.567  0.00  0.00    +0.000 OA
ATOM      9  N   UNL     1       1.149  10.164  20.827  0.00  0.00    +0.000 N 
ATOM     10  H   UNL     1       1.729   9.659  21.489  0.00  0.00    +0.000 HD
BRANCH   9  11
ATOM     11  C   UNL     1       0.577  11.381  21.256  0.00  0.00    +0.000 A 
ATOM     12  C   UNL     1      -0.491  11.443  22.159  0.00  0.00    +0.000 A 
ATOM     13  C   UNL     1      -1.018  12.668  22.563  0.00  0.00    +0.000 A 
ATOM     14  C   UNL     1      -0.486  13.851  22.062  0.00  0.00    +0.000 A 
ATOM     15  C   UNL     1       0.582  13.808  21.164  0.00  0.00    +0.000 A 
ATOM     16  C   UNL     1       1.121  12.577  20.773  0.00  0.00    +0.000 A 
ENDBRANCH   9  11
ENDBRANCH   5   7
BRANCH   6  17
ATOM     17  O   UNL     1       1.327   7.543  21.552  0.00  0.00    +0.000 OA
ATOM     18  H   UNL     1       1.399   8.506  21.699  0.00  0.00    +0.000 HD
ENDBRANCH   6  17
BRANCH   1  19
ATOM     19  C   UNL     1       2.265   4.927  20.995  0.00  0.00    +0.000 C 
BRANCH  19  21
ATOM     20  C   UNL     1       1.638   2.480  21.409  0.00  0.00    +0.000 C 
ATOM     21  C   UNL     1       1.218   3.811  20.811  0.00  0.00    +0.000 C 
ENDBRANCH  19  21
ENDBRANCH   1  19
BRANCH   2  22
ATOM     22  O   UNL     1       3.253   4.582  18.313  0.00  0.00    +0.000 OA
BRANCH  22  23
ATOM     23  C   UNL     1       4.673   4.410  18.483  0.00  0.00    +0.000 C 
BRANCH  23  24
ATOM     24  C   UNL     1       5.434   4.450  17.175  0.00  0.00    +0.000 A 
ATOM     25  C   UNL     1       4.736   4.375  15.957  0.00  0.00    +0.000 A 
ATOM     26  C   UNL     1       5.412   4.503  14.749  0.00  0.00    +0.000 A 
ATOM     27  C   UNL     1       6.796   4.705  14.733  0.00  0.00    +0.000 A 
ATOM     28  C   UNL     1       7.502   4.818  15.945  0.00  0.00    +0.000 A 
ATOM     29  C   UNL     1       6.822   4.690  17.167  0.00  0.00    +0.000 A 
BRANCH  27  30
ATOM     30  C   UNL     1       7.453   4.875  13.421  0.00  0.00    +0.000 C 
ATOM     31  O   UNL     1       7.133   4.241  12.436  0.00  0.00    +0.000 OA
BRANCH  30  32
ATOM     32  O   UNL     1       8.462   5.768  13.421  0.00  0.00    +0.000 OA
ATOM     33  H   UNL     1       8.897   5.908  14.286  0.00  0.00    +0.000 HD
ENDBRANCH  30  32
ENDBRANCH  27  30
BRANCH  29  34
ATOM     34  O   UNL     1       7.425   4.811  18.395  0.00  0.00    +0.000 OA
ATOM     35  C   UNL     1       7.814   6.105  18.824  0.00  0.00    +0.000 C 
ENDBRANCH  29  34
ENDBRANCH  23  24
ENDBRANCH  22  23
ENDBRANCH   2  22
TORSDOF 11
ENDMDL
MODEL 3
REMARK VINA RESULT:      -8.2      3.327      9.872
REMARK  Name = 
REMARK  13 active torsions:
REMARK  status: ('A' for Active; 'I' for Inactive)
REMARK    1  A    between atoms: C_1  and  C_2
REMARK    2  A    between atoms: C_2  and  C_3
REMARK    3  A    between atoms: C_3  and  C_4
REMARK    4  A    between atoms: C_5  and  O_6
REMARK    5  A    between atoms: O_6  and  C_7
REMARK    6  A    between atoms: C_7  and  C_8
REMARK    7  A    between atoms: C_11  and  C_12
REMARK    8  A    between atoms: C_12  and  O_14
REMARK    9  A    between atoms: C_16  and  O_17
REMARK   10  A    between atoms: O_17  and  C_18
REMARK   11  A    between atoms: C_21  and  C_22
REMARK   12  A    between atoms: N_24  and  C_25
REMARK   13  A    between atoms: C_31  and  O_32
REMARK                            x       y       z     vdW  Elec       q    Type
REMARK                         _______ _______ _______ _____ _____    ______ ____
ROOT
ATOM      1  C   UNL     1       1.238   8.974  20.449  0.00  0.00    +0.000 A 
ATOM      2  C   UNL     1       0.855   9.981  19.531  0.00  0.00    +0.000 A 
ATOM      3  C   UNL     1       1.140   9.831  18.165  0.00  0.00    +0.000 A 
ATOM      4  C   UNL     1       1.878   8.748  17.706  0.00  0.00    +0.000 A 
ATOM      5  C   UNL     1       2.274   7.749  18.590  0.00  0.00    +0.000 A 
ATOM      6  C   UNL     1       1.925   7.847  19.945  0.00  0.00    +0.000 A 
ENDROOT
BRANCH   5   7
ATOM      7  C   UNL     1       3.100   6.663  18.010  0.00  0.00    +0.000 C 
ATOM      8  O   UNL     1       2.656   5.522  18.078  0.00  0.00    +0.000 OA
ATOM      9  N   UNL     1       4.321   7.037  17.483  0.00  0.00    +0.000 N 
ATOM     10  H   UNL     1       4.621   7.993  17.646  0.00  0.00    +0.000 HD
BRANCH   9  11
ATOM     11  C   UNL     1       5.231   6.168  16.846  0.00  0.00    +0.000 A 
ATOM     12  C   UNL     1       5.216   5.928  15.467  0.00  0.00    +0.000 A 
ATOM     13  C   UNL     1       6.142   5.068  14.879  0.00  0.00    +0.000 A 
ATOM     14  C   UNL     1       7.093   4.430  15.666  0.00  0.00    +0.000 A 
ATOM     15  C   UNL     1       7.126   4.662  17.042  0.00  0.00    +0.000 A 
ATOM     16  C   UNL     1       6.207   5.539  17.628  0.00  0.00    +0.000 A 
ENDBRANCH   9  11
ENDBRANCH   5   7
BRANCH   6  17
ATOM     17  O   UNL     1       2.250   6.837  20.813  0.00  0.00    +0.000 OA
ATOM     18  H   UNL     1       1.804   6.034  20.479  0.00  0.00    +0.000 HD
ENDBRANCH   6  17
BRANCH   1  19
ATOM     19  C   UNL     1       0.923   9.077  21.933  0.00  0.00    +0.000 C 
BRANCH  19  21
ATOM     20  C   UNL     1      -0.949  10.333  23.147  0.00  0.00    +0.000 C 
ATOM     21  C   UNL     1      -0.569   9.117  22.319  0.00  0.00    +0.000 C 
ENDBRANCH  19  21
ENDBRANCH   1  19
BRANCH   2  22
ATOM     22  O   UNL     1       0.198  11.093  20.011  0.00  0.00    +0.000 OA
BRANCH  22  23
ATOM     23  C   UNL     1      -0.419  11.918  19.004  0.00  0.00    +0.000 C 
BRANCH  23  24
ATOM     24  C   UNL     1      -1.931  11.930  19.095  0.00  0.00    +0.000 A 
ATOM     25  C   UNL     1      -2.563  12.608  20.152  0.00  0.00    +0.000 A 
ATOM     26  C   UNL     1      -3.948  12.706  20.197  0.00  0.00    +0.000 A 
ATOM     27  C   UNL     1      -4.729  12.126  19.192  0.00  0.00    +0.000 A 
ATOM     28  C   UNL     1      -4.109  11.476  18.109  0.00  0.00    +0.000 A 
ATOM     29  C   UNL     1      -2.710  11.376  18.061  0.00  0.00    +0.000 A 
BRANCH  27  30
ATOM     30  C   UNL     1      -6.195  12.298  19.271  0.00  0.00    +0.000 C 
ATOM     31  O   UNL     1      -6.782  12.476  20.320  0.00  0.00    +0.000 OA
BRANCH  30  32
ATOM     32  O   UNL     1      -6.827  12.204  18.085  0.00  0.00    +0.000 OA
ATOM     33  H   UNL     1      -7.684  12.673  18.030  0.00  0.00    +0.000 HD
ENDBRANCH  30  32
ENDBRANCH  27  30
BRANCH  29  34
ATOM     34  O   UNL     1      -2.020  10.783  17.032  0.00  0.00    +0.000 OA
ATOM     35  C   UNL     1      -2.676  10.634  15.784  0.00  0.00    +0.000 C 
ENDBRANCH  29  34
ENDBRANCH  23  24
ENDBRANCH  22  23
ENDBRANCH   2  22
TORSDOF 11
ENDMDL
MODEL 4
REMARK VINA RESULT:      -7.9      1.673      1.783
REMARK  Name = 
REMARK  13 active torsions:
REMARK  status: ('A' for Active; 'I' for Inactive)
REMARK    1  A    between atoms: C_1  and  C_2
REMARK    2  A    between atoms: C_2  and  C_3
REMARK    3  A    between atoms: C_3  and  C_4
REMARK    4  A    between atoms: C_5  and  O_6
REMARK    5  A    between atoms: O_6  and  C_7
REMARK    6  A    between atoms: C_7  and  C_8
REMARK    7  A    between atoms: C_11  and  C_12
REMARK    8  A    between atoms: C_12  and  O_14
REMARK    9  A    between atoms: C_16  and  O_17
REMARK   10  A    between atoms: O_17  and  C_18
REMARK   11  A    between atoms: C_21  and  C_22
REMARK   12  A    between atoms: N_24  and  C_25
REMARK   13  A    between atoms: C_31  and  O_32
REMARK                            x       y       z     vdW  Elec       q    Type
REMARK                         _______ _______ _______ _____ _____    ______ ____
ROOT
ATOM      1  C   UNL     1       2.760   5.967  19.832  0.00  0.00    +0.000 A 
ATOM      2  C   UNL     1       3.671   5.763  18.767  0.00  0.00    +0.000 A 
ATOM      3  C   UNL     1       3.845   6.758  17.793  0.00  0.00    +0.000 A 
ATOM      4  C   UNL     1       3.068   7.908  17.803  0.00  0.00    +0.000 A 
ATOM      5  C   UNL     1       2.160   8.128  18.834  0.00  0.00    +0.000 A 
ATOM      6  C   UNL     1       2.035   7.178  19.859  0.00  0.00    +0.000 A 
ENDROOT
BRANCH   5   7
ATOM      7  C   UNL     1       1.344   9.361  18.725  0.00  0.00    +0.000 C 
ATOM      8  O   UNL     1       1.844  10.317  18.143  0.00  0.00    +0.000 OA
ATOM      9  N   UNL     1       0.104   9.330  19.334  0.00  0.00    +0.000 N 
ATOM     10  H   UNL     1      -0.104   8.527  19.918  0.00  0.00    +0.000 HD
BRANCH   9  11
ATOM     11  C   UNL     1      -0.840  10.378  19.306  0.00  0.00    +0.000 A 
ATOM     12  C   UNL     1      -1.837  10.479  18.330  0.00  0.00    +0.000 A 
ATOM     13  C   UNL     1      -2.756  11.526  18.347  0.00  0.00    +0.000 A 
ATOM     14  C   UNL     1      -2.684  12.494  19.343  0.00  0.00    +0.000 A 
ATOM     15  C   UNL     1      -1.699  12.407  20.328  0.00  0.00    +0.000 A 
ATOM     16  C   UNL     1      -0.789  11.345  20.318  0.00  0.00    +0.000 A 
ENDBRANCH   9  11
ENDBRANCH   5   7
BRANCH   6  17
ATOM     17  O   UNL     1       1.194   7.414  20.915  0.00  0.00    +0.000 OA
ATOM     18  H   UNL     1       1.370   6.709  21.569  0.00  0.00    +0.000 HD
ENDBRANCH   6  17
BRANCH   1  19
ATOM     19  C   UNL     1       2.561   4.932  20.928  0.00  0.00    +0.000 C 
BRANCH  19  21
ATOM     20  C   UNL     1       1.567   2.665  21.584  0.00  0.00    +0.000 C 
ATOM     21  C   UNL     1       1.444   3.895  20.701  0.00  0.00    +0.000 C 
ENDBRANCH  19  21
ENDBRANCH   1  19
BRANCH   2  22
ATOM     22  O   UNL     1       4.374   4.579  18.721  0.00  0.00    +0.000 OA
BRANCH  22  23
ATOM     23  C   UNL     1       4.147   3.781  17.543  0.00  0.00    +0.000 C 
BRANCH  23  24
ATOM     24  C   UNL     1       5.141   4.062  16.437  0.00  0.00    +0.000 A 
ATOM     25  C   UNL     1       4.703   4.128  15.102  0.00  0.00    +0.000 A 
ATOM     26  C   UNL     1       5.587   4.477  14.088  0.00  0.00    +0.000 A 
ATOM     27  C   UNL     1       6.924   4.763  14.384  0.00  0.00    +0.000 A 
ATOM     28  C   UNL     1       7.367   4.738  15.720  0.00  0.00    +0.000 A 
ATOM     29  C   UNL     1       6.477   4.386  16.746  0.00  0.00    +0.000 A 
BRANCH  27  30
ATOM     30  C   UNL     1       7.806   5.168  13.271  0.00  0.00    +0.000 C 
ATOM     31  O   UNL     1       8.729   5.947  13.410  0.00  0.00    +0.000 OA
BRANCH  30  32
ATOM     32  O   UNL     1       7.477   4.629  12.081  0.00  0.00    +0.000 OA
ATOM     33  H   UNL     1       6.746   3.979  12.105  0.00  0.00    +0.000 HD
ENDBRANCH  30  32
ENDBRANCH  27  30
BRANCH  29  34
ATOM     34  O   UNL     1       6.815   4.359  18.077  0.00  0.00    +0.000 OA
ATOM     35  C   UNL     1       7.584   5.433  18.594  0.00  0.00    +0.000 C 
ENDBRANCH  29  34
ENDBRANCH  23  24
ENDBRANCH  22  23
ENDBRANCH   2  22
TORSDOF 11
ENDMDL
MODEL 5
REMARK VINA RESULT:      -7.9      1.638      1.919
REMARK  Name = 
REMARK  13 active torsions:
REMARK  status: ('A' for Active; 'I' for Inactive)
REMARK    1  A    between atoms: C_1  and  C_2
REMARK    2  A    between atoms: C_2  and  C_3
REMARK    3  A    between atoms: C_3  and  C_4
REMARK    4  A    between atoms: C_5  and  O_6
REMARK    5  A    between atoms: O_6  and  C_7
REMARK    6  A    between atoms: C_7  and  C_8
REMARK    7  A    between atoms: C_11  and  C_12
REMARK    8  A    between atoms: C_12  and  O_14
REMARK    9  A    between atoms: C_16  and  O_17
REMARK   10  A    between atoms: O_17  and  C_18
REMARK   11  A    between atoms: C_21  and  C_22
REMARK   12  A    between atoms: N_24  and  C_25
REMARK   13  A    between atoms: C_31  and  O_32
REMARK                            x       y       z     vdW  Elec       q    Type
REMARK                         _______ _______ _______ _____ _____    ______ ____
ROOT
ATOM      1  C   UNL     1       2.303   6.160  19.810  0.00  0.00    +0.000 A 
ATOM      2  C   UNL     1       2.881   6.085  18.519  0.00  0.00    +0.000 A 
ATOM      3  C   UNL     1       2.897   7.217  17.690  0.00  0.00    +0.000 A 
ATOM      4  C   UNL     1       2.269   8.393  18.079  0.00  0.00    +0.000 A 
ATOM      5  C   UNL     1       1.687   8.490  19.338  0.00  0.00    +0.000 A 
ATOM      6  C   UNL     1       1.735   7.391  20.209  0.00  0.00    +0.000 A 
ENDROOT
BRANCH   5   7
ATOM      7  C   UNL     1       0.999   9.770  19.636  0.00  0.00    +0.000 C 
ATOM      8  O   UNL     1       0.423  10.327  18.708  0.00  0.00    +0.000 OA
ATOM      9  N   UNL     1       1.111  10.238  20.930  0.00  0.00    +0.000 N 
ATOM     10  H   UNL     1       1.756   9.751  21.544  0.00  0.00    +0.000 HD
BRANCH   9  11
ATOM     11  C   UNL     1       0.495  11.406  21.427  0.00  0.00    +0.000 A 
ATOM     12  C   UNL     1       0.905  12.695  21.067  0.00  0.00    +0.000 A 
ATOM     13  C   UNL     1       0.260  13.821  21.575  0.00  0.00    +0.000 A 
ATOM     14  C   UNL     1      -0.802  13.671  22.458  0.00  0.00    +0.000 A 
ATOM     15  C   UNL     1      -1.228  12.394  22.825  0.00  0.00    +0.000 A 
ATOM     16  C   UNL     1      -0.590  11.265  22.300  0.00  0.00    +0.000 A 
ENDBRANCH   9  11
ENDBRANCH   5   7
BRANCH   6  17
ATOM     17  O   UNL     1       1.224   7.495  21.476  0.00  0.00    +0.000 OA
ATOM     18  H   UNL     1       1.270   6.600  21.865  0.00  0.00    +0.000 HD
ENDBRANCH   6  17
BRANCH   1  19
ATOM     19  C   UNL     1       2.291   4.970  20.756  0.00  0.00    +0.000 C 
BRANCH  19  21
ATOM     20  C   UNL     1       1.278   2.855  19.728  0.00  0.00    +0.000 C 
ATOM     21  C   UNL     1       1.071   4.032  20.666  0.00  0.00    +0.000 C 
ENDBRANCH  19  21
ENDBRANCH   1  19
BRANCH   2  22
ATOM     22  O   UNL     1       3.425   4.886  18.112  0.00  0.00    +0.000 OA
BRANCH  22  23
ATOM     23  C   UNL     1       4.853   4.780  18.272  0.00  0.00    +0.000 C 
BRANCH  23  24
ATOM     24  C   UNL     1       5.597   4.779  16.953  0.00  0.00    +0.000 A 
ATOM     25  C   UNL     1       5.325   3.784  15.997  0.00  0.00    +0.000 A 
ATOM     26  C   UNL     1       5.931   3.825  14.747  0.00  0.00    +0.000 A 
ATOM     27  C   UNL     1       6.823   4.854  14.428  0.00  0.00    +0.000 A 
ATOM     28  C   UNL     1       7.076   5.876  15.362  0.00  0.00    +0.000 A 
ATOM     29  C   UNL     1       6.465   5.839  16.625  0.00  0.00    +0.000 A 
BRANCH  27  30
ATOM     30  C   UNL     1       7.405   4.868  13.071  0.00  0.00    +0.000 C 
ATOM     31  O   UNL     1       7.097   4.064  12.213  0.00  0.00    +0.000 OA
BRANCH  30  32
ATOM     32  O   UNL     1       8.333   5.825  12.876  0.00  0.00    +0.000 OA
ATOM     33  H   UNL     1       7.982   6.701  12.617  0.00  0.00    +0.000 HD
ENDBRANCH  30  32
ENDBRANCH  27  30
BRANCH  29  34
ATOM     34  O   UNL     1       6.635   6.805  17.586  0.00  0.00    +0.000 OA
ATOM     35  C   UNL     1       7.858   6.828  18.303  0.00  0.00    +0.000 C 
ENDBRANCH  29  34
ENDBRANCH  23  24
ENDBRANCH  22  23
ENDBRANCH   2  22
TORSDOF 11
ENDMDL
MODEL 6
REMARK VINA RESULT:      -7.9      1.574      1.904
REMARK  Name = 
REMARK  13 active torsions:
REMARK  status: ('A' for Active; 'I' for Inactive)
REMARK    1  A    between atoms: C_1  and  C_2
REMARK    2  A    between atoms: C_2  and  C_3
REMARK    3  A    between atoms: C_3  and  C_4
REMARK    4  A    between atoms: C_5  and  O_6
REMARK    5  A    between atoms: O_6  and  C_7
REMARK    6  A    between atoms: C_7  and  C_8
REMARK    7  A    between atoms: C_11  and  C_12
REMARK    8  A    between atoms: C_12  and  O_14
REMARK    9  A    between atoms: C_16  and  O_17
REMARK   10  A    between atoms: O_17  and  C_18
REMARK   11  A    between atoms: C_21  and  C_22
REMARK   12  A    between atoms: N_24  and  C_25
REMARK   13  A    between atoms: C_31  and  O_32
REMARK                            x       y       z     vdW  Elec       q    Type
REMARK                         _______ _______ _______ _____ _____    ______ ____
ROOT
ATOM      1  C   UNL     1       2.341   6.220  19.882  0.00  0.00    +0.000 A 
ATOM      2  C   UNL     1       2.854   6.029  18.576  0.00  0.00    +0.000 A 
ATOM      3  C   UNL     1       2.869   7.095  17.664  0.00  0.00    +0.000 A 
ATOM      4  C   UNL     1       2.301   8.319  17.991  0.00  0.00    +0.000 A 
ATOM      5  C   UNL     1       1.783   8.531  19.264  0.00  0.00    +0.000 A 
ATOM      6  C   UNL     1       1.836   7.497  20.212  0.00  0.00    +0.000 A 
ENDROOT
BRANCH   5   7
ATOM      7  C   UNL     1       1.155   9.854  19.496  0.00  0.00    +0.000 C 
ATOM      8  O   UNL     1       1.594  10.804  18.857  0.00  0.00    +0.000 OA
ATOM      9  N   UNL     1       0.156   9.898  20.448  0.00  0.00    +0.000 N 
ATOM     10  H   UNL     1       0.014   9.065  21.010  0.00  0.00    +0.000 HD
BRANCH   9  11
ATOM     11  C   UNL     1      -0.596  11.044  20.783  0.00  0.00    +0.000 A 
ATOM     12  C   UNL     1      -0.432  11.738  21.987  0.00  0.00    +0.000 A 
ATOM     13  C   UNL     1      -1.191  12.872  22.271  0.00  0.00    +0.000 A 
ATOM     14  C   UNL     1      -2.131  13.325  21.353  0.00  0.00    +0.000 A 
ATOM     15  C   UNL     1      -2.304  12.649  20.144  0.00  0.00    +0.000 A 
ATOM     16  C   UNL     1      -1.530  11.520  19.854  0.00  0.00    +0.000 A 
ENDBRANCH   9  11
ENDBRANCH   5   7
BRANCH   6  17
ATOM     17  O   UNL     1       1.390   7.714  21.490  0.00  0.00    +0.000 OA
ATOM     18  H   UNL     1       0.660   7.081  21.637  0.00  0.00    +0.000 HD
ENDBRANCH   6  17
BRANCH   1  19
ATOM     19  C   UNL     1       2.333   5.104  20.914  0.00  0.00    +0.000 C 
BRANCH  19  21
ATOM     20  C   UNL     1       1.560   2.666  20.798  0.00  0.00    +0.000 C 
ATOM     21  C   UNL     1       1.144   4.125  20.860  0.00  0.00    +0.000 C 
ENDBRANCH  19  21
ENDBRANCH   1  19
BRANCH   2  22
ATOM     22  O   UNL     1       3.337   4.784  18.235  0.00  0.00    +0.000 OA
BRANCH  22  23
ATOM     23  C   UNL     1       4.753   4.605  18.433  0.00  0.00    +0.000 C 
BRANCH  23  24
ATOM     24  C   UNL     1       5.540   4.651  17.141  0.00  0.00    +0.000 A 
ATOM     25  C   UNL     1       5.113   3.897  16.034  0.00  0.00    +0.000 A 
ATOM     26  C   UNL     1       5.772   4.001  14.815  0.00  0.00    +0.000 A 
ATOM     27  C   UNL     1       6.871   4.855  14.677  0.00  0.00    +0.000 A 
ATOM     28  C   UNL     1       7.287   5.643  15.767  0.00  0.00    +0.000 A 
ATOM     29  C   UNL     1       6.623   5.540  16.999  0.00  0.00    +0.000 A 
BRANCH  27  30
ATOM     30  C   UNL     1       7.505   4.955  13.347  0.00  0.00    +0.000 C 
ATOM     31  O   UNL     1       7.196   4.242  12.413  0.00  0.00    +0.000 OA
BRANCH  30  32
ATOM     32  O   UNL     1       8.482   5.881  13.268  0.00  0.00    +0.000 OA
ATOM     33  H   UNL     1       8.187   6.779  13.017  0.00  0.00    +0.000 HD
ENDBRANCH  30  32
ENDBRANCH  27  30
BRANCH  29  34
ATOM     34  O   UNL     1       6.944   6.287  18.106  0.00  0.00    +0.000 OA
ATOM     35  C   UNL     1       7.823   5.719  19.064  0.00  0.00    +0.000 C 
ENDBRANCH  29  34
ENDBRANCH  23  24
ENDBRANCH  22  23
ENDBRANCH   2  22
TORSDOF 11
ENDMDL
MODEL 7
REMARK VINA RESULT:      -7.9      3.558      9.952
REMARK  Name = 
REMARK  13 active torsions:
REMARK  status: ('A' for Active; 'I' for Inactive)
REMARK    1  A    between atoms: C_1  and  C_2
REMARK    2  A    between atoms: C_2  and  C_3
REMARK    3  A    between atoms: C_3  and  C_4
REMARK    4  A    between atoms: C_5  and  O_6
REMARK    5  A    between atoms: O_6  and  C_7
REMARK    6  A    between atoms: C_7  and  C_8
REMARK    7  A    between atoms: C_11  and  C_12
REMARK    8  A    between atoms: C_12  and  O_14
REMARK    9  A    between atoms: C_16  and  O_17
REMARK   10  A    between atoms: O_17  and  C_18
REMARK   11  A    between atoms: C_21  and  C_22
REMARK   12  A    between atoms: N_24  and  C_25
REMARK   13  A    between atoms: C_31  and  O_32
REMARK                            x       y       z     vdW  Elec       q    Type
REMARK                         _______ _______ _______ _____ _____    ______ ____
ROOT
ATOM      1  C   UNL     1       0.768   8.912  20.290  0.00  0.00    +0.000 A 
ATOM      2  C   UNL     1       0.561   9.902  19.299  0.00  0.00    +0.000 A 
ATOM      3  C   UNL     1       1.167   9.774  18.040  0.00  0.00    +0.000 A 
ATOM      4  C   UNL     1       2.049   8.734  17.778  0.00  0.00    +0.000 A 
ATOM      5  C   UNL     1       2.277   7.753  18.737  0.00  0.00    +0.000 A 
ATOM      6  C   UNL     1       1.613   7.826  19.971  0.00  0.00    +0.000 A 
ENDROOT
BRANCH   5   7
ATOM      7  C   UNL     1       3.273   6.715  18.378  0.00  0.00    +0.000 C 
ATOM      8  O   UNL     1       3.154   5.615  18.906  0.00  0.00    +0.000 OA
ATOM      9  N   UNL     1       4.274   7.103  17.508  0.00  0.00    +0.000 N 
ATOM     10  H   UNL     1       4.334   8.091  17.284  0.00  0.00    +0.000 HD
BRANCH   9  11
ATOM     11  C   UNL     1       5.286   6.257  17.008  0.00  0.00    +0.000 A 
ATOM     12  C   UNL     1       6.334   5.773  17.799  0.00  0.00    +0.000 A 
ATOM     13  C   UNL     1       7.307   4.931  17.264  0.00  0.00    +0.000 A 
ATOM     14  C   UNL     1       7.248   4.567  15.924  0.00  0.00    +0.000 A 
ATOM     15  C   UNL     1       6.208   5.037  15.121  0.00  0.00    +0.000 A 
ATOM     16  C   UNL     1       5.222   5.868  15.664  0.00  0.00    +0.000 A 
ENDBRANCH   9  11
ENDBRANCH   5   7
BRANCH   6  17
ATOM     17  O   UNL     1       1.777   6.831  20.899  0.00  0.00    +0.000 OA
ATOM     18  H   UNL     1       0.879   6.561  21.174  0.00  0.00    +0.000 HD
ENDBRANCH   6  17
BRANCH   1  19
ATOM     19  C   UNL     1       0.107   8.992  21.657  0.00  0.00    +0.000 C 
BRANCH  19  21
ATOM     20  C   UNL     1      -1.079  10.790  23.041  0.00  0.00    +0.000 C 
ATOM     21  C   UNL     1       0.222  10.338  22.399  0.00  0.00    +0.000 C 
ENDBRANCH  19  21
ENDBRANCH   1  19
BRANCH   2  22
ATOM     22  O   UNL     1      -0.250  10.976  19.601  0.00  0.00    +0.000 OA
BRANCH  22  23
ATOM     23  C   UNL     1      -0.803  11.661  18.461  0.00  0.00    +0.000 C 
BRANCH  23  24
ATOM     24  C   UNL     1      -2.317  11.702  18.475  0.00  0.00    +0.000 A 
ATOM     25  C   UNL     1      -2.993  12.204  19.601  0.00  0.00    +0.000 A 
ATOM     26  C   UNL     1      -4.376  12.334  19.591  0.00  0.00    +0.000 A 
ATOM     27  C   UNL     1      -5.112  11.963  18.460  0.00  0.00    +0.000 A 
ATOM     28  C   UNL     1      -4.445  11.495  17.313  0.00  0.00    +0.000 A 
ATOM     29  C   UNL     1      -3.048  11.363  17.320  0.00  0.00    +0.000 A 
BRANCH  27  30
ATOM     30  C   UNL     1      -6.575  12.163  18.493  0.00  0.00    +0.000 C 
ATOM     31  O   UNL     1      -7.240  12.337  17.491  0.00  0.00    +0.000 OA
BRANCH  30  32
ATOM     32  O   UNL     1      -7.104  12.171  19.732  0.00  0.00    +0.000 OA
ATOM     33  H   UNL     1      -8.080  12.109  19.770  0.00  0.00    +0.000 HD
ENDBRANCH  30  32
ENDBRANCH  27  30
BRANCH  29  34
ATOM     34  O   UNL     1      -2.314  10.938  16.240  0.00  0.00    +0.000 OA
ATOM     35  C   UNL     1      -3.012  10.445  15.108  0.00  0.00    +0.000 C 
ENDBRANCH  29  34
ENDBRANCH  23  24
ENDBRANCH  22  23
ENDBRANCH   2  22
TORSDOF 11
ENDMDL
MODEL 8
REMARK VINA RESULT:      -7.9      3.199      9.822
REMARK  Name = 
REMARK  13 active torsions:
REMARK  status: ('A' for Active; 'I' for Inactive)
REMARK    1  A    between atoms: C_1  and  C_2
REMARK    2  A    between atoms: C_2  and  C_3
REMARK    3  A    between atoms: C_3  and  C_4
REMARK    4  A    between atoms: C_5  and  O_6
REMARK    5  A    between atoms: O_6  and  C_7
REMARK    6  A    between atoms: C_7  and  C_8
REMARK    7  A    between atoms: C_11  and  C_12
REMARK    8  A    between atoms: C_12  and  O_14
REMARK    9  A    between atoms: C_16  and  O_17
REMARK   10  A    between atoms: O_17  and  C_18
REMARK   11  A    between atoms: C_21  and  C_22
REMARK   12  A    between atoms: N_24  and  C_25
REMARK   13  A    between atoms: C_31  and  O_32
REMARK                            x       y       z     vdW  Elec       q    Type
REMARK                         _______ _______ _______ _____ _____    ______ ____
ROOT
ATOM      1  C   UNL     1       1.286   8.892  20.461  0.00  0.00    +0.000 A 
ATOM      2  C   UNL     1       0.922   9.920  19.559  0.00  0.00    +0.000 A 
ATOM      3  C   UNL     1       1.219   9.793  18.193  0.00  0.00    +0.000 A 
ATOM      4  C   UNL     1       1.952   8.712  17.721  0.00  0.00    +0.000 A 
ATOM      5  C   UNL     1       2.328   7.692  18.590  0.00  0.00    +0.000 A 
ATOM      6  C   UNL     1       1.967   7.768  19.943  0.00  0.00    +0.000 A 
ENDROOT
BRANCH   5   7
ATOM      7  C   UNL     1       3.150   6.609  17.997  0.00  0.00    +0.000 C 
ATOM      8  O   UNL     1       2.683   5.475  18.016  0.00  0.00    +0.000 OA
ATOM      9  N   UNL     1       4.392   6.976  17.517  0.00  0.00    +0.000 N 
ATOM     10  H   UNL     1       4.705   7.920  17.719  0.00  0.00    +0.000 HD
BRANCH   9  11
ATOM     11  C   UNL     1       5.303   6.110  16.877  0.00  0.00    +0.000 A 
ATOM     12  C   UNL     1       6.300   5.410  17.566  0.00  0.00    +0.000 A 
ATOM     13  C   UNL     1       7.172   4.556  16.893  0.00  0.00    +0.000 A 
ATOM     14  C   UNL     1       7.062   4.396  15.517  0.00  0.00    +0.000 A 
ATOM     15  C   UNL     1       6.071   5.083  14.814  0.00  0.00    +0.000 A 
ATOM     16  C   UNL     1       5.185   5.926  15.494  0.00  0.00    +0.000 A 
ENDBRANCH   9  11
ENDBRANCH   5   7
BRANCH   6  17
ATOM     17  O   UNL     1       2.273   6.739  20.795  0.00  0.00    +0.000 OA
ATOM     18  H   UNL     1       2.115   5.914  20.296  0.00  0.00    +0.000 HD
ENDBRANCH   6  17
BRANCH   1  19
ATOM     19  C   UNL     1       0.957   8.970  21.944  0.00  0.00    +0.000 C 
BRANCH  19  21
ATOM     20  C   UNL     1      -0.920  10.235  23.141  0.00  0.00    +0.000 C 
ATOM     21  C   UNL     1      -0.538   9.018  22.315  0.00  0.00    +0.000 C 
ENDBRANCH  19  21
ENDBRANCH   1  19
BRANCH   2  22
ATOM     22  O   UNL     1       0.271  11.029  20.053  0.00  0.00    +0.000 OA
BRANCH  22  23
ATOM     23  C   UNL     1      -0.210  11.949  19.054  0.00  0.00    +0.000 C 
BRANCH  23  24
ATOM     24  C   UNL     1      -1.721  11.980  18.957  0.00  0.00    +0.000 A 
ATOM     25  C   UNL     1      -2.371  11.266  17.936  0.00  0.00    +0.000 A 
ATOM     26  C   UNL     1      -3.759  11.209  17.890  0.00  0.00    +0.000 A 
ATOM     27  C   UNL     1      -4.524  11.867  18.859  0.00  0.00    +0.000 A 
ATOM     28  C   UNL     1      -3.886  12.555  19.908  0.00  0.00    +0.000 A 
ATOM     29  C   UNL     1      -2.485  12.614  19.957  0.00  0.00    +0.000 A 
BRANCH  27  30
ATOM     30  C   UNL     1      -5.994  11.737  18.782  0.00  0.00    +0.000 C 
ATOM     31  O   UNL     1      -6.546  10.832  18.189  0.00  0.00    +0.000 OA
BRANCH  30  32
ATOM     32  O   UNL     1      -6.669  12.729  19.397  0.00  0.00    +0.000 OA
ATOM     33  H   UNL     1      -6.129  13.503  19.657  0.00  0.00    +0.000 HD
ENDBRANCH  30  32
ENDBRANCH  27  30
BRANCH  29  34
ATOM     34  O   UNL     1      -1.779  13.240  20.955  0.00  0.00    +0.000 OA
ATOM     35  C   UNL     1      -1.890  14.649  21.069  0.00  0.00    +0.000 C 
ENDBRANCH  29  34
ENDBRANCH  23  24
ENDBRANCH  22  23
ENDBRANCH   2  22
TORSDOF 11
ENDMDL
MODEL 9
REMARK VINA RESULT:      -7.8      2.579      8.732
REMARK  Name = 
REMARK  13 active torsions:
REMARK  status: ('A' for Active; 'I' for Inactive)
REMARK    1  A    between atoms: C_1  and  C_2
REMARK    2  A    between atoms: C_2  and  C_3
REMARK    3  A    between atoms: C_3  and  C_4
REMARK    4  A    between atoms: C_5  and  O_6
REMARK    5  A    between atoms: O_6  and  C_7
REMARK    6  A    between atoms: C_7  and  C_8
REMARK    7  A    between atoms: C_11  and  C_12
REMARK    8  A    between atoms: C_12  and  O_14
REMARK    9  A    between atoms: C_16  and  O_17
REMARK   10  A    between atoms: O_17  and  C_18
REMARK   11  A    between atoms: C_21  and  C_22
REMARK   12  A    between atoms: N_24  and  C_25
REMARK   13  A    between atoms: C_31  and  O_32
REMARK                            x       y       z     vdW  Elec       q    Type
REMARK                         _______ _______ _______ _____ _____    ______ ____
ROOT
ATOM      1  C   UNL     1       2.850   4.907  19.561  0.00  0.00    +0.000 A 
ATOM      2  C   UNL     1       2.471   6.267  19.459  0.00  0.00    +0.000 A 
ATOM      3  C   UNL     1       2.946   7.051  18.396  0.00  0.00    +0.000 A 
ATOM      4  C   UNL     1       3.864   6.538  17.489  0.00  0.00    +0.000 A 
ATOM      5  C   UNL     1       4.259   5.207  17.572  0.00  0.00    +0.000 A 
ATOM      6  C   UNL     1       3.728   4.391  18.582  0.00  0.00    +0.000 A 
ENDROOT
BRANCH   5   7
ATOM      7  C   UNL     1       5.280   4.772  16.588  0.00  0.00    +0.000 C 
ATOM      8  O   UNL     1       6.273   4.201  17.024  0.00  0.00    +0.000 OA
ATOM      9  N   UNL     1       5.033   5.095  15.268  0.00  0.00    +0.000 N 
ATOM     10  H   UNL     1       4.249   5.712  15.082  0.00  0.00    +0.000 HD
BRANCH   9  11
ATOM     11  C   UNL     1       5.852   4.733  14.177  0.00  0.00    +0.000 A 
ATOM     12  C   UNL     1       7.090   5.334  13.923  0.00  0.00    +0.000 A 
ATOM     13  C   UNL     1       7.870   4.938  12.839  0.00  0.00    +0.000 A 
ATOM     14  C   UNL     1       7.417   3.936  11.989  0.00  0.00    +0.000 A 
ATOM     15  C   UNL     1       6.188   3.321  12.230  0.00  0.00    +0.000 A 
ATOM     16  C   UNL     1       5.414   3.709  13.329  0.00  0.00    +0.000 A 
ENDBRANCH   9  11
ENDBRANCH   5   7
BRANCH   6  17
ATOM     17  O   UNL     1       4.059   3.062  18.636  0.00  0.00    +0.000 OA
ATOM     18  H   UNL     1       4.692   2.907  17.909  0.00  0.00    +0.000 HD
ENDBRANCH   6  17
BRANCH   1  19
ATOM     19  C   UNL     1       2.336   4.010  20.676  0.00  0.00    +0.000 C 
BRANCH  19  21
ATOM     20  C   UNL     1       0.718   2.606  19.273  0.00  0.00    +0.000 C 
ATOM     21  C   UNL     1       0.904   3.463  20.514  0.00  0.00    +0.000 C 
ENDBRANCH  19  21
ENDBRANCH   1  19
BRANCH   2  22
ATOM     22  O   UNL     1       1.626   6.788  20.415  0.00  0.00    +0.000 OA
BRANCH  22  23
ATOM     23  C   UNL     1       1.903   8.150  20.796  0.00  0.00    +0.000 C 
BRANCH  23  24
ATOM     24  C   UNL     1       0.962   9.146  20.152  0.00  0.00    +0.000 A 
ATOM     25  C   UNL     1       1.046   9.395  18.771  0.00  0.00    +0.000 A 
ATOM     26  C   UNL     1       0.129  10.236  18.151  0.00  0.00    +0.000 A 
ATOM     27  C   UNL     1      -0.884  10.848  18.897  0.00  0.00    +0.000 A 
ATOM     28  C   UNL     1      -1.002  10.578  20.273  0.00  0.00    +0.000 A 
ATOM     29  C   UNL     1      -0.078   9.729  20.902  0.00  0.00    +0.000 A 
BRANCH  27  30
ATOM     30  C   UNL     1      -1.854  11.698  18.176  0.00  0.00    +0.000 C 
ATOM     31  O   UNL     1      -3.056  11.550  18.267  0.00  0.00    +0.000 OA
BRANCH  30  32
ATOM     32  O   UNL     1      -1.289  12.629  17.382  0.00  0.00    +0.000 OA
ATOM     33  H   UNL     1      -0.319  12.726  17.476  0.00  0.00    +0.000 HD
ENDBRANCH  30  32
ENDBRANCH  27  30
BRANCH  29  34
ATOM     34  O   UNL     1      -0.131   9.391  22.232  0.00  0.00    +0.000 OA
ATOM     35  C   UNL     1      -0.800  10.272  23.120  0.00  0.00    +0.000 C 
ENDBRANCH  29  34
ENDBRANCH  23  24
ENDBRANCH  22  23
ENDBRANCH   2  22
TORSDOF 11
ENDMDL
