MODEL 1
REMARK VINA RESULT:      -6.8      0.000      0.000
REMARK  Name = 
REMARK  2 active torsions:
REMARK  status: ('A' for Active; 'I' for Inactive)
REMARK    1  A    between atoms: C_1  and  C_2
REMARK    2  A    between atoms: C_2  and  C_3
REMARK                            x       y       z     vdW  Elec       q    Type
REMARK                         _______ _______ _______ _____ _____    ______ ____
ROOT
ATOM      1  C   UNL     1       1.603   2.640  21.824  0.00  0.00    +0.000 C 
ATOM      2  C   UNL     1       2.145   3.050  20.436  0.00  0.00    +0.000 C 
ATOM      3  C   UNL     1       1.920   4.575  20.311  0.00  0.00    +0.000 C 
ATOM      4  C   UNL     1       1.329   2.284  19.346  0.00  0.00    +0.000 C 
ATOM      5  N   UNL     1       2.069   1.938  18.139  0.00  0.00    +0.000 N 
ATOM      6  C   UNL     1       2.629   2.978  17.409  0.00  0.00    +0.000 C 
ATOM      7  O   UNL     1       2.045   3.466  16.449  0.00  0.00    +0.000 OA
ATOM      8  C   UNL     1       3.912   3.407  17.920  0.00  0.00    +0.000 A 
ATOM      9  S   UNL     1       5.003   4.324  16.981  0.00  0.00    +0.000 S 
ATOM     10  C   UNL     1       6.016   4.506  18.354  0.00  0.00    +0.000 A 
ATOM     11  N   UNL     1       7.126   5.250  18.313  0.00  0.00    +0.000 N 
ATOM     12  N   UNL     1       5.618   3.884  19.437  0.00  0.00    +0.000 NA
ATOM     13  C   UNL     1       4.389   3.289  19.215  0.00  0.00    +0.000 A 
ATOM     14  C   UNL     1       3.659   2.697  20.388  0.00  0.00    +0.000 C 
ATOM     15  H   UNL     1       2.742   1.207  18.326  0.00  0.00    +0.000 HD
ATOM     16  H   UNL     1       7.511   5.542  17.424  0.00  0.00    +0.000 HD
ATOM     17  H   UNL     1       7.780   5.162  19.080  0.00  0.00    +0.000 HD
ENDROOT
TORSDOF 0
ENDMDL
MODEL 2
REMARK VINA RESULT:      -6.8      2.645      5.285
REMARK  Name = 
REMARK  2 active torsions:
REMARK  status: ('A' for Active; 'I' for Inactive)
REMARK    1  A    between atoms: C_1  and  C_2
REMARK    2  A    between atoms: C_2  and  C_3
REMARK                            x       y       z     vdW  Elec       q    Type
REMARK                         _______ _______ _______ _____ _____    ______ ____
ROOT
ATOM      1  C   UNL     1       6.561   4.797  14.311  0.00  0.00    +0.000 C 
ATOM      2  C   UNL     1       6.047   4.873  15.766  0.00  0.00    +0.000 C 
ATOM      3  C   UNL     1       5.269   6.203  15.887  0.00  0.00    +0.000 C 
ATOM      4  C   UNL     1       7.282   4.871  16.723  0.00  0.00    +0.000 C 
ATOM      5  N   UNL     1       7.075   4.224  18.012  0.00  0.00    +0.000 N 
ATOM      6  C   UNL     1       6.072   4.729  18.829  0.00  0.00    +0.000 C 
ATOM      7  O   UNL     1       6.321   5.543  19.710  0.00  0.00    +0.000 OA
ATOM      8  C   UNL     1       4.759   4.217  18.504  0.00  0.00    +0.000 A 
ATOM      9  S   UNL     1       3.453   4.308  19.598  0.00  0.00    +0.000 S 
ATOM     10  C   UNL     1       2.403   3.713  18.377  0.00  0.00    +0.000 A 
ATOM     11  N   UNL     1       1.087   3.594  18.581  0.00  0.00    +0.000 N 
ATOM     12  N   UNL     1       2.976   3.405  17.239  0.00  0.00    +0.000 NA
ATOM     13  C   UNL     1       4.319   3.733  17.283  0.00  0.00    +0.000 A 
ATOM     14  C   UNL     1       5.117   3.650  16.012  0.00  0.00    +0.000 C 
ATOM     15  H   UNL     1       7.000   3.222  17.905  0.00  0.00    +0.000 HD
ATOM     16  H   UNL     1       0.710   3.642  19.519  0.00  0.00    +0.000 HD
ATOM     17  H   UNL     1       0.553   3.059  17.908  0.00  0.00    +0.000 HD
ENDROOT
TORSDOF 0
ENDMDL
MODEL 3
REMARK VINA RESULT:      -6.5      2.616      3.466
REMARK  Name = 
REMARK  2 active torsions:
REMARK  status: ('A' for Active; 'I' for Inactive)
REMARK    1  A    between atoms: C_1  and  C_2
REMARK    2  A    between atoms: C_2  and  C_3
REMARK                            x       y       z     vdW  Elec       q    Type
REMARK                         _______ _______ _______ _____ _____    ______ ____
ROOT
ATOM      1  C   UNL     1       1.458   3.100  19.179  0.00  0.00    +0.000 C 
ATOM      2  C   UNL     1       2.918   3.535  18.921  0.00  0.00    +0.000 C 
ATOM      3  C   UNL     1       3.778   2.252  19.002  0.00  0.00    +0.000 C 
ATOM      4  C   UNL     1       3.334   4.545  20.038  0.00  0.00    +0.000 C 
ATOM      5  N   UNL     1       4.278   5.576  19.629  0.00  0.00    +0.000 N 
ATOM      6  C   UNL     1       5.508   5.161  19.138  0.00  0.00    +0.000 C 
ATOM      7  O   UNL     1       6.492   5.089  19.866  0.00  0.00    +0.000 OA
ATOM      8  C   UNL     1       5.475   4.814  17.735  0.00  0.00    +0.000 A 
ATOM      9  S   UNL     1       6.892   4.714  16.789  0.00  0.00    +0.000 S 
ATOM     10  C   UNL     1       5.964   4.105  15.480  0.00  0.00    +0.000 A 
ATOM     11  N   UNL     1       6.536   3.721  14.334  0.00  0.00    +0.000 N 
ATOM     12  N   UNL     1       4.673   4.027  15.691  0.00  0.00    +0.000 NA
ATOM     13  C   UNL     1       4.384   4.387  16.995  0.00  0.00    +0.000 A 
ATOM     14  C   UNL     1       2.987   4.172  17.503  0.00  0.00    +0.000 C 
ATOM     15  H   UNL     1       3.837   6.246  19.014  0.00  0.00    +0.000 HD
ATOM     16  H   UNL     1       7.491   3.983  14.129  0.00  0.00    +0.000 HD
ATOM     17  H   UNL     1       5.932   3.561  13.538  0.00  0.00    +0.000 HD
ENDROOT
TORSDOF 0
ENDMDL
MODEL 4
REMARK VINA RESULT:      -6.4      2.592      3.105
REMARK  Name = 
REMARK  2 active torsions:
REMARK  status: ('A' for Active; 'I' for Inactive)
REMARK    1  A    between atoms: C_1  and  C_2
REMARK    2  A    between atoms: C_2  and  C_3
REMARK                            x       y       z     vdW  Elec       q    Type
REMARK                         _______ _______ _______ _____ _____    ______ ____
ROOT
ATOM      1  C   UNL     1       1.514   2.583  21.547  0.00  0.00    +0.000 C 
ATOM      2  C   UNL     1       2.260   3.286  20.391  0.00  0.00    +0.000 C 
ATOM      3  C   UNL     1       1.343   3.184  19.151  0.00  0.00    +0.000 C 
ATOM      4  C   UNL     1       3.604   2.528  20.142  0.00  0.00    +0.000 C 
ATOM      5  N   UNL     1       4.715   3.356  19.690  0.00  0.00    +0.000 N 
ATOM      6  C   UNL     1       4.551   4.058  18.503  0.00  0.00    +0.000 C 
ATOM      7  O   UNL     1       4.954   3.608  17.438  0.00  0.00    +0.000 OA
ATOM      8  C   UNL     1       3.852   5.312  18.675  0.00  0.00    +0.000 A 
ATOM      9  S   UNL     1       3.912   6.553  17.504  0.00  0.00    +0.000 S 
ATOM     10  C   UNL     1       2.742   7.437  18.396  0.00  0.00    +0.000 A 
ATOM     11  N   UNL     1       2.248   8.596  17.949  0.00  0.00    +0.000 N 
ATOM     12  N   UNL     1       2.361   6.891  19.525  0.00  0.00    +0.000 NA
ATOM     13  C   UNL     1       2.954   5.650  19.674  0.00  0.00    +0.000 A 
ATOM     14  C   UNL     1       2.494   4.769  20.801  0.00  0.00    +0.000 C 
ATOM     15  H   UNL     1       5.046   3.954  20.435  0.00  0.00    +0.000 HD
ATOM     16  H   UNL     1       2.706   9.087  17.191  0.00  0.00    +0.000 HD
ATOM     17  H   UNL     1       1.720   9.164  18.599  0.00  0.00    +0.000 HD
ENDROOT
TORSDOF 0
ENDMDL
MODEL 5
REMARK VINA RESULT:      -6.2      1.823      2.267
REMARK  Name = 
REMARK  2 active torsions:
REMARK  status: ('A' for Active; 'I' for Inactive)
REMARK    1  A    between atoms: C_1  and  C_2
REMARK    2  A    between atoms: C_2  and  C_3
REMARK                            x       y       z     vdW  Elec       q    Type
REMARK                         _______ _______ _______ _____ _____    ______ ____
ROOT
ATOM      1  C   UNL     1       1.637   4.229  19.791  0.00  0.00    +0.000 C 
ATOM      2  C   UNL     1       2.842   4.463  18.852  0.00  0.00    +0.000 C 
ATOM      3  C   UNL     1       2.802   5.956  18.453  0.00  0.00    +0.000 C 
ATOM      4  C   UNL     1       2.666   3.555  17.593  0.00  0.00    +0.000 C 
ATOM      5  N   UNL     1       3.902   3.064  16.998  0.00  0.00    +0.000 N 
ATOM      6  C   UNL     1       4.818   4.008  16.552  0.00  0.00    +0.000 C 
ATOM      7  O   UNL     1       4.845   4.363  15.380  0.00  0.00    +0.000 OA
ATOM      8  C   UNL     1       5.673   4.513  17.603  0.00  0.00    +0.000 A 
ATOM      9  S   UNL     1       7.143   5.314  17.271  0.00  0.00    +0.000 S 
ATOM     10  C   UNL     1       7.308   5.682  18.940  0.00  0.00    +0.000 A 
ATOM     11  N   UNL     1       8.320   6.427  19.397  0.00  0.00    +0.000 N 
ATOM     12  N   UNL     1       6.371   5.200  19.720  0.00  0.00    +0.000 NA
ATOM     13  C   UNL     1       5.403   4.567  18.961  0.00  0.00    +0.000 A 
ATOM     14  C   UNL     1       4.139   4.123  19.641  0.00  0.00    +0.000 C 
ATOM     15  H   UNL     1       4.338   2.371  17.591  0.00  0.00    +0.000 HD
ATOM     16  H   UNL     1       9.125   6.606  18.813  0.00  0.00    +0.000 HD
ATOM     17  H   UNL     1       8.476   6.445  20.397  0.00  0.00    +0.000 HD
ENDROOT
TORSDOF 0
ENDMDL
MODEL 6
REMARK VINA RESULT:      -6.1      1.507      1.516
REMARK  Name = 
REMARK  2 active torsions:
REMARK  status: ('A' for Active; 'I' for Inactive)
REMARK    1  A    between atoms: C_1  and  C_2
REMARK    2  A    between atoms: C_2  and  C_3
REMARK                            x       y       z     vdW  Elec       q    Type
REMARK                         _______ _______ _______ _____ _____    ______ ____
ROOT
ATOM      1  C   UNL     1       1.500   2.453  21.423  0.00  0.00    +0.000 C 
ATOM      2  C   UNL     1       2.120   3.497  20.468  0.00  0.00    +0.000 C 
ATOM      3  C   UNL     1       2.431   4.746  21.325  0.00  0.00    +0.000 C 
ATOM      4  C   UNL     1       1.067   3.837  19.364  0.00  0.00    +0.000 C 
ATOM      5  N   UNL     1       1.616   4.165  18.055  0.00  0.00    +0.000 N 
ATOM      6  C   UNL     1       2.483   5.245  17.975  0.00  0.00    +0.000 C 
ATOM      7  O   UNL     1       2.083   6.359  17.660  0.00  0.00    +0.000 OA
ATOM      8  C   UNL     1       3.847   4.909  18.322  0.00  0.00    +0.000 A 
ATOM      9  S   UNL     1       5.166   5.899  17.883  0.00  0.00    +0.000 S 
ATOM     10  C   UNL     1       6.209   4.903  18.813  0.00  0.00    +0.000 A 
ATOM     11  N   UNL     1       7.507   5.192  18.961  0.00  0.00    +0.000 N 
ATOM     12  N   UNL     1       5.645   3.862  19.375  0.00  0.00    +0.000 NA
ATOM     13  C   UNL     1       4.282   3.880  19.140  0.00  0.00    +0.000 A 
ATOM     14  C   UNL     1       3.419   2.887  19.866  0.00  0.00    +0.000 C 
ATOM     15  H   UNL     1       2.001   3.342  17.610  0.00  0.00    +0.000 HD
ATOM     16  H   UNL     1       7.949   5.873  18.357  0.00  0.00    +0.000 HD
ATOM     17  H   UNL     1       8.107   4.475  19.347  0.00  0.00    +0.000 HD
ENDROOT
TORSDOF 0
ENDMDL
MODEL 7
REMARK VINA RESULT:      -5.9      2.647      5.118
REMARK  Name = 
REMARK  2 active torsions:
REMARK  status: ('A' for Active; 'I' for Inactive)
REMARK    1  A    between atoms: C_1  and  C_2
REMARK    2  A    between atoms: C_2  and  C_3
REMARK                            x       y       z     vdW  Elec       q    Type
REMARK                         _______ _______ _______ _____ _____    ______ ____
ROOT
ATOM      1  C   UNL     1       5.163   6.802  15.021  0.00  0.00    +0.000 C 
ATOM      2  C   UNL     1       5.184   6.037  16.364  0.00  0.00    +0.000 C 
ATOM      3  C   UNL     1       4.161   6.741  17.286  0.00  0.00    +0.000 C 
ATOM      4  C   UNL     1       6.624   6.140  16.963  0.00  0.00    +0.000 C 
ATOM      5  N   UNL     1       7.062   4.988  17.740  0.00  0.00    +0.000 N 
ATOM      6  C   UNL     1       6.307   4.638  18.851  0.00  0.00    +0.000 C 
ATOM      7  O   UNL     1       6.610   5.026  19.973  0.00  0.00    +0.000 OA
ATOM      8  C   UNL     1       5.158   3.822  18.526  0.00  0.00    +0.000 A 
ATOM      9  S   UNL     1       4.340   2.896  19.703  0.00  0.00    +0.000 S 
ATOM     10  C   UNL     1       3.140   2.499  18.541  0.00  0.00    +0.000 A 
ATOM     11  N   UNL     1       2.063   1.775  18.865  0.00  0.00    +0.000 N 
ATOM     12  N   UNL     1       3.345   2.966  17.334  0.00  0.00    +0.000 NA
ATOM     13  C   UNL     1       4.474   3.766  17.322  0.00  0.00    +0.000 A 
ATOM     14  C   UNL     1       4.773   4.563  16.085  0.00  0.00    +0.000 C 
ATOM     15  H   UNL     1       7.234   4.192  17.140  0.00  0.00    +0.000 HD
ATOM     16  H   UNL     1       2.037   1.262  19.736  0.00  0.00    +0.000 HD
ATOM     17  H   UNL     1       1.499   1.408  18.109  0.00  0.00    +0.000 HD
ENDROOT
TORSDOF 0
ENDMDL
MODEL 8
REMARK VINA RESULT:      -5.9      2.406      4.093
REMARK  Name = 
REMARK  2 active torsions:
REMARK  status: ('A' for Active; 'I' for Inactive)
REMARK    1  A    between atoms: C_1  and  C_2
REMARK    2  A    between atoms: C_2  and  C_3
REMARK                            x       y       z     vdW  Elec       q    Type
REMARK                         _______ _______ _______ _____ _____    ______ ____
ROOT
ATOM      1  C   UNL     1       6.039   7.247  17.171  0.00  0.00    +0.000 C 
ATOM      2  C   UNL     1       5.007   6.130  17.441  0.00  0.00    +0.000 C 
ATOM      3  C   UNL     1       5.200   5.076  16.325  0.00  0.00    +0.000 C 
ATOM      4  C   UNL     1       3.577   6.754  17.363  0.00  0.00    +0.000 C 
ATOM      5  N   UNL     1       2.583   6.155  18.245  0.00  0.00    +0.000 N 
ATOM      6  C   UNL     1       2.320   4.801  18.088  0.00  0.00    +0.000 C 
ATOM      7  O   UNL     1       1.384   4.411  17.401  0.00  0.00    +0.000 OA
ATOM      8  C   UNL     1       3.263   3.952  18.782  0.00  0.00    +0.000 A 
ATOM      9  S   UNL     1       2.927   2.316  19.131  0.00  0.00    +0.000 S 
ATOM     10  C   UNL     1       4.532   2.119  19.705  0.00  0.00    +0.000 A 
ATOM     11  N   UNL     1       4.991   0.930  20.109  0.00  0.00    +0.000 N 
ATOM     12  N   UNL     1       5.271   3.201  19.702  0.00  0.00    +0.000 NA
ATOM     13  C   UNL     1       4.571   4.250  19.131  0.00  0.00    +0.000 A 
ATOM     14  C   UNL     1       5.305   5.528  18.844  0.00  0.00    +0.000 C 
ATOM     15  H   UNL     1       2.769   6.390  19.211  0.00  0.00    +0.000 HD
ATOM     16  H   UNL     1       4.348   0.171  20.294  0.00  0.00    +0.000 HD
ATOM     17  H   UNL     1       5.867   0.912  20.617  0.00  0.00    +0.000 HD
ENDROOT
TORSDOF 0
ENDMDL
MODEL 9
REMARK VINA RESULT:      -5.9      2.441      2.958
REMARK  Name = 
REMARK  2 active torsions:
REMARK  status: ('A' for Active; 'I' for Inactive)
REMARK    1  A    between atoms: C_1  and  C_2
REMARK    2  A    between atoms: C_2  and  C_3
REMARK                            x       y       z     vdW  Elec       q    Type
REMARK                         _______ _______ _______ _____ _____    ______ ____
ROOT
ATOM      1  C   UNL     1       2.378   1.771  18.860  0.00  0.00    +0.000 C 
ATOM      2  C   UNL     1       2.979   3.169  18.587  0.00  0.00    +0.000 C 
ATOM      3  C   UNL     1       4.121   3.362  19.612  0.00  0.00    +0.000 C 
ATOM      4  C   UNL     1       1.858   4.235  18.807  0.00  0.00    +0.000 C 
ATOM      5  N   UNL     1       1.943   5.416  17.958  0.00  0.00    +0.000 N 
ATOM      6  C   UNL     1       3.097   6.183  18.041  0.00  0.00    +0.000 C 
ATOM      7  O   UNL     1       3.154   7.171  18.764  0.00  0.00    +0.000 OA
ATOM      8  C   UNL     1       4.179   5.676  17.226  0.00  0.00    +0.000 A 
ATOM      9  S   UNL     1       5.518   6.641  16.791  0.00  0.00    +0.000 S 
ATOM     10  C   UNL     1       6.270   5.264  16.094  0.00  0.00    +0.000 A 
ATOM     11  N   UNL     1       7.502   5.324  15.578  0.00  0.00    +0.000 N 
ATOM     12  N   UNL     1       5.564   4.160  16.119  0.00  0.00    +0.000 NA
ATOM     13  C   UNL     1       4.382   4.371  16.807  0.00  0.00    +0.000 A 
ATOM     14  C   UNL     1       3.520   3.184  17.128  0.00  0.00    +0.000 C 
ATOM     15  H   UNL     1       1.712   5.190  17.000  0.00  0.00    +0.000 HD
ATOM     16  H   UNL     1       7.932   6.220  15.388  0.00  0.00    +0.000 HD
ATOM     17  H   UNL     1       7.813   4.546  15.010  0.00  0.00    +0.000 HD
ENDROOT
TORSDOF 0
ENDMDL
