MODEL 1
REMARK VINA RESULT:     -10.5      0.000      0.000
REMARK  Name = 
REMARK  2 active torsions:
REMARK  status: ('A' for Active; 'I' for Inactive)
REMARK    1  A    between atoms: C_2  and  C_13
REMARK    2  A    between atoms: C_6  and  C_7
REMARK                            x       y       z     vdW  Elec       q    Type
REMARK                         _______ _______ _______ _____ _____    ______ ____
ROOT
ATOM      1  C   UNL     1       3.833   5.901  17.788  0.00  0.00    +0.000 C 
ATOM      2  C   UNL     1       5.310   6.080  18.029  0.00  0.00    +0.000 A 
ATOM      3  C   UNL     1       5.991   7.186  17.492  0.00  0.00    +0.000 A 
ATOM      4  C   UNL     1       7.349   7.351  17.737  0.00  0.00    +0.000 A 
ATOM      5  F   UNL     1       7.985   8.416  17.234  0.00  0.00    +0.000 F 
ATOM      6  C   UNL     1       8.051   6.429  18.501  0.00  0.00    +0.000 A 
ATOM      7  C   UNL     1       7.386   5.318  19.023  0.00  0.00    +0.000 A 
ATOM      8  C   UNL     1       6.019   5.142  18.785  0.00  0.00    +0.000 A 
ATOM      9  O   UNL     1       5.445   4.020  19.335  0.00  0.00    +0.000 OA
ATOM     10  C   UNL     1       4.124   3.752  19.073  0.00  0.00    +0.000 A 
ATOM     11  C   UNL     1       3.616   2.557  19.594  0.00  0.00    +0.000 A 
ATOM     12  C   UNL     1       2.281   2.207  19.382  0.00  0.00    +0.000 A 
ATOM     13  C   UNL     1       1.462   3.052  18.644  0.00  0.00    +0.000 A 
ATOM     14  F   UNL     1       0.180   2.721  18.440  0.00  0.00    +0.000 F 
ATOM     15  C   UNL     1       1.954   4.239  18.117  0.00  0.00    +0.000 A 
ATOM     16  C   UNL     1       3.296   4.602  18.338  0.00  0.00    +0.000 A 
ENDROOT
BRANCH   1  18
ATOM     17  O   UNL     1       2.762   8.022  17.535  0.00  0.00    +0.000 OA
ATOM     18  C   UNL     1       3.011   7.089  18.301  0.00  0.00    +0.000 C 
ATOM     19  N   UNL     1       2.590   6.991  19.612  0.00  0.00    +0.000 N 
ATOM     20  C   UNL     1       1.745   7.906  20.163  0.00  0.00    +0.000 A 
ATOM     21  N   UNL     1       1.467   8.041  21.442  0.00  0.00    +0.000 NA
ATOM     22  C   UNL     1       0.589   9.122  21.483  0.00  0.00    +0.000 A 
ATOM     23  C   UNL     1       0.335   9.533  20.194  0.00  0.00    +0.000 A 
ATOM     24  O   UNL     1       1.068   8.767  19.351  0.00  0.00    +0.000 OA
ATOM     25  H   UNL     1       2.980   6.305  20.245  0.00  0.00    +0.000 HD
BRANCH  22  26
ATOM     26  C   UNL     1       0.045   9.731  22.727  0.00  0.00    +0.000 C 
ATOM     27  F   UNL     1      -0.125  11.074  22.641  0.00  0.00    +0.000 F 
ATOM     28  F   UNL     1      -1.166   9.202  23.048  0.00  0.00    +0.000 F 
ATOM     29  F   UNL     1       0.857   9.502  23.793  0.00  0.00    +0.000 F 
ENDBRANCH  22  26
ENDBRANCH   1  18
TORSDOF 2
ENDMDL
MODEL 2
REMARK VINA RESULT:     -10.1      1.948      2.328
REMARK  Name = 
REMARK  2 active torsions:
REMARK  status: ('A' for Active; 'I' for Inactive)
REMARK    1  A    between atoms: C_2  and  C_13
REMARK    2  A    between atoms: C_6  and  C_7
REMARK                            x       y       z     vdW  Elec       q    Type
REMARK                         _______ _______ _______ _____ _____    ______ ____
ROOT
ATOM      1  C   UNL     1       3.543   5.711  17.849  0.00  0.00    +0.000 C 
ATOM      2  C   UNL     1       5.025   5.971  17.938  0.00  0.00    +0.000 A 
ATOM      3  C   UNL     1       5.563   7.189  17.487  0.00  0.00    +0.000 A 
ATOM      4  C   UNL     1       6.928   7.426  17.593  0.00  0.00    +0.000 A 
ATOM      5  F   UNL     1       7.429   8.595  17.174  0.00  0.00    +0.000 F 
ATOM      6  C   UNL     1       7.777   6.469  18.133  0.00  0.00    +0.000 A 
ATOM      7  C   UNL     1       7.252   5.251  18.566  0.00  0.00    +0.000 A 
ATOM      8  C   UNL     1       5.880   5.000  18.467  0.00  0.00    +0.000 A 
ATOM      9  O   UNL     1       5.451   3.774  18.917  0.00  0.00    +0.000 OA
ATOM     10  C   UNL     1       4.126   3.440  18.775  0.00  0.00    +0.000 A 
ATOM     11  C   UNL     1       3.763   2.150  19.178  0.00  0.00    +0.000 A 
ATOM     12  C   UNL     1       2.436   1.728  19.075  0.00  0.00    +0.000 A 
ATOM     13  C   UNL     1       1.479   2.596  18.564  0.00  0.00    +0.000 A 
ATOM     14  F   UNL     1       0.205   2.196  18.466  0.00  0.00    +0.000 F 
ATOM     15  C   UNL     1       1.827   3.877  18.156  0.00  0.00    +0.000 A 
ATOM     16  C   UNL     1       3.161   4.312  18.268  0.00  0.00    +0.000 A 
ENDROOT
BRANCH   1  18
ATOM     17  O   UNL     1       2.657   6.679  19.845  0.00  0.00    +0.000 OA
ATOM     18  C   UNL     1       2.721   6.752  18.616  0.00  0.00    +0.000 C 
ATOM     19  N   UNL     1       2.125   7.722  17.837  0.00  0.00    +0.000 N 
ATOM     20  C   UNL     1       1.474   8.784  18.388  0.00  0.00    +0.000 A 
ATOM     21  N   UNL     1       0.686   9.628  17.759  0.00  0.00    +0.000 NA
ATOM     22  C   UNL     1       0.253  10.495  18.761  0.00  0.00    +0.000 A 
ATOM     23  C   UNL     1       0.875  10.152  19.940  0.00  0.00    +0.000 A 
ATOM     24  O   UNL     1       1.649   9.064  19.710  0.00  0.00    +0.000 OA
ATOM     25  H   UNL     1       2.050   7.626  16.833  0.00  0.00    +0.000 HD
BRANCH  22  26
ATOM     26  C   UNL     1      -0.737  11.590  18.571  0.00  0.00    +0.000 C 
ATOM     27  F   UNL     1      -0.169  12.782  18.261  0.00  0.00    +0.000 F 
ATOM     28  F   UNL     1      -1.610  11.299  17.570  0.00  0.00    +0.000 F 
ATOM     29  F   UNL     1      -1.487  11.787  19.688  0.00  0.00    +0.000 F 
ENDBRANCH  22  26
ENDBRANCH   1  18
TORSDOF 2
ENDMDL
MODEL 3
REMARK VINA RESULT:      -9.3      1.425      4.537
REMARK  Name = 
REMARK  2 active torsions:
REMARK  status: ('A' for Active; 'I' for Inactive)
REMARK    1  A    between atoms: C_2  and  C_13
REMARK    2  A    between atoms: C_6  and  C_7
REMARK                            x       y       z     vdW  Elec       q    Type
REMARK                         _______ _______ _______ _____ _____    ______ ____
ROOT
ATOM      1  C   UNL     1       3.890   5.493  19.010  0.00  0.00    +0.000 C 
ATOM      2  C   UNL     1       2.979   4.296  18.912  0.00  0.00    +0.000 A 
ATOM      3  C   UNL     1       1.950   4.106  19.851  0.00  0.00    +0.000 A 
ATOM      4  C   UNL     1       1.103   3.009  19.738  0.00  0.00    +0.000 A 
ATOM      5  F   UNL     1       0.117   2.845  20.628  0.00  0.00    +0.000 F 
ATOM      6  C   UNL     1       1.265   2.087  18.714  0.00  0.00    +0.000 A 
ATOM      7  C   UNL     1       2.296   2.260  17.789  0.00  0.00    +0.000 A 
ATOM      8  C   UNL     1       3.154   3.360  17.889  0.00  0.00    +0.000 A 
ATOM      9  O   UNL     1       4.141   3.451  16.937  0.00  0.00    +0.000 OA
ATOM     10  C   UNL     1       5.061   4.467  17.028  0.00  0.00    +0.000 A 
ATOM     11  C   UNL     1       6.088   4.463  16.078  0.00  0.00    +0.000 A 
ATOM     12  C   UNL     1       7.064   5.463  16.091  0.00  0.00    +0.000 A 
ATOM     13  C   UNL     1       7.010   6.458  17.059  0.00  0.00    +0.000 A 
ATOM     14  F   UNL     1       7.942   7.419  17.073  0.00  0.00    +0.000 F 
ATOM     15  C   UNL     1       5.998   6.471  18.010  0.00  0.00    +0.000 A 
ATOM     16  C   UNL     1       5.006   5.473  17.994  0.00  0.00    +0.000 A 
ENDROOT
BRANCH   1  18
ATOM     17  O   UNL     1       3.063   7.427  17.875  0.00  0.00    +0.000 OA
ATOM     18  C   UNL     1       3.121   6.818  18.946  0.00  0.00    +0.000 C 
ATOM     19  N   UNL     1       2.523   7.209  20.126  0.00  0.00    +0.000 N 
ATOM     20  C   UNL     1       1.701   8.293  20.188  0.00  0.00    +0.000 A 
ATOM     21  N   UNL     1       1.271   8.884  21.281  0.00  0.00    +0.000 NA
ATOM     22  C   UNL     1       0.498   9.944  20.808  0.00  0.00    +0.000 A 
ATOM     23  C   UNL     1       0.457   9.880  19.434  0.00  0.00    +0.000 A 
ATOM     24  O   UNL     1       1.221   8.836  19.034  0.00  0.00    +0.000 OA
ATOM     25  H   UNL     1       2.760   6.778  21.010  0.00  0.00    +0.000 HD
BRANCH  22  26
ATOM     26  C   UNL     1      -0.146  10.977  21.665  0.00  0.00    +0.000 C 
ATOM     27  F   UNL     1       0.489  12.175  21.635  0.00  0.00    +0.000 F 
ATOM     28  F   UNL     1      -1.432  11.204  21.282  0.00  0.00    +0.000 F 
ATOM     29  F   UNL     1      -0.197  10.588  22.966  0.00  0.00    +0.000 F 
ENDBRANCH  22  26
ENDBRANCH   1  18
TORSDOF 2
ENDMDL
MODEL 4
REMARK VINA RESULT:      -8.6      6.182      9.482
REMARK  Name = 
REMARK  2 active torsions:
REMARK  status: ('A' for Active; 'I' for Inactive)
REMARK    1  A    between atoms: C_2  and  C_13
REMARK    2  A    between atoms: C_6  and  C_7
REMARK                            x       y       z     vdW  Elec       q    Type
REMARK                         _______ _______ _______ _____ _____    ______ ____
ROOT
ATOM      1  C   UNL     1       9.932  11.643  19.549  0.00  0.00    +0.000 C 
ATOM      2  C   UNL     1      10.467  12.706  18.623  0.00  0.00    +0.000 A 
ATOM      3  C   UNL     1      11.189  12.348  17.470  0.00  0.00    +0.000 A 
ATOM      4  C   UNL     1      11.660  13.336  16.614  0.00  0.00    +0.000 A 
ATOM      5  F   UNL     1      12.332  12.985  15.510  0.00  0.00    +0.000 F 
ATOM      6  C   UNL     1      11.437  14.679  16.884  0.00  0.00    +0.000 A 
ATOM      7  C   UNL     1      10.738  15.042  18.037  0.00  0.00    +0.000 A 
ATOM      8  C   UNL     1      10.256  14.058  18.906  0.00  0.00    +0.000 A 
ATOM      9  O   UNL     1       9.580  14.505  20.016  0.00  0.00    +0.000 OA
ATOM     10  C   UNL     1       9.150  13.590  20.946  0.00  0.00    +0.000 A 
ATOM     11  C   UNL     1       8.538  14.109  22.093  0.00  0.00    +0.000 A 
ATOM     12  C   UNL     1       8.065  13.251  23.088  0.00  0.00    +0.000 A 
ATOM     13  C   UNL     1       8.212  11.878  22.934  0.00  0.00    +0.000 A 
ATOM     14  F   UNL     1       7.757  11.052  23.885  0.00  0.00    +0.000 F 
ATOM     15  C   UNL     1       8.821  11.350  21.803  0.00  0.00    +0.000 A 
ATOM     16  C   UNL     1       9.290  12.210  20.792  0.00  0.00    +0.000 A 
ENDROOT
BRANCH   1  18
ATOM     17  O   UNL     1       8.163  11.123  18.031  0.00  0.00    +0.000 OA
ATOM     18  C   UNL     1       8.980  10.676  18.838  0.00  0.00    +0.000 C 
ATOM     19  N   UNL     1       9.146   9.344  19.159  0.00  0.00    +0.000 N 
ATOM     20  C   UNL     1       8.462   8.360  18.511  0.00  0.00    +0.000 A 
ATOM     21  N   UNL     1       8.368   7.102  18.882  0.00  0.00    +0.000 NA
ATOM     22  C   UNL     1       7.545   6.527  17.913  0.00  0.00    +0.000 A 
ATOM     23  C   UNL     1       7.248   7.480  16.966  0.00  0.00    +0.000 A 
ATOM     24  O   UNL     1       7.825   8.647  17.341  0.00  0.00    +0.000 OA
ATOM     25  H   UNL     1       9.692   9.054  19.960  0.00  0.00    +0.000 HD
BRANCH  22  26
ATOM     26  C   UNL     1       7.062   5.120  17.933  0.00  0.00    +0.000 C 
ATOM     27  F   UNL     1       8.063   4.205  17.896  0.00  0.00    +0.000 F 
ATOM     28  F   UNL     1       6.337   4.862  19.055  0.00  0.00    +0.000 F 
ATOM     29  F   UNL     1       6.244   4.856  16.880  0.00  0.00    +0.000 F 
ENDBRANCH  22  26
ENDBRANCH   1  18
TORSDOF 2
ENDMDL
MODEL 5
REMARK VINA RESULT:      -8.1      3.380      7.945
REMARK  Name = 
REMARK  2 active torsions:
REMARK  status: ('A' for Active; 'I' for Inactive)
REMARK    1  A    between atoms: C_2  and  C_13
REMARK    2  A    between atoms: C_6  and  C_7
REMARK                            x       y       z     vdW  Elec       q    Type
REMARK                         _______ _______ _______ _____ _____    ______ ____
ROOT
ATOM      1  C   UNL     1       2.717   5.738  17.993  0.00  0.00    +0.000 C 
ATOM      2  C   UNL     1       2.492   4.608  18.965  0.00  0.00    +0.000 A 
ATOM      3  C   UNL     1       2.714   3.276  18.573  0.00  0.00    +0.000 A 
ATOM      4  C   UNL     1       2.523   2.244  19.484  0.00  0.00    +0.000 A 
ATOM      5  F   UNL     1       2.751   0.980  19.105  0.00  0.00    +0.000 F 
ATOM      6  C   UNL     1       2.104   2.508  20.781  0.00  0.00    +0.000 A 
ATOM      7  C   UNL     1       1.864   3.826  21.172  0.00  0.00    +0.000 A 
ATOM      8  C   UNL     1       2.055   4.875  20.265  0.00  0.00    +0.000 A 
ATOM      9  O   UNL     1       1.794   6.140  20.735  0.00  0.00    +0.000 OA
ATOM     10  C   UNL     1       1.889   7.203  19.870  0.00  0.00    +0.000 A 
ATOM     11  C   UNL     1       1.536   8.456  20.383  0.00  0.00    +0.000 A 
ATOM     12  C   UNL     1       1.609   9.593  19.575  0.00  0.00    +0.000 A 
ATOM     13  C   UNL     1       2.028   9.470  18.257  0.00  0.00    +0.000 A 
ATOM     14  F   UNL     1       2.101  10.558  17.480  0.00  0.00    +0.000 F 
ATOM     15  C   UNL     1       2.377   8.232  17.734  0.00  0.00    +0.000 A 
ATOM     16  C   UNL     1       2.317   7.084  18.547  0.00  0.00    +0.000 A 
ENDROOT
BRANCH   1  18
ATOM     17  O   UNL     1       5.077   6.006  18.247  0.00  0.00    +0.000 OA
ATOM     18  C   UNL     1       4.154   5.774  17.463  0.00  0.00    +0.000 C 
ATOM     19  N   UNL     1       4.291   5.511  16.115  0.00  0.00    +0.000 N 
ATOM     20  C   UNL     1       5.516   5.381  15.532  0.00  0.00    +0.000 A 
ATOM     21  N   UNL     1       5.766   5.361  14.241  0.00  0.00    +0.000 NA
ATOM     22  C   UNL     1       7.153   5.241  14.169  0.00  0.00    +0.000 A 
ATOM     23  C   UNL     1       7.652   5.124  15.447  0.00  0.00    +0.000 A 
ATOM     24  O   UNL     1       6.617   5.214  16.316  0.00  0.00    +0.000 OA
ATOM     25  H   UNL     1       3.497   5.518  15.489  0.00  0.00    +0.000 HD
BRANCH  22  26
ATOM     26  C   UNL     1       7.946   5.263  12.910  0.00  0.00    +0.000 C 
ATOM     27  F   UNL     1       7.672   4.223  12.083  0.00  0.00    +0.000 F 
ATOM     28  F   UNL     1       7.716   6.400  12.200  0.00  0.00    +0.000 F 
ATOM     29  F   UNL     1       9.282   5.230  13.159  0.00  0.00    +0.000 F 
ENDBRANCH  22  26
ENDBRANCH   1  18
TORSDOF 2
ENDMDL
MODEL 6
REMARK VINA RESULT:      -8.0      3.715      8.886
REMARK  Name = 
REMARK  2 active torsions:
REMARK  status: ('A' for Active; 'I' for Inactive)
REMARK    1  A    between atoms: C_2  and  C_13
REMARK    2  A    between atoms: C_6  and  C_7
REMARK                            x       y       z     vdW  Elec       q    Type
REMARK                         _______ _______ _______ _____ _____    ______ ____
ROOT
ATOM      1  C   UNL     1       0.360  11.281  18.620  0.00  0.00    +0.000 C 
ATOM      2  C   UNL     1      -1.103  11.087  18.310  0.00  0.00    +0.000 A 
ATOM      3  C   UNL     1      -1.506  10.178  17.316  0.00  0.00    +0.000 A 
ATOM      4  C   UNL     1      -2.859   9.994  17.053  0.00  0.00    +0.000 A 
ATOM      5  F   UNL     1      -3.233   9.114  16.116  0.00  0.00    +0.000 F 
ATOM      6  C   UNL     1      -3.823  10.705  17.753  0.00  0.00    +0.000 A 
ATOM      7  C   UNL     1      -3.429  11.623  18.728  0.00  0.00    +0.000 A 
ATOM      8  C   UNL     1      -2.072  11.816  19.005  0.00  0.00    +0.000 A 
ATOM      9  O   UNL     1      -1.775  12.740  19.978  0.00  0.00    +0.000 OA
ATOM     10  C   UNL     1      -0.458  13.029  20.240  0.00  0.00    +0.000 A 
ATOM     11  C   UNL     1      -0.218  14.034  21.185  0.00  0.00    +0.000 A 
ATOM     12  C   UNL     1       1.091  14.389  21.517  0.00  0.00    +0.000 A 
ATOM     13  C   UNL     1       2.154  13.743  20.899  0.00  0.00    +0.000 A 
ATOM     14  F   UNL     1       3.410  14.078  21.217  0.00  0.00    +0.000 F 
ATOM     15  C   UNL     1       1.929  12.747  19.957  0.00  0.00    +0.000 A 
ATOM     16  C   UNL     1       0.612  12.377  19.626  0.00  0.00    +0.000 A 
ENDROOT
BRANCH   1  18
ATOM     17  O   UNL     1       0.812   9.527  20.178  0.00  0.00    +0.000 OA
ATOM     18  C   UNL     1       1.041   9.978  19.053  0.00  0.00    +0.000 C 
ATOM     19  N   UNL     1       1.856   9.396  18.105  0.00  0.00    +0.000 N 
ATOM     20  C   UNL     1       2.423   8.173  18.300  0.00  0.00    +0.000 A 
ATOM     21  N   UNL     1       3.383   7.634  17.581  0.00  0.00    +0.000 NA
ATOM     22  C   UNL     1       3.622   6.409  18.202  0.00  0.00    +0.000 A 
ATOM     23  C   UNL     1       2.724   6.256  19.234  0.00  0.00    +0.000 A 
ATOM     24  O   UNL     1       1.962   7.374  19.303  0.00  0.00    +0.000 OA
ATOM     25  H   UNL     1       2.157   9.900  17.281  0.00  0.00    +0.000 HD
BRANCH  22  26
ATOM     26  C   UNL     1       4.691   5.450  17.812  0.00  0.00    +0.000 C 
ATOM     27  F   UNL     1       4.716   4.330  18.577  0.00  0.00    +0.000 F 
ATOM     28  F   UNL     1       4.543   5.042  16.523  0.00  0.00    +0.000 F 
ATOM     29  F   UNL     1       5.925   6.015  17.896  0.00  0.00    +0.000 F 
ENDBRANCH  22  26
ENDBRANCH   1  18
TORSDOF 2
ENDMDL
MODEL 7
REMARK VINA RESULT:      -8.0      3.846      9.123
REMARK  Name = 
REMARK  2 active torsions:
REMARK  status: ('A' for Active; 'I' for Inactive)
REMARK    1  A    between atoms: C_2  and  C_13
REMARK    2  A    between atoms: C_6  and  C_7
REMARK                            x       y       z     vdW  Elec       q    Type
REMARK                         _______ _______ _______ _____ _____    ______ ____
ROOT
ATOM      1  C   UNL     1      -0.167  11.593  18.607  0.00  0.00    +0.000 C 
ATOM      2  C   UNL     1      -1.578  11.272  18.184  0.00  0.00    +0.000 A 
ATOM      3  C   UNL     1      -1.817  10.459  17.062  0.00  0.00    +0.000 A 
ATOM      4  C   UNL     1      -3.122  10.153  16.693  0.00  0.00    +0.000 A 
ATOM      5  F   UNL     1      -3.339   9.365  15.633  0.00  0.00    +0.000 F 
ATOM      6  C   UNL     1      -4.200  10.649  17.413  0.00  0.00    +0.000 A 
ATOM      7  C   UNL     1      -3.970  11.472  18.517  0.00  0.00    +0.000 A 
ATOM      8  C   UNL     1      -2.662  11.786  18.900  0.00  0.00    +0.000 A 
ATOM      9  O   UNL     1      -2.529  12.603  19.997  0.00  0.00    +0.000 OA
ATOM     10  C   UNL     1      -1.272  13.008  20.376  0.00  0.00    +0.000 A 
ATOM     11  C   UNL     1      -1.204  13.902  21.450  0.00  0.00    +0.000 A 
ATOM     12  C   UNL     1       0.034  14.362  21.906  0.00  0.00    +0.000 A 
ATOM     13  C   UNL     1       1.197  13.930  21.281  0.00  0.00    +0.000 A 
ATOM     14  F   UNL     1       2.385  14.366  21.717  0.00  0.00    +0.000 F 
ATOM     15  C   UNL     1       1.143  13.046  20.211  0.00  0.00    +0.000 A 
ATOM     16  C   UNL     1      -0.101  12.571  19.755  0.00  0.00    +0.000 A 
ENDROOT
BRANCH   1  18
ATOM     17  O   UNL     1       0.493   9.772  20.005  0.00  0.00    +0.000 OA
ATOM     18  C   UNL     1       0.649  10.334  18.919  0.00  0.00    +0.000 C 
ATOM     19  N   UNL     1       1.495   9.916  17.912  0.00  0.00    +0.000 N 
ATOM     20  C   UNL     1       2.183   8.743  17.995  0.00  0.00    +0.000 A 
ATOM     21  N   UNL     1       3.174   8.364  17.218  0.00  0.00    +0.000 NA
ATOM     22  C   UNL     1       3.547   7.122  17.730  0.00  0.00    +0.000 A 
ATOM     23  C   UNL     1       2.693   6.796  18.760  0.00  0.00    +0.000 A 
ATOM     24  O   UNL     1       1.827   7.823  18.934  0.00  0.00    +0.000 OA
ATOM     25  H   UNL     1       1.725  10.513  17.129  0.00  0.00    +0.000 HD
BRANCH  22  26
ATOM     26  C   UNL     1       4.695   6.310  17.244  0.00  0.00    +0.000 C 
ATOM     27  F   UNL     1       5.893   6.727  17.727  0.00  0.00    +0.000 F 
ATOM     28  F   UNL     1       4.562   5.004  17.599  0.00  0.00    +0.000 F 
ATOM     29  F   UNL     1       4.785   6.331  15.888  0.00  0.00    +0.000 F 
ENDBRANCH  22  26
ENDBRANCH   1  18
TORSDOF 2
ENDMDL
MODEL 8
REMARK VINA RESULT:      -7.6      3.623      7.948
REMARK  Name = 
REMARK  2 active torsions:
REMARK  status: ('A' for Active; 'I' for Inactive)
REMARK    1  A    between atoms: C_2  and  C_13
REMARK    2  A    between atoms: C_6  and  C_7
REMARK                            x       y       z     vdW  Elec       q    Type
REMARK                         _______ _______ _______ _____ _____    ______ ____
ROOT
ATOM      1  C   UNL     1      -0.122  11.066  19.904  0.00  0.00    +0.000 C 
ATOM      2  C   UNL     1       0.632  12.369  19.822  0.00  0.00    +0.000 A 
ATOM      3  C   UNL     1       1.604  12.691  20.786  0.00  0.00    +0.000 A 
ATOM      4  C   UNL     1       2.307  13.886  20.689  0.00  0.00    +0.000 A 
ATOM      5  F   UNL     1       3.242  14.176  21.602  0.00  0.00    +0.000 F 
ATOM      6  C   UNL     1       2.056  14.778  19.656  0.00  0.00    +0.000 A 
ATOM      7  C   UNL     1       1.079  14.473  18.706  0.00  0.00    +0.000 A 
ATOM      8  C   UNL     1       0.366  13.273  18.790  0.00  0.00    +0.000 A 
ATOM      9  O   UNL     1      -0.578  13.056  17.815  0.00  0.00    +0.000 OA
ATOM     10  C   UNL     1      -1.363  11.931  17.887  0.00  0.00    +0.000 A 
ATOM     11  C   UNL     1      -2.358  11.803  16.912  0.00  0.00    +0.000 A 
ATOM     12  C   UNL     1      -3.198  10.687  16.906  0.00  0.00    +0.000 A 
ATOM     13  C   UNL     1      -3.044   9.709  17.880  0.00  0.00    +0.000 A 
ATOM     14  F   UNL     1      -3.845   8.636  17.876  0.00  0.00    +0.000 F 
ATOM     15  C   UNL     1      -2.062   9.826  18.856  0.00  0.00    +0.000 A 
ATOM     16  C   UNL     1      -1.205  10.942  18.860  0.00  0.00    +0.000 A 
ENDROOT
BRANCH   1  18
ATOM     17  O   UNL     1       0.927   9.152  20.876  0.00  0.00    +0.000 OA
ATOM     18  C   UNL     1       0.810   9.850  19.866  0.00  0.00    +0.000 C 
ATOM     19  N   UNL     1       1.437   9.626  18.658  0.00  0.00    +0.000 N 
ATOM     20  C   UNL     1       2.190   8.513  18.437  0.00  0.00    +0.000 A 
ATOM     21  N   UNL     1       3.006   8.311  17.425  0.00  0.00    +0.000 NA
ATOM     22  C   UNL     1       3.549   7.052  17.677  0.00  0.00    +0.000 A 
ATOM     23  C   UNL     1       2.961   6.537  18.810  0.00  0.00    +0.000 A 
ATOM     24  O   UNL     1       2.099   7.461  19.298  0.00  0.00    +0.000 OA
ATOM     25  H   UNL     1       1.457  10.329  17.931  0.00  0.00    +0.000 HD
BRANCH  22  26
ATOM     26  C   UNL     1       4.606   6.401  16.857  0.00  0.00    +0.000 C 
ATOM     27  F   UNL     1       4.800   6.998  15.654  0.00  0.00    +0.000 F 
ATOM     28  F   UNL     1       5.806   6.411  17.497  0.00  0.00    +0.000 F 
ATOM     29  F   UNL     1       4.316   5.096  16.609  0.00  0.00    +0.000 F 
ENDBRANCH  22  26
ENDBRANCH   1  18
TORSDOF 2
ENDMDL
