MODEL 1
REMARK VINA RESULT:      -7.7      0.000      0.000
REMARK  Name = 
REMARK  10 active torsions:
REMARK  status: ('A' for Active; 'I' for Inactive)
REMARK    1  A    between atoms: C_1  and  C_2
REMARK    2  A    between atoms: C_2  and  O_3
REMARK    3  A    between atoms: O_3  and  C_4
REMARK    4  A    between atoms: C_4  and  C_6
REMARK    5  A    between atoms: C_9  and  O_10
REMARK    6  A    between atoms: O_10  and  C_11
REMARK    7  A    between atoms: C_15  and  C_16
REMARK    8  A    between atoms: C_19  and  O_20
REMARK    9  A    between atoms: O_20  and  C_21
REMARK   10  A    between atoms: C_23  and  O_24
REMARK                            x       y       z     vdW  Elec       q    Type
REMARK                         _______ _______ _______ _____ _____    ______ ____
ROOT
ATOM      1  C   UNL     1       3.791   5.305  19.511  0.00  0.00    +0.000 A 
ATOM      2  C   UNL     1       3.637   3.980  19.847  0.00  0.00    +0.000 A 
ATOM      3  N   UNL     1       2.360   3.877  20.303  0.00  0.00    +0.000 N 
ATOM      4  N   UNL     1       1.669   5.028  20.268  0.00  0.00    +0.000 NA
ATOM      5  C   UNL     1       2.519   5.917  19.716  0.00  0.00    +0.000 A 
ATOM      6  H   UNL     1       1.891   3.049  20.657  0.00  0.00    +0.000 HD
ENDROOT
BRANCH   5   7
ATOM      7  C   UNL     1       2.116   7.305  19.459  0.00  0.00    +0.000 A 
ATOM      8  C   UNL     1       2.218   7.822  18.158  0.00  0.00    +0.000 A 
ATOM      9  C   UNL     1       1.813   9.130  17.870  0.00  0.00    +0.000 A 
ATOM     10  C   UNL     1       1.292   9.950  18.872  0.00  0.00    +0.000 A 
ATOM     11  C   UNL     1       1.200   9.457  20.172  0.00  0.00    +0.000 A 
ATOM     12  C   UNL     1       1.619   8.153  20.462  0.00  0.00    +0.000 A 
BRANCH  10  13
ATOM     13  O   UNL     1       0.920  11.203  18.467  0.00  0.00    +0.000 OA
ATOM     14  C   UNL     1       1.919  12.216  18.524  0.00  0.00    +0.000 C 
ENDBRANCH  10  13
BRANCH  12  15
ATOM     15  O   UNL     1       1.574   7.742  21.768  0.00  0.00    +0.000 OA
ATOM     16  H   UNL     1       0.724   7.999  22.158  0.00  0.00    +0.000 HD
ENDBRANCH  12  15
ENDBRANCH   5   7
BRANCH   1  17
ATOM     17  O   UNL     1       4.892   5.905  19.012  0.00  0.00    +0.000 OA
BRANCH  17  21
ATOM     18  C   UNL     1       6.414   5.042  15.239  0.00  0.00    +0.000 A 
ATOM     19  C   UNL     1       6.975   4.485  16.394  0.00  0.00    +0.000 A 
ATOM     20  C   UNL     1       6.452   4.809  17.647  0.00  0.00    +0.000 A 
ATOM     21  C   UNL     1       5.376   5.692  17.749  0.00  0.00    +0.000 A 
ATOM     22  C   UNL     1       4.795   6.227  16.601  0.00  0.00    +0.000 A 
ATOM     23  C   UNL     1       5.322   5.916  15.348  0.00  0.00    +0.000 A 
BRANCH  18  24
ATOM     24  C   UNL     1       7.047   4.729  13.932  0.00  0.00    +0.000 C 
ATOM     25  O   UNL     1       7.794   5.490  13.340  0.00  0.00    +0.000 OA
BRANCH  24  26
ATOM     26  O   UNL     1       6.571   3.547  13.470  0.00  0.00    +0.000 OA
BRANCH  26  28
ATOM     27  C   UNL     1       5.602   2.360  11.641  0.00  0.00    +0.000 C 
ATOM     28  C   UNL     1       5.570   3.643  12.451  0.00  0.00    +0.000 C 
ENDBRANCH  26  28
ENDBRANCH  24  26
ENDBRANCH  18  24
ENDBRANCH  17  21
ENDBRANCH   1  17
TORSDOF 8
ENDMDL
MODEL 2
REMARK VINA RESULT:      -7.7      0.511      1.086
REMARK  Name = 
REMARK  10 active torsions:
REMARK  status: ('A' for Active; 'I' for Inactive)
REMARK    1  A    between atoms: C_1  and  C_2
REMARK    2  A    between atoms: C_2  and  O_3
REMARK    3  A    between atoms: O_3  and  C_4
REMARK    4  A    between atoms: C_4  and  C_6
REMARK    5  A    between atoms: C_9  and  O_10
REMARK    6  A    between atoms: O_10  and  C_11
REMARK    7  A    between atoms: C_15  and  C_16
REMARK    8  A    between atoms: C_19  and  O_20
REMARK    9  A    between atoms: O_20  and  C_21
REMARK   10  A    between atoms: C_23  and  O_24
REMARK                            x       y       z     vdW  Elec       q    Type
REMARK                         _______ _______ _______ _____ _____    ______ ____
ROOT
ATOM      1  C   UNL     1       3.677   5.289  19.597  0.00  0.00    +0.000 A 
ATOM      2  C   UNL     1       3.508   3.969  19.946  0.00  0.00    +0.000 A 
ATOM      3  N   UNL     1       2.228   3.882  20.394  0.00  0.00    +0.000 N 
ATOM      4  N   UNL     1       1.548   5.039  20.344  0.00  0.00    +0.000 NA
ATOM      5  C   UNL     1       2.409   5.915  19.788  0.00  0.00    +0.000 A 
ATOM      6  H   UNL     1       1.749   3.062  20.753  0.00  0.00    +0.000 HD
ENDROOT
BRANCH   5   7
ATOM      7  C   UNL     1       2.021   7.304  19.516  0.00  0.00    +0.000 A 
ATOM      8  C   UNL     1       2.047   7.780  18.195  0.00  0.00    +0.000 A 
ATOM      9  C   UNL     1       1.654   9.088  17.895  0.00  0.00    +0.000 A 
ATOM     10  C   UNL     1       1.220   9.950  18.903  0.00  0.00    +0.000 A 
ATOM     11  C   UNL     1       1.203   9.497  20.221  0.00  0.00    +0.000 A 
ATOM     12  C   UNL     1       1.612   8.193  20.523  0.00  0.00    +0.000 A 
BRANCH  10  13
ATOM     13  O   UNL     1       0.849  11.199  18.485  0.00  0.00    +0.000 OA
ATOM     14  C   UNL     1      -0.540  11.501  18.529  0.00  0.00    +0.000 C 
ENDBRANCH  10  13
BRANCH  12  15
ATOM     15  O   UNL     1       1.645   7.822  21.841  0.00  0.00    +0.000 OA
ATOM     16  H   UNL     1       1.071   7.051  21.974  0.00  0.00    +0.000 HD
ENDBRANCH  12  15
ENDBRANCH   5   7
BRANCH   1  17
ATOM     17  O   UNL     1       4.787   5.873  19.100  0.00  0.00    +0.000 OA
BRANCH  17  21
ATOM     18  C   UNL     1       6.473   5.026  15.394  0.00  0.00    +0.000 A 
ATOM     19  C   UNL     1       5.263   5.723  15.500  0.00  0.00    +0.000 A 
ATOM     20  C   UNL     1       4.715   5.976  16.758  0.00  0.00    +0.000 A 
ATOM     21  C   UNL     1       5.367   5.529  17.909  0.00  0.00    +0.000 A 
ATOM     22  C   UNL     1       6.586   4.860  17.810  0.00  0.00    +0.000 A 
ATOM     23  C   UNL     1       7.132   4.595  16.555  0.00  0.00    +0.000 A 
BRANCH  18  24
ATOM     24  C   UNL     1       6.984   4.715  14.034  0.00  0.00    +0.000 C 
ATOM     25  O   UNL     1       7.721   5.452  13.401  0.00  0.00    +0.000 OA
BRANCH  24  26
ATOM     26  O   UNL     1       6.415   3.569  13.587  0.00  0.00    +0.000 OA
BRANCH  26  28
ATOM     27  C   UNL     1       5.928   2.223  11.678  0.00  0.00    +0.000 C 
ATOM     28  C   UNL     1       5.883   3.624  12.259  0.00  0.00    +0.000 C 
ENDBRANCH  26  28
ENDBRANCH  24  26
ENDBRANCH  18  24
ENDBRANCH  17  21
ENDBRANCH   1  17
TORSDOF 8
ENDMDL
MODEL 3
REMARK VINA RESULT:      -7.7      1.739      7.336
REMARK  Name = 
REMARK  10 active torsions:
REMARK  status: ('A' for Active; 'I' for Inactive)
REMARK    1  A    between atoms: C_1  and  C_2
REMARK    2  A    between atoms: C_2  and  O_3
REMARK    3  A    between atoms: O_3  and  C_4
REMARK    4  A    between atoms: C_4  and  C_6
REMARK    5  A    between atoms: C_9  and  O_10
REMARK    6  A    between atoms: O_10  and  C_11
REMARK    7  A    between atoms: C_15  and  C_16
REMARK    8  A    between atoms: C_19  and  O_20
REMARK    9  A    between atoms: O_20  and  C_21
REMARK   10  A    between atoms: C_23  and  O_24
REMARK                            x       y       z     vdW  Elec       q    Type
REMARK                         _______ _______ _______ _____ _____    ______ ____
ROOT
ATOM      1  C   UNL     1       2.907   4.936  19.817  0.00  0.00    +0.000 A 
ATOM      2  C   UNL     1       1.961   4.237  20.531  0.00  0.00    +0.000 A 
ATOM      3  N   UNL     1       2.001   2.974  20.031  0.00  0.00    +0.000 N 
ATOM      4  N   UNL     1       2.914   2.795  19.063  0.00  0.00    +0.000 NA
ATOM      5  C   UNL     1       3.537   3.986  18.959  0.00  0.00    +0.000 A 
ATOM      6  H   UNL     1       1.431   2.179  20.303  0.00  0.00    +0.000 HD
ENDROOT
BRANCH   5   7
ATOM      7  C   UNL     1       4.650   4.191  18.025  0.00  0.00    +0.000 A 
ATOM      8  C   UNL     1       4.466   3.910  16.662  0.00  0.00    +0.000 A 
ATOM      9  C   UNL     1       5.494   4.123  15.738  0.00  0.00    +0.000 A 
ATOM     10  C   UNL     1       6.728   4.626  16.152  0.00  0.00    +0.000 A 
ATOM     11  C   UNL     1       6.933   4.895  17.504  0.00  0.00    +0.000 A 
ATOM     12  C   UNL     1       5.908   4.667  18.430  0.00  0.00    +0.000 A 
BRANCH  10  13
ATOM     13  O   UNL     1       7.650   4.804  15.156  0.00  0.00    +0.000 OA
ATOM     14  C   UNL     1       7.153   4.834  13.823  0.00  0.00    +0.000 C 
ENDBRANCH  10  13
BRANCH  12  15
ATOM     15  O   UNL     1       6.184   4.879  19.754  0.00  0.00    +0.000 OA
ATOM     16  H   UNL     1       5.529   4.416  20.299  0.00  0.00    +0.000 HD
ENDBRANCH  12  15
ENDBRANCH   5   7
BRANCH   1  17
ATOM     17  O   UNL     1       3.238   6.238  19.945  0.00  0.00    +0.000 OA
BRANCH  17  21
ATOM     18  C   UNL     1       0.879   9.492  18.878  0.00  0.00    +0.000 A 
ATOM     19  C   UNL     1       0.924   9.029  20.198  0.00  0.00    +0.000 A 
ATOM     20  C   UNL     1       1.712   7.923  20.520  0.00  0.00    +0.000 A 
ATOM     21  C   UNL     1       2.449   7.275  19.527  0.00  0.00    +0.000 A 
ATOM     22  C   UNL     1       2.430   7.750  18.217  0.00  0.00    +0.000 A 
ATOM     23  C   UNL     1       1.636   8.848  17.888  0.00  0.00    +0.000 A 
BRANCH  18  24
ATOM     24  C   UNL     1      -0.028  10.626  18.564  0.00  0.00    +0.000 C 
ATOM     25  O   UNL     1       0.025  11.711  19.119  0.00  0.00    +0.000 OA
BRANCH  24  26
ATOM     26  O   UNL     1      -0.968  10.222  17.675  0.00  0.00    +0.000 OA
BRANCH  26  28
ATOM     27  C   UNL     1      -3.304   9.757  17.538  0.00  0.00    +0.000 C 
ATOM     28  C   UNL     1      -2.260  10.819  17.832  0.00  0.00    +0.000 C 
ENDBRANCH  26  28
ENDBRANCH  24  26
ENDBRANCH  18  24
ENDBRANCH  17  21
ENDBRANCH   1  17
TORSDOF 8
ENDMDL
MODEL 4
REMARK VINA RESULT:      -7.5      1.899      7.466
REMARK  Name = 
REMARK  10 active torsions:
REMARK  status: ('A' for Active; 'I' for Inactive)
REMARK    1  A    between atoms: C_1  and  C_2
REMARK    2  A    between atoms: C_2  and  O_3
REMARK    3  A    between atoms: O_3  and  C_4
REMARK    4  A    between atoms: C_4  and  C_6
REMARK    5  A    between atoms: C_9  and  O_10
REMARK    6  A    between atoms: O_10  and  C_11
REMARK    7  A    between atoms: C_15  and  C_16
REMARK    8  A    between atoms: C_19  and  O_20
REMARK    9  A    between atoms: O_20  and  C_21
REMARK   10  A    between atoms: C_23  and  O_24
REMARK                            x       y       z     vdW  Elec       q    Type
REMARK                         _______ _______ _______ _____ _____    ______ ____
ROOT
ATOM      1  C   UNL     1       2.352   5.438  19.919  0.00  0.00    +0.000 A 
ATOM      2  C   UNL     1       1.346   4.732  20.539  0.00  0.00    +0.000 A 
ATOM      3  N   UNL     1       1.339   3.517  19.929  0.00  0.00    +0.000 N 
ATOM      4  N   UNL     1       2.276   3.374  18.978  0.00  0.00    +0.000 NA
ATOM      5  C   UNL     1       2.962   4.534  19.000  0.00  0.00    +0.000 A 
ATOM      6  H   UNL     1       0.719   2.734  20.110  0.00  0.00    +0.000 HD
ENDROOT
BRANCH   5   7
ATOM      7  C   UNL     1       4.118   4.758  18.123  0.00  0.00    +0.000 A 
ATOM      8  C   UNL     1       3.996   5.638  17.036  0.00  0.00    +0.000 A 
ATOM      9  C   UNL     1       5.086   5.901  16.198  0.00  0.00    +0.000 A 
ATOM     10  C   UNL     1       6.322   5.296  16.429  0.00  0.00    +0.000 A 
ATOM     11  C   UNL     1       6.454   4.408  17.495  0.00  0.00    +0.000 A 
ATOM     12  C   UNL     1       5.360   4.134  18.323  0.00  0.00    +0.000 A 
BRANCH  10  13
ATOM     13  O   UNL     1       7.313   5.640  15.551  0.00  0.00    +0.000 OA
ATOM     14  C   UNL     1       7.269   5.029  14.266  0.00  0.00    +0.000 C 
ENDBRANCH  10  13
BRANCH  12  15
ATOM     15  O   UNL     1       5.524   3.200  19.312  0.00  0.00    +0.000 OA
ATOM     16  H   UNL     1       6.403   3.301  19.708  0.00  0.00    +0.000 HD
ENDBRANCH  12  15
ENDBRANCH   5   7
BRANCH   1  17
ATOM     17  O   UNL     1       2.745   6.703  20.173  0.00  0.00    +0.000 OA
BRANCH  17  21
ATOM     18  C   UNL     1       0.421   9.984  19.111  0.00  0.00    +0.000 A 
ATOM     19  C   UNL     1       1.240   9.341  18.177  0.00  0.00    +0.000 A 
ATOM     20  C   UNL     1       2.022   8.253  18.569  0.00  0.00    +0.000 A 
ATOM     21  C   UNL     1       1.993   7.812  19.893  0.00  0.00    +0.000 A 
ATOM     22  C   UNL     1       1.157   8.431  20.821  0.00  0.00    +0.000 A 
ATOM     23  C   UNL     1       0.383   9.525  20.436  0.00  0.00    +0.000 A 
BRANCH  18  24
ATOM     24  C   UNL     1      -0.339  11.183  18.670  0.00  0.00    +0.000 C 
ATOM     25  O   UNL     1       0.162  12.284  18.514  0.00  0.00    +0.000 OA
BRANCH  24  26
ATOM     26  O   UNL     1      -1.657  10.880  18.592  0.00  0.00    +0.000 OA
BRANCH  26  28
ATOM     27  C   UNL     1      -3.709  10.637  17.398  0.00  0.00    +0.000 C 
ATOM     28  C   UNL     1      -2.237  10.992  17.287  0.00  0.00    +0.000 C 
ENDBRANCH  26  28
ENDBRANCH  24  26
ENDBRANCH  18  24
ENDBRANCH  17  21
ENDBRANCH   1  17
TORSDOF 8
ENDMDL
MODEL 5
REMARK VINA RESULT:      -7.5      3.517      4.663
REMARK  Name = 
REMARK  10 active torsions:
REMARK  status: ('A' for Active; 'I' for Inactive)
REMARK    1  A    between atoms: C_1  and  C_2
REMARK    2  A    between atoms: C_2  and  O_3
REMARK    3  A    between atoms: O_3  and  C_4
REMARK    4  A    between atoms: C_4  and  C_6
REMARK    5  A    between atoms: C_9  and  O_10
REMARK    6  A    between atoms: O_10  and  C_11
REMARK    7  A    between atoms: C_15  and  C_16
REMARK    8  A    between atoms: C_19  and  O_20
REMARK    9  A    between atoms: O_20  and  C_21
REMARK   10  A    between atoms: C_23  and  O_24
REMARK                            x       y       z     vdW  Elec       q    Type
REMARK                         _______ _______ _______ _____ _____    ______ ____
ROOT
ATOM      1  C   UNL     1       6.762   6.106  17.829  0.00  0.00    +0.000 A 
ATOM      2  C   UNL     1       8.003   6.335  18.379  0.00  0.00    +0.000 A 
ATOM      3  N   UNL     1       7.948   5.782  19.619  0.00  0.00    +0.000 N 
ATOM      4  N   UNL     1       6.775   5.194  19.907  0.00  0.00    +0.000 NA
ATOM      5  C   UNL     1       6.044   5.325  18.782  0.00  0.00    +0.000 A 
ATOM      6  H   UNL     1       8.675   5.768  20.327  0.00  0.00    +0.000 HD
ENDROOT
BRANCH   5   7
ATOM      7  C   UNL     1       4.693   4.762  18.676  0.00  0.00    +0.000 A 
ATOM      8  C   UNL     1       3.636   5.584  18.253  0.00  0.00    +0.000 A 
ATOM      9  C   UNL     1       2.342   5.073  18.109  0.00  0.00    +0.000 A 
ATOM     10  C   UNL     1       2.073   3.731  18.379  0.00  0.00    +0.000 A 
ATOM     11  C   UNL     1       3.108   2.906  18.815  0.00  0.00    +0.000 A 
ATOM     12  C   UNL     1       4.400   3.421  18.973  0.00  0.00    +0.000 A 
BRANCH  10  13
ATOM     13  O   UNL     1       0.773   3.346  18.191  0.00  0.00    +0.000 OA
ATOM     14  C   UNL     1       0.344   2.183  18.888  0.00  0.00    +0.000 C 
ENDBRANCH  10  13
BRANCH  12  15
ATOM     15  O   UNL     1       5.364   2.587  19.472  0.00  0.00    +0.000 OA
ATOM     16  H   UNL     1       5.384   2.658  20.439  0.00  0.00    +0.000 HD
ENDBRANCH  12  15
ENDBRANCH   5   7
BRANCH   1  17
ATOM     17  O   UNL     1       6.325   6.472  16.606  0.00  0.00    +0.000 OA
BRANCH  17  21
ATOM     18  C   UNL     1       6.297   3.872  13.360  0.00  0.00    +0.000 A 
ATOM     19  C   UNL     1       7.331   4.797  13.541  0.00  0.00    +0.000 A 
ATOM     20  C   UNL     1       7.302   5.668  14.632  0.00  0.00    +0.000 A 
ATOM     21  C   UNL     1       6.240   5.622  15.536  0.00  0.00    +0.000 A 
ATOM     22  C   UNL     1       5.222   4.683  15.376  0.00  0.00    +0.000 A 
ATOM     23  C   UNL     1       5.241   3.819  14.282  0.00  0.00    +0.000 A 
BRANCH  18  24
ATOM     24  C   UNL     1       6.329   3.014  12.147  0.00  0.00    +0.000 C 
ATOM     25  O   UNL     1       7.346   2.756  11.526  0.00  0.00    +0.000 OA
BRANCH  24  26
ATOM     26  O   UNL     1       5.064   2.681  11.794  0.00  0.00    +0.000 OA
BRANCH  26  28
ATOM     27  C   UNL     1       3.189   3.073  10.371  0.00  0.00    +0.000 C 
ATOM     28  C   UNL     1       4.305   3.722  11.169  0.00  0.00    +0.000 C 
ENDBRANCH  26  28
ENDBRANCH  24  26
ENDBRANCH  18  24
ENDBRANCH  17  21
ENDBRANCH   1  17
TORSDOF 8
ENDMDL
MODEL 6
REMARK VINA RESULT:      -7.5      1.510      2.022
REMARK  Name = 
REMARK  10 active torsions:
REMARK  status: ('A' for Active; 'I' for Inactive)
REMARK    1  A    between atoms: C_1  and  C_2
REMARK    2  A    between atoms: C_2  and  O_3
REMARK    3  A    between atoms: O_3  and  C_4
REMARK    4  A    between atoms: C_4  and  C_6
REMARK    5  A    between atoms: C_9  and  O_10
REMARK    6  A    between atoms: O_10  and  C_11
REMARK    7  A    between atoms: C_15  and  C_16
REMARK    8  A    between atoms: C_19  and  O_20
REMARK    9  A    between atoms: O_20  and  C_21
REMARK   10  A    between atoms: C_23  and  O_24
REMARK                            x       y       z     vdW  Elec       q    Type
REMARK                         _______ _______ _______ _____ _____    ______ ____
ROOT
ATOM      1  C   UNL     1       3.799   3.170  18.824  0.00  0.00    +0.000 A 
ATOM      2  C   UNL     1       3.447   1.845  18.709  0.00  0.00    +0.000 A 
ATOM      3  N   UNL     1       2.095   1.824  18.856  0.00  0.00    +0.000 N 
ATOM      4  N   UNL     1       1.544   3.035  19.037  0.00  0.00    +0.000 NA
ATOM      5  C   UNL     1       2.578   3.895  18.954  0.00  0.00    +0.000 A 
ATOM      6  H   UNL     1       1.481   1.016  18.847  0.00  0.00    +0.000 HD
ENDROOT
BRANCH   5   7
ATOM      7  C   UNL     1       2.379   5.346  19.054  0.00  0.00    +0.000 A 
ATOM      8  C   UNL     1       2.451   6.133  17.894  0.00  0.00    +0.000 A 
ATOM      9  C   UNL     1       2.235   7.514  17.947  0.00  0.00    +0.000 A 
ATOM     10  C   UNL     1       1.936   8.141  19.158  0.00  0.00    +0.000 A 
ATOM     11  C   UNL     1       1.877   7.376  20.321  0.00  0.00    +0.000 A 
ATOM     12  C   UNL     1       2.109   5.996  20.269  0.00  0.00    +0.000 A 
BRANCH  10  13
ATOM     13  O   UNL     1       1.734   9.492  19.082  0.00  0.00    +0.000 OA
ATOM     14  C   UNL     1       0.706  10.031  19.906  0.00  0.00    +0.000 C 
ENDBRANCH  10  13
BRANCH  12  15
ATOM     15  O   UNL     1       2.109   5.303  21.450  0.00  0.00    +0.000 OA
ATOM     16  H   UNL     1       2.248   5.920  22.187  0.00  0.00    +0.000 HD
ENDBRANCH  12  15
ENDBRANCH   5   7
BRANCH   1  17
ATOM     17  O   UNL     1       5.038   3.700  18.753  0.00  0.00    +0.000 OA
BRANCH  17  21
ATOM     18  C   UNL     1       6.758   4.742  15.113  0.00  0.00    +0.000 A 
ATOM     19  C   UNL     1       5.438   4.284  15.188  0.00  0.00    +0.000 A 
ATOM     20  C   UNL     1       4.896   3.925  16.423  0.00  0.00    +0.000 A 
ATOM     21  C   UNL     1       5.671   4.017  17.581  0.00  0.00    +0.000 A 
ATOM     22  C   UNL     1       6.976   4.500  17.515  0.00  0.00    +0.000 A 
ATOM     23  C   UNL     1       7.526   4.848  16.282  0.00  0.00    +0.000 A 
BRANCH  18  24
ATOM     24  C   UNL     1       7.320   5.044  13.770  0.00  0.00    +0.000 C 
ATOM     25  O   UNL     1       8.343   5.684  13.591  0.00  0.00    +0.000 OA
BRANCH  24  26
ATOM     26  O   UNL     1       6.466   4.606  12.813  0.00  0.00    +0.000 OA
BRANCH  26  28
ATOM     27  C   UNL     1       6.133   2.453  11.841  0.00  0.00    +0.000 C 
ATOM     28  C   UNL     1       7.022   3.683  11.870  0.00  0.00    +0.000 C 
ENDBRANCH  26  28
ENDBRANCH  24  26
ENDBRANCH  18  24
ENDBRANCH  17  21
ENDBRANCH   1  17
TORSDOF 8
ENDMDL
MODEL 7
REMARK VINA RESULT:      -7.5      1.901      7.147
REMARK  Name = 
REMARK  10 active torsions:
REMARK  status: ('A' for Active; 'I' for Inactive)
REMARK    1  A    between atoms: C_1  and  C_2
REMARK    2  A    between atoms: C_2  and  O_3
REMARK    3  A    between atoms: O_3  and  C_4
REMARK    4  A    between atoms: C_4  and  C_6
REMARK    5  A    between atoms: C_9  and  O_10
REMARK    6  A    between atoms: O_10  and  C_11
REMARK    7  A    between atoms: C_15  and  C_16
REMARK    8  A    between atoms: C_19  and  O_20
REMARK    9  A    between atoms: O_20  and  C_21
REMARK   10  A    between atoms: C_23  and  O_24
REMARK                            x       y       z     vdW  Elec       q    Type
REMARK                         _______ _______ _______ _____ _____    ______ ____
ROOT
ATOM      1  C   UNL     1       2.730   3.875  19.369  0.00  0.00    +0.000 A 
ATOM      2  C   UNL     1       1.704   3.030  19.726  0.00  0.00    +0.000 A 
ATOM      3  N   UNL     1       1.697   2.060  18.773  0.00  0.00    +0.000 N 
ATOM      4  N   UNL     1       2.652   2.199  17.839  0.00  0.00    +0.000 NA
ATOM      5  C   UNL     1       3.349   3.286  18.227  0.00  0.00    +0.000 A 
ATOM      6  H   UNL     1       1.065   1.269  18.696  0.00  0.00    +0.000 HD
ENDROOT
BRANCH   5   7
ATOM      7  C   UNL     1       4.525   3.748  17.479  0.00  0.00    +0.000 A 
ATOM      8  C   UNL     1       4.476   3.792  16.077  0.00  0.00    +0.000 A 
ATOM      9  C   UNL     1       5.566   4.258  15.334  0.00  0.00    +0.000 A 
ATOM     10  C   UNL     1       6.727   4.696  15.972  0.00  0.00    +0.000 A 
ATOM     11  C   UNL     1       6.797   4.643  17.363  0.00  0.00    +0.000 A 
ATOM     12  C   UNL     1       5.712   4.163  18.105  0.00  0.00    +0.000 A 
BRANCH  10  13
ATOM     13  O   UNL     1       7.719   5.139  15.141  0.00  0.00    +0.000 OA
ATOM     14  C   UNL     1       7.482   5.020  13.742  0.00  0.00    +0.000 C 
ENDBRANCH  10  13
BRANCH  12  15
ATOM     15  O   UNL     1       5.859   4.065  19.463  0.00  0.00    +0.000 OA
ATOM     16  H   UNL     1       6.702   3.630  19.666  0.00  0.00    +0.000 HD
ENDBRANCH  12  15
ENDBRANCH   5   7
BRANCH   1  17
ATOM     17  O   UNL     1       3.132   4.995  20.004  0.00  0.00    +0.000 OA
BRANCH  17  21
ATOM     18  C   UNL     1       1.816   8.752  18.798  0.00  0.00    +0.000 A 
ATOM     19  C   UNL     1       2.578   7.941  17.949  0.00  0.00    +0.000 A 
ATOM     20  C   UNL     1       3.019   6.693  18.390  0.00  0.00    +0.000 A 
ATOM     21  C   UNL     1       2.708   6.256  19.679  0.00  0.00    +0.000 A 
ATOM     22  C   UNL     1       1.925   7.046  20.518  0.00  0.00    +0.000 A 
ATOM     23  C   UNL     1       1.492   8.299  20.086  0.00  0.00    +0.000 A 
BRANCH  18  24
ATOM     24  C   UNL     1       1.429  10.103  18.316  0.00  0.00    +0.000 C 
ATOM     25  O   UNL     1       2.224  10.929  17.902  0.00  0.00    +0.000 OA
BRANCH  24  26
ATOM     26  O   UNL     1       0.102  10.294  18.521  0.00  0.00    +0.000 OA
BRANCH  26  28
ATOM     27  C   UNL     1      -1.033  11.171  20.427  0.00  0.00    +0.000 C 
ATOM     28  C   UNL     1      -0.247  11.519  19.176  0.00  0.00    +0.000 C 
ENDBRANCH  26  28
ENDBRANCH  24  26
ENDBRANCH  18  24
ENDBRANCH  17  21
ENDBRANCH   1  17
TORSDOF 8
ENDMDL
MODEL 8
REMARK VINA RESULT:      -7.5      1.943      7.569
REMARK  Name = 
REMARK  10 active torsions:
REMARK  status: ('A' for Active; 'I' for Inactive)
REMARK    1  A    between atoms: C_1  and  C_2
REMARK    2  A    between atoms: C_2  and  O_3
REMARK    3  A    between atoms: O_3  and  C_4
REMARK    4  A    between atoms: C_4  and  C_6
REMARK    5  A    between atoms: C_9  and  O_10
REMARK    6  A    between atoms: O_10  and  C_11
REMARK    7  A    between atoms: C_15  and  C_16
REMARK    8  A    between atoms: C_19  and  O_20
REMARK    9  A    between atoms: O_20  and  C_21
REMARK   10  A    between atoms: C_23  and  O_24
REMARK                            x       y       z     vdW  Elec       q    Type
REMARK                         _______ _______ _______ _____ _____    ______ ____
ROOT
ATOM      1  C   UNL     1       2.184   5.278  19.781  0.00  0.00    +0.000 A 
ATOM      2  C   UNL     1       1.232   4.559  20.467  0.00  0.00    +0.000 A 
ATOM      3  N   UNL     1       1.113   3.389  19.785  0.00  0.00    +0.000 N 
ATOM      4  N   UNL     1       1.929   3.286  18.723  0.00  0.00    +0.000 NA
ATOM      5  C   UNL     1       2.653   4.423  18.740  0.00  0.00    +0.000 A 
ATOM      6  H   UNL     1       0.492   2.612  19.987  0.00  0.00    +0.000 HD
ENDROOT
BRANCH   5   7
ATOM      7  C   UNL     1       3.707   4.676  17.750  0.00  0.00    +0.000 A 
ATOM      8  C   UNL     1       3.925   5.986  17.296  0.00  0.00    +0.000 A 
ATOM      9  C   UNL     1       4.941   6.269  16.377  0.00  0.00    +0.000 A 
ATOM     10  C   UNL     1       5.767   5.252  15.895  0.00  0.00    +0.000 A 
ATOM     11  C   UNL     1       5.553   3.944  16.324  0.00  0.00    +0.000 A 
ATOM     12  C   UNL     1       4.526   3.660  17.231  0.00  0.00    +0.000 A 
BRANCH  10  13
ATOM     13  O   UNL     1       6.732   5.653  15.011  0.00  0.00    +0.000 OA
ATOM     14  C   UNL     1       7.034   4.759  13.946  0.00  0.00    +0.000 C 
ENDBRANCH  10  13
BRANCH  12  15
ATOM     15  O   UNL     1       4.312   2.349  17.565  0.00  0.00    +0.000 OA
ATOM     16  H   UNL     1       4.795   2.140  18.380  0.00  0.00    +0.000 HD
ENDBRANCH  12  15
ENDBRANCH   5   7
BRANCH   1  17
ATOM     17  O   UNL     1       2.647   6.513  20.068  0.00  0.00    +0.000 OA
BRANCH  17  21
ATOM     18  C   UNL     1       0.526  10.072  19.706  0.00  0.00    +0.000 A 
ATOM     19  C   UNL     1       0.565   9.368  20.916  0.00  0.00    +0.000 A 
ATOM     20  C   UNL     1       1.272   8.167  20.999  0.00  0.00    +0.000 A 
ATOM     21  C   UNL     1       1.932   7.664  19.877  0.00  0.00    +0.000 A 
ATOM     22  C   UNL     1       1.920   8.375  18.679  0.00  0.00    +0.000 A 
ATOM     23  C   UNL     1       1.206   9.569  18.587  0.00  0.00    +0.000 A 
BRANCH  18  24
ATOM     24  C   UNL     1      -0.297  11.307  19.641  0.00  0.00    +0.000 C 
ATOM     25  O   UNL     1      -0.666  11.929  20.622  0.00  0.00    +0.000 OA
BRANCH  24  26
ATOM     26  O   UNL     1      -0.656  11.545  18.355  0.00  0.00    +0.000 OA
BRANCH  26  28
ATOM     27  C   UNL     1      -2.313  10.125  17.390  0.00  0.00    +0.000 C 
ATOM     28  C   UNL     1      -2.058  11.452  18.081  0.00  0.00    +0.000 C 
ENDBRANCH  26  28
ENDBRANCH  24  26
ENDBRANCH  18  24
ENDBRANCH  17  21
ENDBRANCH   1  17
TORSDOF 8
ENDMDL
MODEL 9
REMARK VINA RESULT:      -7.4      1.309      1.654
REMARK  Name = 
REMARK  10 active torsions:
REMARK  status: ('A' for Active; 'I' for Inactive)
REMARK    1  A    between atoms: C_1  and  C_2
REMARK    2  A    between atoms: C_2  and  O_3
REMARK    3  A    between atoms: O_3  and  C_4
REMARK    4  A    between atoms: C_4  and  C_6
REMARK    5  A    between atoms: C_9  and  O_10
REMARK    6  A    between atoms: O_10  and  C_11
REMARK    7  A    between atoms: C_15  and  C_16
REMARK    8  A    between atoms: C_19  and  O_20
REMARK    9  A    between atoms: O_20  and  C_21
REMARK   10  A    between atoms: C_23  and  O_24
REMARK                            x       y       z     vdW  Elec       q    Type
REMARK                         _______ _______ _______ _____ _____    ______ ____
ROOT
ATOM      1  C   UNL     1       2.992   3.933  20.323  0.00  0.00    +0.000 A 
ATOM      2  C   UNL     1       2.383   2.763  20.715  0.00  0.00    +0.000 A 
ATOM      3  N   UNL     1       1.049   3.021  20.658  0.00  0.00    +0.000 N 
ATOM      4  N   UNL     1       0.747   4.261  20.239  0.00  0.00    +0.000 NA
ATOM      5  C   UNL     1       1.940   4.825  19.960  0.00  0.00    +0.000 A 
ATOM      6  H   UNL     1       0.284   2.397  20.893  0.00  0.00    +0.000 HD
ENDROOT
BRANCH   5   7
ATOM      7  C   UNL     1       2.036   6.188  19.422  0.00  0.00    +0.000 A 
ATOM      8  C   UNL     1       2.422   6.374  18.085  0.00  0.00    +0.000 A 
ATOM      9  C   UNL     1       2.494   7.656  17.530  0.00  0.00    +0.000 A 
ATOM     10  C   UNL     1       2.177   8.780  18.293  0.00  0.00    +0.000 A 
ATOM     11  C   UNL     1       1.808   8.613  19.626  0.00  0.00    +0.000 A 
ATOM     12  C   UNL     1       1.751   7.331  20.186  0.00  0.00    +0.000 A 
BRANCH  10  13
ATOM     13  O   UNL     1       2.272   9.977  17.637  0.00  0.00    +0.000 OA
ATOM     14  C   UNL     1       1.847  11.133  18.351  0.00  0.00    +0.000 C 
ENDBRANCH  10  13
BRANCH  12  15
ATOM     15  O   UNL     1       1.452   7.228  21.518  0.00  0.00    +0.000 OA
ATOM     16  H   UNL     1       0.510   7.023  21.623  0.00  0.00    +0.000 HD
ENDBRANCH  12  15
ENDBRANCH   5   7
BRANCH   1  17
ATOM     17  O   UNL     1       4.315   4.178  20.221  0.00  0.00    +0.000 OA
BRANCH  17  21
ATOM     18  C   UNL     1       6.138   4.548  16.501  0.00  0.00    +0.000 A 
ATOM     19  C   UNL     1       5.047   3.692  16.694  0.00  0.00    +0.000 A 
ATOM     20  C   UNL     1       4.469   3.577  17.959  0.00  0.00    +0.000 A 
ATOM     21  C   UNL     1       4.982   4.308  19.032  0.00  0.00    +0.000 A 
ATOM     22  C   UNL     1       6.049   5.183  18.839  0.00  0.00    +0.000 A 
ATOM     23  C   UNL     1       6.637   5.293  17.580  0.00  0.00    +0.000 A 
BRANCH  18  24
ATOM     24  C   UNL     1       6.770   4.586  15.157  0.00  0.00    +0.000 C 
ATOM     25  O   UNL     1       7.510   5.479  14.780  0.00  0.00    +0.000 OA
BRANCH  24  26
ATOM     26  O   UNL     1       6.301   3.559  14.407  0.00  0.00    +0.000 OA
BRANCH  26  28
ATOM     27  C   UNL     1       6.510   3.230  12.053  0.00  0.00    +0.000 C 
ATOM     28  C   UNL     1       5.726   3.929  13.149  0.00  0.00    +0.000 C 
ENDBRANCH  26  28
ENDBRANCH  24  26
ENDBRANCH  18  24
ENDBRANCH  17  21
ENDBRANCH   1  17
TORSDOF 8
ENDMDL
