MODEL 1
REMARK VINA RESULT:      -7.2      0.000      0.000
REMARK  Name = 
REMARK  12 active torsions:
REMARK  status: ('A' for Active; 'I' for Inactive)
REMARK    1  A    between atoms: C_1  and  O_2
REMARK    2  A    between atoms: O_2  and  C_3
REMARK    3  A    between atoms: C_6  and  C_7
REMARK    4  A    between atoms: C_7  and  C_8
REMARK    5  A    between atoms: C_7  and  P_14
REMARK    6  A    between atoms: C_8  and  C_9
REMARK    7  A    between atoms: C_9  and  C_10
REMARK    8  A    between atoms: N_12  and  O_13
REMARK    9  A    between atoms: P_14  and  O_16
REMARK   10  A    between atoms: P_14  and  O_17
REMARK   11  A    between atoms: C_19  and  O_20
REMARK   12  A    between atoms: O_20  and  C_21
REMARK                            x       y       z     vdW  Elec       q    Type
REMARK                         _______ _______ _______ _____ _____    ______ ____
ROOT
ATOM      1  C   UNL     1       5.718   4.285  16.581  0.00  0.00    +0.000 C 
ENDROOT
BRANCH   1   5
ATOM      2  C   UNL     1       2.033   3.774  18.881  0.00  0.00    +0.000 A 
ATOM      3  C   UNL     1       2.468   2.786  17.979  0.00  0.00    +0.000 A 
ATOM      4  C   UNL     1       3.647   2.941  17.239  0.00  0.00    +0.000 A 
ATOM      5  C   UNL     1       4.389   4.118  17.337  0.00  0.00    +0.000 A 
ATOM      6  C   UNL     1       3.906   5.130  18.182  0.00  0.00    +0.000 A 
ATOM      7  C   UNL     1       2.745   4.977  18.958  0.00  0.00    +0.000 A 
BRANCH   2   9
ATOM      8  C   UNL     1       1.135   3.055  20.956  0.00  0.00    +0.000 C 
ATOM      9  O   UNL     1       0.918   3.595  19.653  0.00  0.00    +0.000 OA
ENDBRANCH   2   9
BRANCH   7  10
ATOM     10  O   UNL     1       2.501   6.087  19.722  0.00  0.00    +0.000 OA
ATOM     11  C   UNL     1       2.384   7.358  19.100  0.00  0.00    +0.000 C 
ENDBRANCH   7  10
ENDBRANCH   1   5
BRANCH   1  12
ATOM     12  P   UNL     1       6.887   5.252  17.604  0.00  0.00    +0.000 P 
ATOM     13  O   UNL     1       8.086   4.421  17.130  0.00  0.00    +0.000 OA
BRANCH  12  14
ATOM     14  O   UNL     1       6.814   6.560  16.620  0.00  0.00    +0.000 OA
ATOM     15  H   UNL     1       6.983   6.360  15.683  0.00  0.00    +0.000 HD
ENDBRANCH  12  14
BRANCH  12  16
ATOM     16  O   UNL     1       7.992   6.166  18.572  0.00  0.00    +0.000 OA
ATOM     17  H   UNL     1       8.873   5.945  18.200  0.00  0.00    +0.000 HD
ENDBRANCH  12  16
ENDBRANCH   1  12
BRANCH   1  18
ATOM     18  C   UNL     1       5.420   4.852  15.161  0.00  0.00    +0.000 C 
BRANCH  18  19
ATOM     19  C   UNL     1       5.884   3.999  13.977  0.00  0.00    +0.000 C 
BRANCH  19  20
ATOM     20  C   UNL     1       7.052   4.608  13.237  0.00  0.00    +0.000 C 
ATOM     21  O   UNL     1       7.318   4.346  12.070  0.00  0.00    +0.000 OA
ATOM     22  N   UNL     1       7.789   5.494  13.990  0.00  0.00    +0.000 N 
ATOM     23  H   UNL     1       7.939   5.245  14.974  0.00  0.00    +0.000 HD
BRANCH  22  24
ATOM     24  O   UNL     1       8.938   5.995  13.321  0.00  0.00    +0.000 OA
ATOM     25  H   UNL     1       8.546   6.430  12.531  0.00  0.00    +0.000 HD
ENDBRANCH  22  24
ENDBRANCH  19  20
ENDBRANCH  18  19
ENDBRANCH   1  18
TORSDOF 10
ENDMDL
MODEL 2
REMARK VINA RESULT:      -6.8      2.370      3.999
REMARK  Name = 
REMARK  12 active torsions:
REMARK  status: ('A' for Active; 'I' for Inactive)
REMARK    1  A    between atoms: C_1  and  O_2
REMARK    2  A    between atoms: O_2  and  C_3
REMARK    3  A    between atoms: C_6  and  C_7
REMARK    4  A    between atoms: C_7  and  C_8
REMARK    5  A    between atoms: C_7  and  P_14
REMARK    6  A    between atoms: C_8  and  C_9
REMARK    7  A    between atoms: C_9  and  C_10
REMARK    8  A    between atoms: N_12  and  O_13
REMARK    9  A    between atoms: P_14  and  O_16
REMARK   10  A    between atoms: P_14  and  O_17
REMARK   11  A    between atoms: C_19  and  O_20
REMARK   12  A    between atoms: O_20  and  C_21
REMARK                            x       y       z     vdW  Elec       q    Type
REMARK                         _______ _______ _______ _____ _____    ______ ____
ROOT
ATOM      1  C   UNL     1       6.134   5.310  15.890  0.00  0.00    +0.000 C 
ENDROOT
BRANCH   1   5
ATOM      2  C   UNL     1       2.629   4.402  18.342  0.00  0.00    +0.000 A 
ATOM      3  C   UNL     1       3.403   3.374  17.775  0.00  0.00    +0.000 A 
ATOM      4  C   UNL     1       4.528   3.656  16.989  0.00  0.00    +0.000 A 
ATOM      5  C   UNL     1       4.870   4.976  16.699  0.00  0.00    +0.000 A 
ATOM      6  C   UNL     1       4.047   5.994  17.206  0.00  0.00    +0.000 A 
ATOM      7  C   UNL     1       2.935   5.731  18.026  0.00  0.00    +0.000 A 
BRANCH   2   9
ATOM      8  C   UNL     1       1.844   4.131  20.566  0.00  0.00    +0.000 C 
ATOM      9  O   UNL     1       1.570   4.128  19.165  0.00  0.00    +0.000 OA
ENDBRANCH   2   9
BRANCH   7  10
ATOM     10  O   UNL     1       2.315   6.887  18.418  0.00  0.00    +0.000 OA
ATOM     11  C   UNL     1       2.684   8.121  17.822  0.00  0.00    +0.000 C 
ENDBRANCH   7  10
ENDBRANCH   1   5
BRANCH   1  12
ATOM     12  P   UNL     1       6.242   4.201  14.438  0.00  0.00    +0.000 P 
ATOM     13  O   UNL     1       4.865   4.639  13.923  0.00  0.00    +0.000 OA
BRANCH  12  14
ATOM     14  O   UNL     1       7.341   5.148  13.677  0.00  0.00    +0.000 OA
ATOM     15  H   UNL     1       7.982   4.655  13.137  0.00  0.00    +0.000 HD
ENDBRANCH  12  14
BRANCH  12  16
ATOM     16  O   UNL     1       6.344   3.153  13.065  0.00  0.00    +0.000 OA
ATOM     17  H   UNL     1       6.991   3.595  12.475  0.00  0.00    +0.000 HD
ENDBRANCH  12  16
ENDBRANCH   1  12
BRANCH   1  18
ATOM     18  C   UNL     1       7.361   5.303  16.849  0.00  0.00    +0.000 C 
BRANCH  18  19
ATOM     19  C   UNL     1       7.326   6.306  18.006  0.00  0.00    +0.000 C 
BRANCH  19  20
ATOM     20  C   UNL     1       7.257   5.637  19.359  0.00  0.00    +0.000 C 
ATOM     21  O   UNL     1       6.218   5.202  19.840  0.00  0.00    +0.000 OA
ATOM     22  N   UNL     1       8.471   5.553  20.003  0.00  0.00    +0.000 N 
ATOM     23  H   UNL     1       9.094   6.363  19.915  0.00  0.00    +0.000 HD
BRANCH  22  24
ATOM     24  O   UNL     1       8.386   5.006  21.312  0.00  0.00    +0.000 OA
ATOM     25  H   UNL     1       9.332   4.880  21.546  0.00  0.00    +0.000 HD
ENDBRANCH  22  24
ENDBRANCH  19  20
ENDBRANCH  18  19
ENDBRANCH   1  18
TORSDOF 10
ENDMDL
MODEL 3
REMARK VINA RESULT:      -6.7      1.273      1.472
REMARK  Name = 
REMARK  12 active torsions:
REMARK  status: ('A' for Active; 'I' for Inactive)
REMARK    1  A    between atoms: C_1  and  O_2
REMARK    2  A    between atoms: O_2  and  C_3
REMARK    3  A    between atoms: C_6  and  C_7
REMARK    4  A    between atoms: C_7  and  C_8
REMARK    5  A    between atoms: C_7  and  P_14
REMARK    6  A    between atoms: C_8  and  C_9
REMARK    7  A    between atoms: C_9  and  C_10
REMARK    8  A    between atoms: N_12  and  O_13
REMARK    9  A    between atoms: P_14  and  O_16
REMARK   10  A    between atoms: P_14  and  O_17
REMARK   11  A    between atoms: C_19  and  O_20
REMARK   12  A    between atoms: O_20  and  C_21
REMARK                            x       y       z     vdW  Elec       q    Type
REMARK                         _______ _______ _______ _____ _____    ______ ____
ROOT
ATOM      1  C   UNL     1       5.910   4.754  17.356  0.00  0.00    +0.000 C 
ENDROOT
BRANCH   1   5
ATOM      2  C   UNL     1       2.578   4.260  20.145  0.00  0.00    +0.000 A 
ATOM      3  C   UNL     1       3.250   3.145  19.615  0.00  0.00    +0.000 A 
ATOM      4  C   UNL     1       4.319   3.294  18.721  0.00  0.00    +0.000 A 
ATOM      5  C   UNL     1       4.702   4.563  18.288  0.00  0.00    +0.000 A 
ATOM      6  C   UNL     1       3.975   5.666  18.764  0.00  0.00    +0.000 A 
ATOM      7  C   UNL     1       2.923   5.537  19.687  0.00  0.00    +0.000 A 
BRANCH   2   9
ATOM      8  C   UNL     1       1.490   2.847  21.711  0.00  0.00    +0.000 C 
ATOM      9  O   UNL     1       1.577   4.118  21.069  0.00  0.00    +0.000 OA
ENDBRANCH   2   9
BRANCH   7  10
ATOM     10  O   UNL     1       2.395   6.756  20.021  0.00  0.00    +0.000 OA
ATOM     11  C   UNL     1       2.204   7.739  19.016  0.00  0.00    +0.000 C 
ENDBRANCH   7  10
ENDBRANCH   1   5
BRANCH   1  12
ATOM     12  P   UNL     1       7.154   5.815  18.178  0.00  0.00    +0.000 P 
ATOM     13  O   UNL     1       8.094   4.628  18.424  0.00  0.00    +0.000 OA
BRANCH  12  14
ATOM     14  O   UNL     1       7.637   6.501  16.770  0.00  0.00    +0.000 OA
ATOM     15  H   UNL     1       7.201   7.347  16.572  0.00  0.00    +0.000 HD
ENDBRANCH  12  14
BRANCH  12  16
ATOM     16  O   UNL     1       8.331   6.818  18.954  0.00  0.00    +0.000 OA
ATOM     17  H   UNL     1       7.835   7.246  19.684  0.00  0.00    +0.000 HD
ENDBRANCH  12  16
ENDBRANCH   1  12
BRANCH   1  18
ATOM     18  C   UNL     1       5.402   5.244  15.968  0.00  0.00    +0.000 C 
BRANCH  18  19
ATOM     19  C   UNL     1       5.310   4.186  14.865  0.00  0.00    +0.000 C 
BRANCH  19  20
ATOM     20  C   UNL     1       6.412   4.311  13.839  0.00  0.00    +0.000 C 
ATOM     21  O   UNL     1       7.311   5.139  13.918  0.00  0.00    +0.000 OA
ATOM     22  N   UNL     1       6.321   3.403  12.807  0.00  0.00    +0.000 N 
ATOM     23  H   UNL     1       5.378   3.201  12.456  0.00  0.00    +0.000 HD
BRANCH  22  24
ATOM     24  O   UNL     1       7.305   3.583  11.799  0.00  0.00    +0.000 OA
ATOM     25  H   UNL     1       8.005   4.079  12.278  0.00  0.00    +0.000 HD
ENDBRANCH  22  24
ENDBRANCH  19  20
ENDBRANCH  18  19
ENDBRANCH   1  18
TORSDOF 10
ENDMDL
MODEL 4
REMARK VINA RESULT:      -6.7      1.241      1.826
REMARK  Name = 
REMARK  12 active torsions:
REMARK  status: ('A' for Active; 'I' for Inactive)
REMARK    1  A    between atoms: C_1  and  O_2
REMARK    2  A    between atoms: O_2  and  C_3
REMARK    3  A    between atoms: C_6  and  C_7
REMARK    4  A    between atoms: C_7  and  C_8
REMARK    5  A    between atoms: C_7  and  P_14
REMARK    6  A    between atoms: C_8  and  C_9
REMARK    7  A    between atoms: C_9  and  C_10
REMARK    8  A    between atoms: N_12  and  O_13
REMARK    9  A    between atoms: P_14  and  O_16
REMARK   10  A    between atoms: P_14  and  O_17
REMARK   11  A    between atoms: C_19  and  O_20
REMARK   12  A    between atoms: O_20  and  C_21
REMARK                            x       y       z     vdW  Elec       q    Type
REMARK                         _______ _______ _______ _____ _____    ______ ____
ROOT
ATOM      1  C   UNL     1       6.060   4.605  17.029  0.00  0.00    +0.000 C 
ENDROOT
BRANCH   1   5
ATOM      2  C   UNL     1       2.173   3.919  18.913  0.00  0.00    +0.000 A 
ATOM      3  C   UNL     1       2.321   4.863  17.881  0.00  0.00    +0.000 A 
ATOM      4  C   UNL     1       3.563   5.088  17.271  0.00  0.00    +0.000 A 
ATOM      5  C   UNL     1       4.700   4.419  17.723  0.00  0.00    +0.000 A 
ATOM      6  C   UNL     1       4.555   3.535  18.805  0.00  0.00    +0.000 A 
ATOM      7  C   UNL     1       3.312   3.271  19.405  0.00  0.00    +0.000 A 
BRANCH   2   9
ATOM      8  C   UNL     1       0.302   2.462  19.009  0.00  0.00    +0.000 C 
ATOM      9  O   UNL     1       0.949   3.650  19.464  0.00  0.00    +0.000 OA
ENDBRANCH   2   9
BRANCH   7  10
ATOM     10  O   UNL     1       3.426   2.353  20.414  0.00  0.00    +0.000 OA
ATOM     11  C   UNL     1       2.783   2.589  21.657  0.00  0.00    +0.000 C 
ENDBRANCH   7  10
ENDBRANCH   1   5
BRANCH   1  12
ATOM     12  P   UNL     1       7.158   5.608  18.095  0.00  0.00    +0.000 P 
ATOM     13  O   UNL     1       8.169   4.463  18.236  0.00  0.00    +0.000 OA
BRANCH  12  14
ATOM     14  O   UNL     1       7.680   6.533  16.848  0.00  0.00    +0.000 OA
ATOM     15  H   UNL     1       8.422   7.120  17.074  0.00  0.00    +0.000 HD
ENDBRANCH  12  14
BRANCH  12  16
ATOM     16  O   UNL     1       8.197   6.556  19.103  0.00  0.00    +0.000 OA
ATOM     17  H   UNL     1       9.059   6.544  18.634  0.00  0.00    +0.000 HD
ENDBRANCH  12  16
ENDBRANCH   1  12
BRANCH   1  18
ATOM     18  C   UNL     1       5.819   5.149  15.590  0.00  0.00    +0.000 C 
BRANCH  18  19
ATOM     19  C   UNL     1       6.060   4.165  14.441  0.00  0.00    +0.000 C 
BRANCH  19  20
ATOM     20  C   UNL     1       7.097   4.654  13.458  0.00  0.00    +0.000 C 
ATOM     21  O   UNL     1       7.156   4.268  12.297  0.00  0.00    +0.000 OA
ATOM     22  N   UNL     1       7.970   5.581  13.982  0.00  0.00    +0.000 N 
ATOM     23  H   UNL     1       8.279   5.426  14.948  0.00  0.00    +0.000 HD
BRANCH  22  24
ATOM     24  O   UNL     1       8.998   5.970  13.083  0.00  0.00    +0.000 OA
ATOM     25  H   UNL     1       9.691   5.296  13.254  0.00  0.00    +0.000 HD
ENDBRANCH  22  24
ENDBRANCH  19  20
ENDBRANCH  18  19
ENDBRANCH   1  18
TORSDOF 10
ENDMDL
MODEL 5
REMARK VINA RESULT:      -6.7      3.096      6.693
REMARK  Name = 
REMARK  12 active torsions:
REMARK  status: ('A' for Active; 'I' for Inactive)
REMARK    1  A    between atoms: C_1  and  O_2
REMARK    2  A    between atoms: O_2  and  C_3
REMARK    3  A    between atoms: C_6  and  C_7
REMARK    4  A    between atoms: C_7  and  C_8
REMARK    5  A    between atoms: C_7  and  P_14
REMARK    6  A    between atoms: C_8  and  C_9
REMARK    7  A    between atoms: C_9  and  C_10
REMARK    8  A    between atoms: N_12  and  O_13
REMARK    9  A    between atoms: P_14  and  O_16
REMARK   10  A    between atoms: P_14  and  O_17
REMARK   11  A    between atoms: C_19  and  O_20
REMARK   12  A    between atoms: O_20  and  C_21
REMARK                            x       y       z     vdW  Elec       q    Type
REMARK                         _______ _______ _______ _____ _____    ______ ____
ROOT
ATOM      1  C   UNL     1       3.984   3.706  18.371  0.00  0.00    +0.000 C 
ENDROOT
BRANCH   1   5
ATOM      2  C   UNL     1       6.906   5.048  15.407  0.00  0.00    +0.000 A 
ATOM      3  C   UNL     1       5.933   4.086  15.081  0.00  0.00    +0.000 A 
ATOM      4  C   UNL     1       4.992   3.651  16.024  0.00  0.00    +0.000 A 
ATOM      5  C   UNL     1       5.042   4.123  17.336  0.00  0.00    +0.000 A 
ATOM      6  C   UNL     1       6.064   5.025  17.671  0.00  0.00    +0.000 A 
ATOM      7  C   UNL     1       6.994   5.499  16.729  0.00  0.00    +0.000 A 
BRANCH   2   9
ATOM      8  C   UNL     1       7.565   5.087  13.127  0.00  0.00    +0.000 C 
ATOM      9  O   UNL     1       7.782   5.523  14.468  0.00  0.00    +0.000 OA
ENDBRANCH   2   9
BRANCH   7  10
ATOM     10  O   UNL     1       7.867   6.391  17.290  0.00  0.00    +0.000 OA
ATOM     11  C   UNL     1       7.471   7.740  17.482  0.00  0.00    +0.000 C 
ENDBRANCH   7  10
ENDBRANCH   1   5
BRANCH   1  12
ATOM     12  P   UNL     1       4.662   2.387  19.442  0.00  0.00    +0.000 P 
ATOM     13  O   UNL     1       3.686   2.721  20.577  0.00  0.00    +0.000 OA
BRANCH  12  14
ATOM     14  O   UNL     1       3.962   1.189  18.571  0.00  0.00    +0.000 OA
ATOM     15  H   UNL     1       4.482   0.905  17.800  0.00  0.00    +0.000 HD
ENDBRANCH  12  14
BRANCH  12  16
ATOM     16  O   UNL     1       5.303   1.139  20.455  0.00  0.00    +0.000 OA
ATOM     17  H   UNL     1       5.176   1.482  21.366  0.00  0.00    +0.000 HD
ENDBRANCH  12  16
ENDBRANCH   1  12
BRANCH   1  18
ATOM     18  C   UNL     1       2.658   3.369  17.626  0.00  0.00    +0.000 C 
BRANCH  18  19
ATOM     19  C   UNL     1       1.411   4.137  18.075  0.00  0.00    +0.000 C 
BRANCH  19  20
ATOM     20  C   UNL     1       1.200   4.089  19.570  0.00  0.00    +0.000 C 
ATOM     21  O   UNL     1       1.309   5.070  20.295  0.00  0.00    +0.000 OA
ATOM     22  N   UNL     1       0.865   2.841  20.047  0.00  0.00    +0.000 N 
ATOM     23  H   UNL     1       1.344   2.042  19.618  0.00  0.00    +0.000 HD
BRANCH  22  24
ATOM     24  O   UNL     1       0.756   2.781  21.462  0.00  0.00    +0.000 OA
ATOM     25  H   UNL     1       1.653   2.480  21.728  0.00  0.00    +0.000 HD
ENDBRANCH  22  24
ENDBRANCH  19  20
ENDBRANCH  18  19
ENDBRANCH   1  18
TORSDOF 10
ENDMDL
MODEL 6
REMARK VINA RESULT:      -6.6      1.442      1.770
REMARK  Name = 
REMARK  12 active torsions:
REMARK  status: ('A' for Active; 'I' for Inactive)
REMARK    1  A    between atoms: C_1  and  O_2
REMARK    2  A    between atoms: O_2  and  C_3
REMARK    3  A    between atoms: C_6  and  C_7
REMARK    4  A    between atoms: C_7  and  C_8
REMARK    5  A    between atoms: C_7  and  P_14
REMARK    6  A    between atoms: C_8  and  C_9
REMARK    7  A    between atoms: C_9  and  C_10
REMARK    8  A    between atoms: N_12  and  O_13
REMARK    9  A    between atoms: P_14  and  O_16
REMARK   10  A    between atoms: P_14  and  O_17
REMARK   11  A    between atoms: C_19  and  O_20
REMARK   12  A    between atoms: O_20  and  C_21
REMARK                            x       y       z     vdW  Elec       q    Type
REMARK                         _______ _______ _______ _____ _____    ______ ____
ROOT
ATOM      1  C   UNL     1       6.034   4.368  16.313  0.00  0.00    +0.000 C 
ENDROOT
BRANCH   1   5
ATOM      2  C   UNL     1       2.133   3.763  18.197  0.00  0.00    +0.000 A 
ATOM      3  C   UNL     1       2.925   2.670  17.803  0.00  0.00    +0.000 A 
ATOM      4  C   UNL     1       4.176   2.854  17.200  0.00  0.00    +0.000 A 
ATOM      5  C   UNL     1       4.639   4.140  16.918  0.00  0.00    +0.000 A 
ATOM      6  C   UNL     1       3.807   5.223  17.246  0.00  0.00    +0.000 A 
ATOM      7  C   UNL     1       2.565   5.057  17.883  0.00  0.00    +0.000 A 
BRANCH   2   9
ATOM      8  C   UNL     1       0.988   3.634  20.271  0.00  0.00    +0.000 C 
ATOM      9  O   UNL     1       0.941   3.585  18.846  0.00  0.00    +0.000 OA
ENDBRANCH   2   9
BRANCH   7  10
ATOM     10  O   UNL     1       1.961   6.262  18.125  0.00  0.00    +0.000 OA
ATOM     11  C   UNL     1       2.752   7.399  18.429  0.00  0.00    +0.000 C 
ENDBRANCH   7  10
ENDBRANCH   1   5
BRANCH   1  12
ATOM     12  P   UNL     1       7.074   5.290  17.504  0.00  0.00    +0.000 P 
ATOM     13  O   UNL     1       8.192   4.242  17.432  0.00  0.00    +0.000 OA
BRANCH  12  14
ATOM     14  O   UNL     1       7.459   6.450  16.413  0.00  0.00    +0.000 OA
ATOM     15  H   UNL     1       7.678   7.310  16.811  0.00  0.00    +0.000 HD
ENDBRANCH  12  14
BRANCH  12  16
ATOM     16  O   UNL     1       8.057   6.161  18.629  0.00  0.00    +0.000 OA
ATOM     17  H   UNL     1       7.448   6.829  19.011  0.00  0.00    +0.000 HD
ENDBRANCH  12  16
ENDBRANCH   1  12
BRANCH   1  18
ATOM     18  C   UNL     1       5.871   5.012  14.905  0.00  0.00    +0.000 C 
BRANCH  18  19
ATOM     19  C   UNL     1       6.704   4.397  13.776  0.00  0.00    +0.000 C 
BRANCH  19  20
ATOM     20  C   UNL     1       5.885   3.530  12.848  0.00  0.00    +0.000 C 
ATOM     21  O   UNL     1       4.679   3.669  12.691  0.00  0.00    +0.000 OA
ATOM     22  N   UNL     1       6.619   2.570  12.187  0.00  0.00    +0.000 N 
ATOM     23  H   UNL     1       7.360   2.107  12.726  0.00  0.00    +0.000 HD
BRANCH  22  24
ATOM     24  O   UNL     1       5.832   1.701  11.386  0.00  0.00    +0.000 OA
ATOM     25  H   UNL     1       5.923   0.844  11.857  0.00  0.00    +0.000 HD
ENDBRANCH  22  24
ENDBRANCH  19  20
ENDBRANCH  18  19
ENDBRANCH   1  18
TORSDOF 10
ENDMDL
MODEL 7
REMARK VINA RESULT:      -6.6      1.464      1.853
REMARK  Name = 
REMARK  12 active torsions:
REMARK  status: ('A' for Active; 'I' for Inactive)
REMARK    1  A    between atoms: C_1  and  O_2
REMARK    2  A    between atoms: O_2  and  C_3
REMARK    3  A    between atoms: C_6  and  C_7
REMARK    4  A    between atoms: C_7  and  C_8
REMARK    5  A    between atoms: C_7  and  P_14
REMARK    6  A    between atoms: C_8  and  C_9
REMARK    7  A    between atoms: C_9  and  C_10
REMARK    8  A    between atoms: N_12  and  O_13
REMARK    9  A    between atoms: P_14  and  O_16
REMARK   10  A    between atoms: P_14  and  O_17
REMARK   11  A    between atoms: C_19  and  O_20
REMARK   12  A    between atoms: O_20  and  C_21
REMARK                            x       y       z     vdW  Elec       q    Type
REMARK                         _______ _______ _______ _____ _____    ______ ____
ROOT
ATOM      1  C   UNL     1       5.811   5.306  17.714  0.00  0.00    +0.000 C 
ENDROOT
BRANCH   1   5
ATOM      2  C   UNL     1       2.272   3.793  19.792  0.00  0.00    +0.000 A 
ATOM      3  C   UNL     1       3.094   2.934  19.042  0.00  0.00    +0.000 A 
ATOM      4  C   UNL     1       4.230   3.410  18.374  0.00  0.00    +0.000 A 
ATOM      5  C   UNL     1       4.537   4.771  18.389  0.00  0.00    +0.000 A 
ATOM      6  C   UNL     1       3.667   5.632  19.077  0.00  0.00    +0.000 A 
ATOM      7  C   UNL     1       2.543   5.167  19.782  0.00  0.00    +0.000 A 
BRANCH   2   9
ATOM      8  C   UNL     1       1.501   2.650  21.723  0.00  0.00    +0.000 C 
ATOM      9  O   UNL     1       1.200   3.319  20.499  0.00  0.00    +0.000 OA
ENDBRANCH   2   9
BRANCH   7  10
ATOM     10  O   UNL     1       1.874   6.193  20.394  0.00  0.00    +0.000 OA
ATOM     11  C   UNL     1       2.044   7.522  19.928  0.00  0.00    +0.000 C 
ENDBRANCH   7  10
ENDBRANCH   1   5
BRANCH   1  12
ATOM     12  P   UNL     1       7.145   5.455  18.958  0.00  0.00    +0.000 P 
ATOM     13  O   UNL     1       7.990   4.376  18.270  0.00  0.00    +0.000 OA
BRANCH  12  14
ATOM     14  O   UNL     1       7.663   6.893  18.368  0.00  0.00    +0.000 OA
ATOM     15  H   UNL     1       7.002   7.604  18.420  0.00  0.00    +0.000 HD
ENDBRANCH  12  14
BRANCH  12  16
ATOM     16  O   UNL     1       8.406   5.596  20.133  0.00  0.00    +0.000 OA
ATOM     17  H   UNL     1       9.143   6.021  19.643  0.00  0.00    +0.000 HD
ENDBRANCH  12  16
ENDBRANCH   1  12
BRANCH   1  18
ATOM     18  C   UNL     1       5.457   6.605  16.931  0.00  0.00    +0.000 C 
BRANCH  18  19
ATOM     19  C   UNL     1       5.367   6.478  15.407  0.00  0.00    +0.000 C 
BRANCH  19  20
ATOM     20  C   UNL     1       6.228   5.363  14.861  0.00  0.00    +0.000 C 
ATOM     21  O   UNL     1       7.453   5.388  14.885  0.00  0.00    +0.000 OA
ATOM     22  N   UNL     1       5.513   4.309  14.338  0.00  0.00    +0.000 N 
ATOM     23  H   UNL     1       4.666   4.547  13.809  0.00  0.00    +0.000 HD
BRANCH  22  24
ATOM     24  O   UNL     1       6.324   3.306  13.745  0.00  0.00    +0.000 OA
ATOM     25  H   UNL     1       6.822   2.957  14.516  0.00  0.00    +0.000 HD
ENDBRANCH  22  24
ENDBRANCH  19  20
ENDBRANCH  18  19
ENDBRANCH   1  18
TORSDOF 10
ENDMDL
MODEL 8
REMARK VINA RESULT:      -6.5      1.628      2.897
REMARK  Name = 
REMARK  12 active torsions:
REMARK  status: ('A' for Active; 'I' for Inactive)
REMARK    1  A    between atoms: C_1  and  O_2
REMARK    2  A    between atoms: O_2  and  C_3
REMARK    3  A    between atoms: C_6  and  C_7
REMARK    4  A    between atoms: C_7  and  C_8
REMARK    5  A    between atoms: C_7  and  P_14
REMARK    6  A    between atoms: C_8  and  C_9
REMARK    7  A    between atoms: C_9  and  C_10
REMARK    8  A    between atoms: N_12  and  O_13
REMARK    9  A    between atoms: P_14  and  O_16
REMARK   10  A    between atoms: P_14  and  O_17
REMARK   11  A    between atoms: C_19  and  O_20
REMARK   12  A    between atoms: O_20  and  C_21
REMARK                            x       y       z     vdW  Elec       q    Type
REMARK                         _______ _______ _______ _____ _____    ______ ____
ROOT
ATOM      1  C   UNL     1       5.363   5.416  17.473  0.00  0.00    +0.000 C 
ENDROOT
BRANCH   1   5
ATOM      2  C   UNL     1       2.030   7.828  18.954  0.00  0.00    +0.000 A 
ATOM      3  C   UNL     1       2.825   8.271  17.882  0.00  0.00    +0.000 A 
ATOM      4  C   UNL     1       3.894   7.504  17.401  0.00  0.00    +0.000 A 
ATOM      5  C   UNL     1       4.233   6.303  18.022  0.00  0.00    +0.000 A 
ATOM      6  C   UNL     1       3.481   5.906  19.139  0.00  0.00    +0.000 A 
ATOM      7  C   UNL     1       2.383   6.645  19.613  0.00  0.00    +0.000 A 
BRANCH   2   9
ATOM      8  C   UNL     1       0.923   9.927  19.027  0.00  0.00    +0.000 C 
ATOM      9  O   UNL     1       0.944   8.545  19.381  0.00  0.00    +0.000 OA
ENDBRANCH   2   9
BRANCH   7  10
ATOM     10  O   UNL     1       1.796   6.038  20.690  0.00  0.00    +0.000 OA
ATOM     11  C   UNL     1       2.223   4.745  21.089  0.00  0.00    +0.000 C 
ENDBRANCH   7  10
ENDBRANCH   1   5
BRANCH   1  12
ATOM     12  P   UNL     1       6.944   5.876  18.272  0.00  0.00    +0.000 P 
ATOM     13  O   UNL     1       7.470   4.437  18.201  0.00  0.00    +0.000 OA
BRANCH  12  14
ATOM     14  O   UNL     1       7.506   6.638  16.935  0.00  0.00    +0.000 OA
ATOM     15  H   UNL     1       8.366   6.308  16.622  0.00  0.00    +0.000 HD
ENDBRANCH  12  14
BRANCH  12  16
ATOM     16  O   UNL     1       8.439   6.311  19.026  0.00  0.00    +0.000 OA
ATOM     17  H   UNL     1       8.231   6.312  19.985  0.00  0.00    +0.000 HD
ENDBRANCH  12  16
ENDBRANCH   1  12
BRANCH   1  18
ATOM     18  C   UNL     1       5.339   5.476  15.917  0.00  0.00    +0.000 C 
BRANCH  18  19
ATOM     19  C   UNL     1       5.793   4.212  15.180  0.00  0.00    +0.000 C 
BRANCH  19  20
ATOM     20  C   UNL     1       6.702   4.511  14.011  0.00  0.00    +0.000 C 
ATOM     21  O   UNL     1       6.609   3.948  12.927  0.00  0.00    +0.000 OA
ATOM     22  N   UNL     1       7.645   5.481  14.270  0.00  0.00    +0.000 N 
ATOM     23  H   UNL     1       8.073   5.467  15.203  0.00  0.00    +0.000 HD
BRANCH  22  24
ATOM     24  O   UNL     1       8.555   5.693  13.200  0.00  0.00    +0.000 OA
ATOM     25  H   UNL     1       7.956   5.732  12.422  0.00  0.00    +0.000 HD
ENDBRANCH  22  24
ENDBRANCH  19  20
ENDBRANCH  18  19
ENDBRANCH   1  18
TORSDOF 10
ENDMDL
MODEL 9
REMARK VINA RESULT:      -6.5      2.637      6.566
REMARK  Name = 
REMARK  12 active torsions:
REMARK  status: ('A' for Active; 'I' for Inactive)
REMARK    1  A    between atoms: C_1  and  O_2
REMARK    2  A    between atoms: O_2  and  C_3
REMARK    3  A    between atoms: C_6  and  C_7
REMARK    4  A    between atoms: C_7  and  C_8
REMARK    5  A    between atoms: C_7  and  P_14
REMARK    6  A    between atoms: C_8  and  C_9
REMARK    7  A    between atoms: C_9  and  C_10
REMARK    8  A    between atoms: N_12  and  O_13
REMARK    9  A    between atoms: P_14  and  O_16
REMARK   10  A    between atoms: P_14  and  O_17
REMARK   11  A    between atoms: C_19  and  O_20
REMARK   12  A    between atoms: O_20  and  C_21
REMARK                            x       y       z     vdW  Elec       q    Type
REMARK                         _______ _______ _______ _____ _____    ______ ____
ROOT
ATOM      1  C   UNL     1       3.873   4.424  18.315  0.00  0.00    +0.000 C 
ENDROOT
BRANCH   1   5
ATOM      2  C   UNL     1       6.958   5.161  15.304  0.00  0.00    +0.000 A 
ATOM      3  C   UNL     1       6.136   4.022  15.236  0.00  0.00    +0.000 A 
ATOM      4  C   UNL     1       5.145   3.779  16.196  0.00  0.00    +0.000 A 
ATOM      5  C   UNL     1       4.993   4.638  17.284  0.00  0.00    +0.000 A 
ATOM      6  C   UNL     1       5.869   5.732  17.383  0.00  0.00    +0.000 A 
ATOM      7  C   UNL     1       6.845   6.010  16.411  0.00  0.00    +0.000 A 
BRANCH   2   9
ATOM      8  C   UNL     1       7.561   4.984  13.015  0.00  0.00    +0.000 C 
ATOM      9  O   UNL     1       7.881   5.435  14.330  0.00  0.00    +0.000 OA
ENDBRANCH   2   9
BRANCH   7  10
ATOM     10  O   UNL     1       7.549   7.144  16.717  0.00  0.00    +0.000 OA
ATOM     11  C   UNL     1       7.912   7.407  18.063  0.00  0.00    +0.000 C 
ENDBRANCH   7  10
ENDBRANCH   1   5
BRANCH   1  12
ATOM     12  P   UNL     1       3.149   6.041  18.776  0.00  0.00    +0.000 P 
ATOM     13  O   UNL     1       1.820   5.712  18.085  0.00  0.00    +0.000 OA
BRANCH  12  14
ATOM     14  O   UNL     1       2.969   5.618  20.348  0.00  0.00    +0.000 OA
ATOM     15  H   UNL     1       2.667   4.702  20.480  0.00  0.00    +0.000 HD
ENDBRANCH  12  14
BRANCH  12  16
ATOM     16  O   UNL     1       2.464   7.568  19.212  0.00  0.00    +0.000 OA
ATOM     17  H   UNL     1       3.234   8.098  19.513  0.00  0.00    +0.000 HD
ENDBRANCH  12  16
ENDBRANCH   1  12
BRANCH   1  18
ATOM     18  C   UNL     1       4.429   3.564  19.488  0.00  0.00    +0.000 C 
BRANCH  18  19
ATOM     19  C   UNL     1       3.723   2.228  19.746  0.00  0.00    +0.000 C 
BRANCH  19  20
ATOM     20  C   UNL     1       2.221   2.325  19.618  0.00  0.00    +0.000 C 
ATOM     21  O   UNL     1       1.513   2.895  20.438  0.00  0.00    +0.000 OA
ATOM     22  N   UNL     1       1.716   1.720  18.488  0.00  0.00    +0.000 N 
ATOM     23  H   UNL     1       2.153   0.833  18.209  0.00  0.00    +0.000 HD
BRANCH  22  24
ATOM     24  O   UNL     1       0.298   1.734  18.418  0.00  0.00    +0.000 OA
ATOM     25  H   UNL     1       0.125   2.530  17.869  0.00  0.00    +0.000 HD
ENDBRANCH  22  24
ENDBRANCH  19  20
ENDBRANCH  18  19
ENDBRANCH   1  18
TORSDOF 10
ENDMDL
