MODEL 1
REMARK VINA RESULT:      -9.3      0.000      0.000
REMARK  Name = 
REMARK  5 active torsions:
REMARK  status: ('A' for Active; 'I' for Inactive)
REMARK    1  A    between atoms: C_2  and  C_19
REMARK    2  A    between atoms: N_3  and  C_4
REMARK    3  A    between atoms: C_7  and  S_8
REMARK    4  A    between atoms: S_8  and  N_11
REMARK    5  A    between atoms: N_21  and  C_22
REMARK                            x       y       z     vdW  Elec       q    Type
REMARK                         _______ _______ _______ _____ _____    ______ ____
ROOT
ATOM      1  O   UNL     1       1.817   8.197  19.091  0.00  0.00    +0.000 OA
ATOM      2  C   UNL     1       1.846   7.477  20.081  0.00  0.00    +0.000 C 
ATOM      3  N   UNL     1       1.402   7.800  21.353  0.00  0.00    +0.000 N 
ATOM      4  H   UNL     1       1.632   7.145  22.096  0.00  0.00    +0.000 HD
ENDROOT
BRANCH   2   5
ATOM      5  C   UNL     1       2.471   6.103  19.885  0.00  0.00    +0.000 C 
ATOM      6  N   UNL     1       3.351   5.906  18.946  0.00  0.00    +0.000 NA
ATOM      7  N   UNL     1       3.937   4.645  18.829  0.00  0.00    +0.000 N 
ATOM      8  C   UNL     1       3.548   3.526  19.583  0.00  0.00    +0.000 C 
ATOM      9  O   UNL     1       4.100   2.423  19.591  0.00  0.00    +0.000 OA
ATOM     10  C   UNL     1       2.307   3.682  20.412  0.00  0.00    +0.000 C 
ATOM     11  C   UNL     1       2.073   5.077  20.898  0.00  0.00    +0.000 C 
BRANCH   7  12
ATOM     12  C   UNL     1       5.002   4.580  17.860  0.00  0.00    +0.000 A 
ATOM     13  C   UNL     1       4.763   4.308  16.502  0.00  0.00    +0.000 A 
ATOM     14  C   UNL     1       5.808   4.235  15.574  0.00  0.00    +0.000 A 
ATOM     15  C   UNL     1       7.120   4.432  15.987  0.00  0.00    +0.000 A 
ATOM     16  C   UNL     1       7.384   4.712  17.325  0.00  0.00    +0.000 A 
ATOM     17  C   UNL     1       6.335   4.795  18.249  0.00  0.00    +0.000 A 
ENDBRANCH   7  12
ENDBRANCH   2   5
BRANCH   3  18
ATOM     18  C   UNL     1       0.746   9.012  21.685  0.00  0.00    +0.000 A 
ATOM     19  C   UNL     1      -0.120   9.115  22.781  0.00  0.00    +0.000 A 
ATOM     20  C   UNL     1      -0.787  10.304  23.076  0.00  0.00    +0.000 A 
ATOM     21  C   UNL     1      -0.574  11.427  22.284  0.00  0.00    +0.000 A 
ATOM     22  C   UNL     1       0.281  11.355  21.181  0.00  0.00    +0.000 A 
ATOM     23  C   UNL     1       0.954  10.150  20.896  0.00  0.00    +0.000 A 
BRANCH  21  24
ATOM     24  S   UNL     1      -1.505  12.899  22.646  0.00  0.00    +0.000 S 
ATOM     25  O   UNL     1      -0.797  13.609  23.691  0.00  0.00    +0.000 OA
ATOM     26  O   UNL     1      -1.815  13.541  21.386  0.00  0.00    +0.000 OA
BRANCH  24  27
ATOM     27  N   UNL     1      -2.896  12.267  23.380  0.00  0.00    +0.000 N 
ATOM     28  C   UNL     1      -4.042  13.043  23.092  0.00  0.00    +0.000 A 
ATOM     29  N   UNL     1      -4.491  13.878  23.993  0.00  0.00    +0.000 NA
ATOM     30  C   UNL     1      -5.596  14.533  23.479  0.00  0.00    +0.000 A 
ATOM     31  C   UNL     1      -6.037  14.086  22.251  0.00  0.00    +0.000 A 
ATOM     32  S   UNL     1      -4.991  12.849  21.685  0.00  0.00    +0.000 S 
ATOM     33  H   UNL     1      -2.718  12.305  24.383  0.00  0.00    +0.000 HD
ENDBRANCH  24  27
ENDBRANCH  21  24
ENDBRANCH   3  18
TORSDOF 5
ENDMDL
MODEL 2
REMARK VINA RESULT:      -9.2      1.361      1.804
REMARK  Name = 
REMARK  5 active torsions:
REMARK  status: ('A' for Active; 'I' for Inactive)
REMARK    1  A    between atoms: C_2  and  C_19
REMARK    2  A    between atoms: N_3  and  C_4
REMARK    3  A    between atoms: C_7  and  S_8
REMARK    4  A    between atoms: S_8  and  N_11
REMARK    5  A    between atoms: N_21  and  C_22
REMARK                            x       y       z     vdW  Elec       q    Type
REMARK                         _______ _______ _______ _____ _____    ______ ____
ROOT
ATOM      1  O   UNL     1       1.870   8.156  19.114  0.00  0.00    +0.000 OA
ATOM      2  C   UNL     1       1.882   7.418  20.091  0.00  0.00    +0.000 C 
ATOM      3  N   UNL     1       1.411   7.716  21.359  0.00  0.00    +0.000 N 
ATOM      4  H   UNL     1       1.627   7.047  22.095  0.00  0.00    +0.000 HD
ENDROOT
BRANCH   2   5
ATOM      5  C   UNL     1       2.514   6.049  19.882  0.00  0.00    +0.000 C 
ATOM      6  N   UNL     1       3.394   5.865  18.940  0.00  0.00    +0.000 NA
ATOM      7  N   UNL     1       3.987   4.608  18.811  0.00  0.00    +0.000 N 
ATOM      8  C   UNL     1       3.605   3.480  19.556  0.00  0.00    +0.000 C 
ATOM      9  O   UNL     1       4.163   2.380  19.553  0.00  0.00    +0.000 OA
ATOM     10  C   UNL     1       2.365   3.622  20.388  0.00  0.00    +0.000 C 
ATOM     11  C   UNL     1       2.124   5.012  20.886  0.00  0.00    +0.000 C 
BRANCH   7  12
ATOM     12  C   UNL     1       5.050   4.558  17.839  0.00  0.00    +0.000 A 
ATOM     13  C   UNL     1       6.399   4.717  18.197  0.00  0.00    +0.000 A 
ATOM     14  C   UNL     1       7.421   4.678  17.240  0.00  0.00    +0.000 A 
ATOM     15  C   UNL     1       7.111   4.481  15.900  0.00  0.00    +0.000 A 
ATOM     16  C   UNL     1       5.783   4.312  15.519  0.00  0.00    +0.000 A 
ATOM     17  C   UNL     1       4.765   4.341  16.480  0.00  0.00    +0.000 A 
ENDBRANCH   7  12
ENDBRANCH   2   5
BRANCH   3  18
ATOM     18  C   UNL     1       0.745   8.919  21.700  0.00  0.00    +0.000 A 
ATOM     19  C   UNL     1      -0.064   9.027  22.839  0.00  0.00    +0.000 A 
ATOM     20  C   UNL     1      -0.742  10.207  23.144  0.00  0.00    +0.000 A 
ATOM     21  C   UNL     1      -0.598  11.316  22.319  0.00  0.00    +0.000 A 
ATOM     22  C   UNL     1       0.200  11.240  21.174  0.00  0.00    +0.000 A 
ATOM     23  C   UNL     1       0.884  10.045  20.879  0.00  0.00    +0.000 A 
BRANCH  21  24
ATOM     24  S   UNL     1      -1.543  12.776  22.699  0.00  0.00    +0.000 S 
ATOM     25  O   UNL     1      -2.861  12.338  23.110  0.00  0.00    +0.000 OA
ATOM     26  O   UNL     1      -0.732  13.610  23.559  0.00  0.00    +0.000 OA
BRANCH  24  27
ATOM     27  N   UNL     1      -1.747  13.473  21.168  0.00  0.00    +0.000 N 
ATOM     28  C   UNL     1      -3.067  13.313  20.688  0.00  0.00    +0.000 A 
ATOM     29  N   UNL     1      -3.316  12.384  19.802  0.00  0.00    +0.000 NA
ATOM     30  C   UNL     1      -4.668  12.404  19.505  0.00  0.00    +0.000 A 
ATOM     31  C   UNL     1      -5.388  13.433  20.075  0.00  0.00    +0.000 A 
ATOM     32  S   UNL     1      -4.353  14.369  21.075  0.00  0.00    +0.000 S 
ATOM     33  H   UNL     1      -1.111  12.971  20.550  0.00  0.00    +0.000 HD
ENDBRANCH  24  27
ENDBRANCH  21  24
ENDBRANCH   3  18
TORSDOF 5
ENDMDL
MODEL 3
REMARK VINA RESULT:      -9.2      0.234      1.230
REMARK  Name = 
REMARK  5 active torsions:
REMARK  status: ('A' for Active; 'I' for Inactive)
REMARK    1  A    between atoms: C_2  and  C_19
REMARK    2  A    between atoms: N_3  and  C_4
REMARK    3  A    between atoms: C_7  and  S_8
REMARK    4  A    between atoms: S_8  and  N_11
REMARK    5  A    between atoms: N_21  and  C_22
REMARK                            x       y       z     vdW  Elec       q    Type
REMARK                         _______ _______ _______ _____ _____    ______ ____
ROOT
ATOM      1  O   UNL     1       1.964   8.119  19.047  0.00  0.00    +0.000 OA
ATOM      2  C   UNL     1       1.896   7.371  20.015  0.00  0.00    +0.000 C 
ATOM      3  N   UNL     1       1.313   7.653  21.239  0.00  0.00    +0.000 N 
ATOM      4  H   UNL     1       1.470   6.978  21.985  0.00  0.00    +0.000 HD
ENDROOT
BRANCH   2   5
ATOM      5  C   UNL     1       2.558   6.011  19.850  0.00  0.00    +0.000 C 
ATOM      6  N   UNL     1       3.417   5.806  18.894  0.00  0.00    +0.000 NA
ATOM      7  N   UNL     1       4.039   4.559  18.805  0.00  0.00    +0.000 N 
ATOM      8  C   UNL     1       3.705   3.457  19.609  0.00  0.00    +0.000 C 
ATOM      9  O   UNL     1       4.291   2.372  19.641  0.00  0.00    +0.000 OA
ATOM     10  C   UNL     1       2.484   3.606  20.468  0.00  0.00    +0.000 C 
ATOM     11  C   UNL     1       2.221   5.010  20.910  0.00  0.00    +0.000 C 
BRANCH   7  12
ATOM     12  C   UNL     1       5.077   4.491  17.808  0.00  0.00    +0.000 A 
ATOM     13  C   UNL     1       6.428   4.722  18.117  0.00  0.00    +0.000 A 
ATOM     14  C   UNL     1       7.424   4.665  17.135  0.00  0.00    +0.000 A 
ATOM     15  C   UNL     1       7.088   4.376  15.819  0.00  0.00    +0.000 A 
ATOM     16  C   UNL     1       5.758   4.134  15.486  0.00  0.00    +0.000 A 
ATOM     17  C   UNL     1       4.765   4.182  16.473  0.00  0.00    +0.000 A 
ENDBRANCH   7  12
ENDBRANCH   2   5
BRANCH   3  18
ATOM     18  C   UNL     1       0.608   8.846  21.531  0.00  0.00    +0.000 A 
ATOM     19  C   UNL     1       0.475   9.882  20.597  0.00  0.00    +0.000 A 
ATOM     20  C   UNL     1      -0.192  11.067  20.909  0.00  0.00    +0.000 A 
ATOM     21  C   UNL     1      -0.763  11.224  22.166  0.00  0.00    +0.000 A 
ATOM     22  C   UNL     1      -0.645  10.211  23.121  0.00  0.00    +0.000 A 
ATOM     23  C   UNL     1       0.025   9.016  22.793  0.00  0.00    +0.000 A 
BRANCH  21  24
ATOM     24  S   UNL     1      -1.533  12.781  22.551  0.00  0.00    +0.000 S 
ATOM     25  O   UNL     1      -0.715  13.428  23.556  0.00  0.00    +0.000 OA
ATOM     26  O   UNL     1      -1.836  13.441  21.299  0.00  0.00    +0.000 OA
BRANCH  24  27
ATOM     27  N   UNL     1      -2.943  12.291  23.352  0.00  0.00    +0.000 N 
ATOM     28  C   UNL     1      -4.042  13.125  23.043  0.00  0.00    +0.000 A 
ATOM     29  N   UNL     1      -4.410  14.040  23.903  0.00  0.00    +0.000 NA
ATOM     30  C   UNL     1      -5.481  14.740  23.374  0.00  0.00    +0.000 A 
ATOM     31  C   UNL     1      -5.983  14.253  22.185  0.00  0.00    +0.000 A 
ATOM     32  S   UNL     1      -5.038  12.916  21.671  0.00  0.00    +0.000 S 
ATOM     33  H   UNL     1      -2.737  12.375  24.347  0.00  0.00    +0.000 HD
ENDBRANCH  24  27
ENDBRANCH  21  24
ENDBRANCH   3  18
TORSDOF 5
ENDMDL
MODEL 4
REMARK VINA RESULT:      -9.1      0.985      1.573
REMARK  Name = 
REMARK  5 active torsions:
REMARK  status: ('A' for Active; 'I' for Inactive)
REMARK    1  A    between atoms: C_2  and  C_19
REMARK    2  A    between atoms: N_3  and  C_4
REMARK    3  A    between atoms: C_7  and  S_8
REMARK    4  A    between atoms: S_8  and  N_11
REMARK    5  A    between atoms: N_21  and  C_22
REMARK                            x       y       z     vdW  Elec       q    Type
REMARK                         _______ _______ _______ _____ _____    ______ ____
ROOT
ATOM      1  O   UNL     1       2.165   8.197  19.162  0.00  0.00    +0.000 OA
ATOM      2  C   UNL     1       1.919   7.371  20.032  0.00  0.00    +0.000 C 
ATOM      3  N   UNL     1       1.156   7.571  21.171  0.00  0.00    +0.000 N 
ATOM      4  H   UNL     1       1.171   6.827  21.865  0.00  0.00    +0.000 HD
ENDROOT
BRANCH   2   5
ATOM      5  C   UNL     1       2.556   6.001  19.846  0.00  0.00    +0.000 C 
ATOM      6  N   UNL     1       3.417   5.798  18.891  0.00  0.00    +0.000 NA
ATOM      7  N   UNL     1       4.015   4.541  18.783  0.00  0.00    +0.000 N 
ATOM      8  C   UNL     1       3.654   3.431  19.564  0.00  0.00    +0.000 C 
ATOM      9  O   UNL     1       4.218   2.334  19.578  0.00  0.00    +0.000 OA
ATOM     10  C   UNL     1       2.430   3.587  20.416  0.00  0.00    +0.000 C 
ATOM     11  C   UNL     1       2.190   4.988  20.884  0.00  0.00    +0.000 C 
BRANCH   7  12
ATOM     12  C   UNL     1       5.059   4.471  17.792  0.00  0.00    +0.000 A 
ATOM     13  C   UNL     1       6.408   4.700  18.109  0.00  0.00    +0.000 A 
ATOM     14  C   UNL     1       7.410   4.642  17.133  0.00  0.00    +0.000 A 
ATOM     15  C   UNL     1       7.082   4.353  15.815  0.00  0.00    +0.000 A 
ATOM     16  C   UNL     1       5.753   4.113  15.475  0.00  0.00    +0.000 A 
ATOM     17  C   UNL     1       4.754   4.162  16.455  0.00  0.00    +0.000 A 
ENDBRANCH   7  12
ENDBRANCH   2   5
BRANCH   3  18
ATOM     18  C   UNL     1       0.452   8.766  21.460  0.00  0.00    +0.000 A 
ATOM     19  C   UNL     1       0.052   9.658  20.456  0.00  0.00    +0.000 A 
ATOM     20  C   UNL     1      -0.610  10.848  20.757  0.00  0.00    +0.000 A 
ATOM     21  C   UNL     1      -0.907  11.154  22.080  0.00  0.00    +0.000 A 
ATOM     22  C   UNL     1      -0.519  10.286  23.105  0.00  0.00    +0.000 A 
ATOM     23  C   UNL     1       0.144   9.085  22.789  0.00  0.00    +0.000 A 
BRANCH  21  24
ATOM     24  S   UNL     1      -1.679  12.719  22.427  0.00  0.00    +0.000 S 
ATOM     25  O   UNL     1      -2.476  12.548  23.625  0.00  0.00    +0.000 OA
ATOM     26  O   UNL     1      -0.654  13.738  22.353  0.00  0.00    +0.000 OA
BRANCH  24  27
ATOM     27  N   UNL     1      -2.788  12.857  21.154  0.00  0.00    +0.000 N 
ATOM     28  C   UNL     1      -4.060  13.276  21.606  0.00  0.00    +0.000 A 
ATOM     29  N   UNL     1      -5.012  12.389  21.743  0.00  0.00    +0.000 NA
ATOM     30  C   UNL     1      -6.147  13.026  22.215  0.00  0.00    +0.000 A 
ATOM     31  C   UNL     1      -6.067  14.400  22.301  0.00  0.00    +0.000 A 
ATOM     32  S   UNL     1      -4.494  14.911  21.841  0.00  0.00    +0.000 S 
ATOM     33  H   UNL     1      -2.871  11.921  20.760  0.00  0.00    +0.000 HD
ENDBRANCH  24  27
ENDBRANCH  21  24
ENDBRANCH   3  18
TORSDOF 5
ENDMDL
MODEL 5
REMARK VINA RESULT:      -9.1      0.835      1.233
REMARK  Name = 
REMARK  5 active torsions:
REMARK  status: ('A' for Active; 'I' for Inactive)
REMARK    1  A    between atoms: C_2  and  C_19
REMARK    2  A    between atoms: N_3  and  C_4
REMARK    3  A    between atoms: C_7  and  S_8
REMARK    4  A    between atoms: S_8  and  N_11
REMARK    5  A    between atoms: N_21  and  C_22
REMARK                            x       y       z     vdW  Elec       q    Type
REMARK                         _______ _______ _______ _____ _____    ______ ____
ROOT
ATOM      1  O   UNL     1       1.912   8.245  18.934  0.00  0.00    +0.000 OA
ATOM      2  C   UNL     1       1.900   7.553  19.945  0.00  0.00    +0.000 C 
ATOM      3  N   UNL     1       1.418   7.917  21.192  0.00  0.00    +0.000 N 
ATOM      4  H   UNL     1       1.616   7.280  21.960  0.00  0.00    +0.000 HD
ENDROOT
BRANCH   2   5
ATOM      5  C   UNL     1       2.514   6.167  19.808  0.00  0.00    +0.000 C 
ATOM      6  N   UNL     1       3.386   5.920  18.874  0.00  0.00    +0.000 NA
ATOM      7  N   UNL     1       3.962   4.651  18.811  0.00  0.00    +0.000 N 
ATOM      8  C   UNL     1       3.570   3.570  19.618  0.00  0.00    +0.000 C 
ATOM      9  O   UNL     1       4.113   2.464  19.673  0.00  0.00    +0.000 OA
ATOM     10  C   UNL     1       2.336   3.773  20.447  0.00  0.00    +0.000 C 
ATOM     11  C   UNL     1       2.115   5.191  20.869  0.00  0.00    +0.000 C 
BRANCH   7  12
ATOM     12  C   UNL     1       5.019   4.533  17.839  0.00  0.00    +0.000 A 
ATOM     13  C   UNL     1       4.771   4.176  16.503  0.00  0.00    +0.000 A 
ATOM     14  C   UNL     1       5.810   4.053  15.572  0.00  0.00    +0.000 A 
ATOM     15  C   UNL     1       7.123   4.285  15.961  0.00  0.00    +0.000 A 
ATOM     16  C   UNL     1       7.396   4.649  17.276  0.00  0.00    +0.000 A 
ATOM     17  C   UNL     1       6.354   4.781  18.202  0.00  0.00    +0.000 A 
ENDBRANCH   7  12
ENDBRANCH   2   5
BRANCH   3  18
ATOM     18  C   UNL     1       0.767   9.145  21.468  0.00  0.00    +0.000 A 
ATOM     19  C   UNL     1       0.934  10.276  20.658  0.00  0.00    +0.000 A 
ATOM     20  C   UNL     1       0.315  11.489  20.961  0.00  0.00    +0.000 A 
ATOM     21  C   UNL     1      -0.510  11.581  22.076  0.00  0.00    +0.000 A 
ATOM     22  C   UNL     1      -0.694  10.471  22.905  0.00  0.00    +0.000 A 
ATOM     23  C   UNL     1      -0.068   9.250  22.587  0.00  0.00    +0.000 A 
BRANCH  21  24
ATOM     24  S   UNL     1      -1.215  13.166  22.472  0.00  0.00    +0.000 S 
ATOM     25  O   UNL     1      -1.626  13.119  23.860  0.00  0.00    +0.000 OA
ATOM     26  O   UNL     1      -0.299  14.182  21.999  0.00  0.00    +0.000 OA
BRANCH  24  27
ATOM     27  N   UNL     1      -2.648  13.152  21.568  0.00  0.00    +0.000 N 
ATOM     28  C   UNL     1      -3.775  13.465  22.362  0.00  0.00    +0.000 A 
ATOM     29  N   UNL     1      -4.554  12.498  22.773  0.00  0.00    +0.000 NA
ATOM     30  C   UNL     1      -5.566  13.043  23.545  0.00  0.00    +0.000 A 
ATOM     31  C   UNL     1      -5.604  14.421  23.592  0.00  0.00    +0.000 A 
ATOM     32  S   UNL     1      -4.287  15.060  22.697  0.00  0.00    +0.000 S 
ATOM     33  H   UNL     1      -2.745  12.197  21.223  0.00  0.00    +0.000 HD
ENDBRANCH  24  27
ENDBRANCH  21  24
ENDBRANCH   3  18
TORSDOF 5
ENDMDL
MODEL 6
REMARK VINA RESULT:      -9.1      1.357      1.782
REMARK  Name = 
REMARK  5 active torsions:
REMARK  status: ('A' for Active; 'I' for Inactive)
REMARK    1  A    between atoms: C_2  and  C_19
REMARK    2  A    between atoms: N_3  and  C_4
REMARK    3  A    between atoms: C_7  and  S_8
REMARK    4  A    between atoms: S_8  and  N_11
REMARK    5  A    between atoms: N_21  and  C_22
REMARK                            x       y       z     vdW  Elec       q    Type
REMARK                         _______ _______ _______ _____ _____    ______ ____
ROOT
ATOM      1  O   UNL     1       1.759   8.055  19.007  0.00  0.00    +0.000 OA
ATOM      2  C   UNL     1       1.873   7.396  20.032  0.00  0.00    +0.000 C 
ATOM      3  N   UNL     1       1.488   7.775  21.308  0.00  0.00    +0.000 N 
ATOM      4  H   UNL     1       1.785   7.172  22.072  0.00  0.00    +0.000 HD
ENDROOT
BRANCH   2   5
ATOM      5  C   UNL     1       2.542   6.037  19.877  0.00  0.00    +0.000 C 
ATOM      6  N   UNL     1       3.409   5.833  18.928  0.00  0.00    +0.000 NA
ATOM      7  N   UNL     1       4.036   4.589  18.848  0.00  0.00    +0.000 N 
ATOM      8  C   UNL     1       3.701   3.488  19.653  0.00  0.00    +0.000 C 
ATOM      9  O   UNL     1       4.291   2.405  19.692  0.00  0.00    +0.000 OA
ATOM     10  C   UNL     1       2.472   3.634  20.502  0.00  0.00    +0.000 C 
ATOM     11  C   UNL     1       2.200   5.039  20.937  0.00  0.00    +0.000 C 
BRANCH   7  12
ATOM     12  C   UNL     1       5.082   4.521  17.859  0.00  0.00    +0.000 A 
ATOM     13  C   UNL     1       4.823   4.206  16.515  0.00  0.00    +0.000 A 
ATOM     14  C   UNL     1       5.851   4.132  15.568  0.00  0.00    +0.000 A 
ATOM     15  C   UNL     1       7.166   4.370  15.948  0.00  0.00    +0.000 A 
ATOM     16  C   UNL     1       7.450   4.694  17.272  0.00  0.00    +0.000 A 
ATOM     17  C   UNL     1       6.418   4.778  18.215  0.00  0.00    +0.000 A 
ENDBRANCH   7  12
ENDBRANCH   2   5
BRANCH   3  18
ATOM     18  C   UNL     1       0.803   8.978  21.609  0.00  0.00    +0.000 A 
ATOM     19  C   UNL     1       0.978  10.145  20.855  0.00  0.00    +0.000 A 
ATOM     20  C   UNL     1       0.324  11.333  21.184  0.00  0.00    +0.000 A 
ATOM     21  C   UNL     1      -0.544  11.362  22.269  0.00  0.00    +0.000 A 
ATOM     22  C   UNL     1      -0.737  10.215  23.044  0.00  0.00    +0.000 A 
ATOM     23  C   UNL     1      -0.076   9.020  22.699  0.00  0.00    +0.000 A 
BRANCH  21  24
ATOM     24  S   UNL     1      -1.295  12.916  22.703  0.00  0.00    +0.000 S 
ATOM     25  O   UNL     1      -2.601  12.623  23.255  0.00  0.00    +0.000 OA
ATOM     26  O   UNL     1      -0.321  13.677  23.456  0.00  0.00    +0.000 OA
BRANCH  24  27
ATOM     27  N   UNL     1      -1.583  13.607  21.183  0.00  0.00    +0.000 N 
ATOM     28  C   UNL     1      -2.920  13.420  20.764  0.00  0.00    +0.000 A 
ATOM     29  N   UNL     1      -3.191  12.484  19.892  0.00  0.00    +0.000 NA
ATOM     30  C   UNL     1      -4.555  12.478  19.657  0.00  0.00    +0.000 A 
ATOM     31  C   UNL     1      -5.268  13.494  20.259  0.00  0.00    +0.000 A 
ATOM     32  S   UNL     1      -4.207  14.452  21.209  0.00  0.00    +0.000 S 
ATOM     33  H   UNL     1      -0.965  13.116  20.537  0.00  0.00    +0.000 HD
ENDBRANCH  24  27
ENDBRANCH  21  24
ENDBRANCH   3  18
TORSDOF 5
ENDMDL
MODEL 7
REMARK VINA RESULT:      -8.9      1.037      1.614
REMARK  Name = 
REMARK  5 active torsions:
REMARK  status: ('A' for Active; 'I' for Inactive)
REMARK    1  A    between atoms: C_2  and  C_19
REMARK    2  A    between atoms: N_3  and  C_4
REMARK    3  A    between atoms: C_7  and  S_8
REMARK    4  A    between atoms: S_8  and  N_11
REMARK    5  A    between atoms: N_21  and  C_22
REMARK                            x       y       z     vdW  Elec       q    Type
REMARK                         _______ _______ _______ _____ _____    ______ ____
ROOT
ATOM      1  O   UNL     1       0.284   5.804  20.653  0.00  0.00    +0.000 OA
ATOM      2  C   UNL     1       1.471   6.101  20.633  0.00  0.00    +0.000 C 
ATOM      3  N   UNL     1       2.010   7.369  20.777  0.00  0.00    +0.000 N 
ATOM      4  H   UNL     1       3.006   7.466  20.590  0.00  0.00    +0.000 HD
ENDROOT
BRANCH   2   5
ATOM      5  C   UNL     1       2.439   4.952  20.386  0.00  0.00    +0.000 C 
ATOM      6  N   UNL     1       3.260   4.986  19.377  0.00  0.00    +0.000 NA
ATOM      7  N   UNL     1       4.165   3.936  19.212  0.00  0.00    +0.000 N 
ATOM      8  C   UNL     1       4.168   2.772  19.997  0.00  0.00    +0.000 C 
ATOM      9  O   UNL     1       5.006   1.868  19.960  0.00  0.00    +0.000 OA
ATOM     10  C   UNL     1       3.004   2.595  20.928  0.00  0.00    +0.000 C 
ATOM     11  C   UNL     1       2.428   3.881  21.430  0.00  0.00    +0.000 C 
BRANCH   7  12
ATOM     12  C   UNL     1       5.123   4.147  18.156  0.00  0.00    +0.000 A 
ATOM     13  C   UNL     1       6.392   4.701  18.396  0.00  0.00    +0.000 A 
ATOM     14  C   UNL     1       7.307   4.913  17.358  0.00  0.00    +0.000 A 
ATOM     15  C   UNL     1       6.971   4.575  16.054  0.00  0.00    +0.000 A 
ATOM     16  C   UNL     1       5.723   4.016  15.789  0.00  0.00    +0.000 A 
ATOM     17  C   UNL     1       4.814   3.796  16.831  0.00  0.00    +0.000 A 
ENDBRANCH   7  12
ENDBRANCH   2   5
BRANCH   3  18
ATOM     18  C   UNL     1       1.251   8.530  21.069  0.00  0.00    +0.000 A 
ATOM     19  C   UNL     1       0.902   9.460  20.082  0.00  0.00    +0.000 A 
ATOM     20  C   UNL     1       0.184  10.616  20.389  0.00  0.00    +0.000 A 
ATOM     21  C   UNL     1      -0.220  10.847  21.698  0.00  0.00    +0.000 A 
ATOM     22  C   UNL     1       0.116   9.940  22.707  0.00  0.00    +0.000 A 
ATOM     23  C   UNL     1       0.836   8.773  22.384  0.00  0.00    +0.000 A 
BRANCH  21  24
ATOM     24  S   UNL     1      -1.062  12.373  22.061  0.00  0.00    +0.000 S 
ATOM     25  O   UNL     1      -0.204  13.137  22.944  0.00  0.00    +0.000 OA
ATOM     26  O   UNL     1      -1.524  12.926  20.807  0.00  0.00    +0.000 OA
BRANCH  24  27
ATOM     27  N   UNL     1      -2.354  11.844  23.021  0.00  0.00    +0.000 N 
ATOM     28  C   UNL     1      -3.400  12.794  23.068  0.00  0.00    +0.000 A 
ATOM     29  N   UNL     1      -3.519  13.562  24.120  0.00  0.00    +0.000 NA
ATOM     30  C   UNL     1      -4.589  14.418  23.926  0.00  0.00    +0.000 A 
ATOM     31  C   UNL     1      -5.336  14.191  22.789  0.00  0.00    +0.000 A 
ATOM     32  S   UNL     1      -4.634  12.906  21.892  0.00  0.00    +0.000 S 
ATOM     33  H   UNL     1      -1.972  11.732  23.960  0.00  0.00    +0.000 HD
ENDBRANCH  24  27
ENDBRANCH  21  24
ENDBRANCH   3  18
TORSDOF 5
ENDMDL
MODEL 8
REMARK VINA RESULT:      -8.9      2.011      2.843
REMARK  Name = 
REMARK  5 active torsions:
REMARK  status: ('A' for Active; 'I' for Inactive)
REMARK    1  A    between atoms: C_2  and  C_19
REMARK    2  A    between atoms: N_3  and  C_4
REMARK    3  A    between atoms: C_7  and  S_8
REMARK    4  A    between atoms: S_8  and  N_11
REMARK    5  A    between atoms: N_21  and  C_22
REMARK                            x       y       z     vdW  Elec       q    Type
REMARK                         _______ _______ _______ _____ _____    ______ ____
ROOT
ATOM      1  O   UNL     1       2.156   8.173  19.135  0.00  0.00    +0.000 OA
ATOM      2  C   UNL     1       1.945   7.363  20.028  0.00  0.00    +0.000 C 
ATOM      3  N   UNL     1       1.214   7.578  21.186  0.00  0.00    +0.000 N 
ATOM      4  H   UNL     1       1.256   6.849  21.894  0.00  0.00    +0.000 HD
ENDROOT
BRANCH   2   5
ATOM      5  C   UNL     1       2.587   5.995  19.850  0.00  0.00    +0.000 C 
ATOM      6  N   UNL     1       3.438   5.786  18.887  0.00  0.00    +0.000 NA
ATOM      7  N   UNL     1       4.043   4.532  18.786  0.00  0.00    +0.000 N 
ATOM      8  C   UNL     1       3.699   3.428  19.584  0.00  0.00    +0.000 C 
ATOM      9  O   UNL     1       4.271   2.336  19.604  0.00  0.00    +0.000 OA
ATOM     10  C   UNL     1       2.485   3.587  20.450  0.00  0.00    +0.000 C 
ATOM     11  C   UNL     1       2.243   4.992  20.904  0.00  0.00    +0.000 C 
BRANCH   7  12
ATOM     12  C   UNL     1       5.074   4.457  17.782  0.00  0.00    +0.000 A 
ATOM     13  C   UNL     1       6.428   4.687  18.082  0.00  0.00    +0.000 A 
ATOM     14  C   UNL     1       7.418   4.624  17.094  0.00  0.00    +0.000 A 
ATOM     15  C   UNL     1       7.073   4.330  15.781  0.00  0.00    +0.000 A 
ATOM     16  C   UNL     1       5.740   4.089  15.458  0.00  0.00    +0.000 A 
ATOM     17  C   UNL     1       4.754   4.143  16.451  0.00  0.00    +0.000 A 
ENDBRANCH   7  12
ENDBRANCH   2   5
BRANCH   3  18
ATOM     18  C   UNL     1       0.508   8.773  21.472  0.00  0.00    +0.000 A 
ATOM     19  C   UNL     1       0.199   9.161  22.782  0.00  0.00    +0.000 A 
ATOM     20  C   UNL     1      -0.528  10.322  23.049  0.00  0.00    +0.000 A 
ATOM     21  C   UNL     1      -0.937  11.133  21.997  0.00  0.00    +0.000 A 
ATOM     22  C   UNL     1      -0.648  10.771  20.678  0.00  0.00    +0.000 A 
ATOM     23  C   UNL     1       0.091   9.600  20.422  0.00  0.00    +0.000 A 
BRANCH  21  24
ATOM     24  S   UNL     1      -1.931  12.560  22.374  0.00  0.00    +0.000 S 
ATOM     25  O   UNL     1      -2.356  13.133  21.113  0.00  0.00    +0.000 OA
ATOM     26  O   UNL     1      -2.897  12.168  23.378  0.00  0.00    +0.000 OA
BRANCH  24  27
ATOM     27  N   UNL     1      -0.782  13.635  23.003  0.00  0.00    +0.000 N 
ATOM     28  C   UNL     1      -0.027  14.256  21.982  0.00  0.00    +0.000 A 
ATOM     29  N   UNL     1       1.179  13.822  21.726  0.00  0.00    +0.000 NA
ATOM     30  C   UNL     1       1.706  14.563  20.682  0.00  0.00    +0.000 A 
ATOM     31  C   UNL     1       0.936  15.627  20.259  0.00  0.00    +0.000 A 
ATOM     32  S   UNL     1      -0.530  15.661  21.150  0.00  0.00    +0.000 S 
ATOM     33  H   UNL     1      -0.157  13.066  23.573  0.00  0.00    +0.000 HD
ENDBRANCH  24  27
ENDBRANCH  21  24
ENDBRANCH   3  18
TORSDOF 5
ENDMDL
MODEL 9
REMARK VINA RESULT:      -8.9      1.634      1.873
REMARK  Name = 
REMARK  5 active torsions:
REMARK  status: ('A' for Active; 'I' for Inactive)
REMARK    1  A    between atoms: C_2  and  C_19
REMARK    2  A    between atoms: N_3  and  C_4
REMARK    3  A    between atoms: C_7  and  S_8
REMARK    4  A    between atoms: S_8  and  N_11
REMARK    5  A    between atoms: N_21  and  C_22
REMARK                            x       y       z     vdW  Elec       q    Type
REMARK                         _______ _______ _______ _____ _____    ______ ____
ROOT
ATOM      1  O   UNL     1       2.085   8.307  19.241  0.00  0.00    +0.000 OA
ATOM      2  C   UNL     1       1.813   7.472  20.095  0.00  0.00    +0.000 C 
ATOM      3  N   UNL     1       1.018   7.661  21.214  0.00  0.00    +0.000 N 
ATOM      4  H   UNL     1       1.011   6.910  21.900  0.00  0.00    +0.000 HD
ENDROOT
BRANCH   2   5
ATOM      5  C   UNL     1       2.451   6.103  19.912  0.00  0.00    +0.000 C 
ATOM      6  N   UNL     1       3.330   5.904  18.972  0.00  0.00    +0.000 NA
ATOM      7  N   UNL     1       3.928   4.647  18.867  0.00  0.00    +0.000 N 
ATOM      8  C   UNL     1       3.552   3.533  19.634  0.00  0.00    +0.000 C 
ATOM      9  O   UNL     1       4.115   2.435  19.652  0.00  0.00    +0.000 OA
ATOM     10  C   UNL     1       2.312   3.685  20.465  0.00  0.00    +0.000 C 
ATOM     11  C   UNL     1       2.066   5.083  20.936  0.00  0.00    +0.000 C 
BRANCH   7  12
ATOM     12  C   UNL     1       4.991   4.583  17.895  0.00  0.00    +0.000 A 
ATOM     13  C   UNL     1       4.750   4.297  16.541  0.00  0.00    +0.000 A 
ATOM     14  C   UNL     1       5.793   4.224  15.610  0.00  0.00    +0.000 A 
ATOM     15  C   UNL     1       7.104   4.435  16.017  0.00  0.00    +0.000 A 
ATOM     16  C   UNL     1       7.370   4.729  17.352  0.00  0.00    +0.000 A 
ATOM     17  C   UNL     1       6.323   4.811  18.278  0.00  0.00    +0.000 A 
ENDBRANCH   7  12
ENDBRANCH   2   5
BRANCH   3  18
ATOM     18  C   UNL     1       0.309   8.855  21.495  0.00  0.00    +0.000 A 
ATOM     19  C   UNL     1      -0.049   9.220  22.800  0.00  0.00    +0.000 A 
ATOM     20  C   UNL     1      -0.778  10.380  23.060  0.00  0.00    +0.000 A 
ATOM     21  C   UNL     1      -1.141  11.214  22.009  0.00  0.00    +0.000 A 
ATOM     22  C   UNL     1      -0.802  10.876  20.696  0.00  0.00    +0.000 A 
ATOM     23  C   UNL     1      -0.061   9.705  20.446  0.00  0.00    +0.000 A 
BRANCH  21  24
ATOM     24  S   UNL     1      -2.140  12.641  22.375  0.00  0.00    +0.000 S 
ATOM     25  O   UNL     1      -2.181  13.455  21.178  0.00  0.00    +0.000 OA
ATOM     26  O   UNL     1      -3.358  12.173  23.001  0.00  0.00    +0.000 OA
BRANCH  24  27
ATOM     27  N   UNL     1      -1.162  13.486  23.472  0.00  0.00    +0.000 N 
ATOM     28  C   UNL     1      -1.740  14.719  23.851  0.00  0.00    +0.000 A 
ATOM     29  N   UNL     1      -1.304  15.823  23.302  0.00  0.00    +0.000 NA
ATOM     30  C   UNL     1      -2.030  16.887  23.810  0.00  0.00    +0.000 A 
ATOM     31  C   UNL     1      -2.910  16.578  24.826  0.00  0.00    +0.000 A 
ATOM     32  S   UNL     1      -2.881  14.886  25.111  0.00  0.00    +0.000 S 
ATOM     33  H   UNL     1      -0.291  13.670  22.976  0.00  0.00    +0.000 HD
ENDBRANCH  24  27
ENDBRANCH  21  24
ENDBRANCH   3  18
TORSDOF 5
ENDMDL
