MODEL 1
REMARK VINA RESULT:      -7.6      0.000      0.000
REMARK  Name = 
REMARK  4 active torsions:
REMARK  status: ('A' for Active; 'I' for Inactive)
REMARK    1  A    between atoms: C_2  and  C_3
REMARK    2  A    between atoms: C_7  and  N_8
REMARK    3  A    between atoms: C_9  and  C_11
REMARK    4  A    between atoms: C_15  and  C_16
REMARK                            x       y       z     vdW  Elec       q    Type
REMARK                         _______ _______ _______ _____ _____    ______ ____
ROOT
ATOM      1  N   UNL     1       5.259   4.868  16.116  0.00  0.00    +0.000 N 
ATOM      2  C   UNL     1       5.371   6.033  16.864  0.00  0.00    +0.000 C 
ATOM      3  O   UNL     1       5.821   7.102  16.468  0.00  0.00    +0.000 OA
ATOM      4  H   UNL     1       4.771   4.092  16.546  0.00  0.00    +0.000 HD
ENDROOT
BRANCH   2   5
ATOM      5  C   UNL     1       4.893   5.843  18.314  0.00  0.00    +0.000 C 
ATOM      6  C   UNL     1       5.198   4.435  18.876  0.00  0.00    +0.000 C 
ATOM      7  C   UNL     1       4.043   3.432  18.789  0.00  0.00    +0.000 C 
ATOM      8  N   UNL     1       2.785   4.053  19.176  0.00  0.00    +0.000 N 
ATOM      9  C   UNL     1       2.050   3.842  20.331  0.00  0.00    +0.000 C 
ATOM     10  C   UNL     1       2.460   2.770  21.311  0.00  0.00    +0.000 C 
ATOM     11  O   UNL     1       1.042   4.507  20.592  0.00  0.00    +0.000 OA
ATOM     12  C   UNL     1       2.421   5.169  18.312  0.00  0.00    +0.000 C 
ATOM     13  C   UNL     1       3.430   6.295  18.504  0.00  0.00    +0.000 C 
ENDBRANCH   2   5
BRANCH   1  18
ATOM     14  C   UNL     1       5.334   3.817  12.564  0.00  0.00    +0.000 A 
ATOM     15  C   UNL     1       6.677   3.984  12.230  0.00  0.00    +0.000 A 
ATOM     16  C   UNL     1       7.571   4.459  13.190  0.00  0.00    +0.000 A 
ATOM     17  C   UNL     1       7.125   4.771  14.481  0.00  0.00    +0.000 A 
ATOM     18  C   UNL     1       5.782   4.612  14.826  0.00  0.00    +0.000 A 
ATOM     19  C   UNL     1       4.891   4.126  13.856  0.00  0.00    +0.000 A 
BRANCH  14  21
ATOM     20  C   UNL     1       3.625   2.905  10.775  0.00  0.00    +0.000 C 
ATOM     21  C   UNL     1       4.407   3.319  11.589  0.00  0.00    +0.000 C 
ENDBRANCH  14  21
ENDBRANCH   1  18
TORSDOF 3
ENDMDL
MODEL 2
REMARK VINA RESULT:      -7.5      1.469      1.552
REMARK  Name = 
REMARK  4 active torsions:
REMARK  status: ('A' for Active; 'I' for Inactive)
REMARK    1  A    between atoms: C_2  and  C_3
REMARK    2  A    between atoms: C_7  and  N_8
REMARK    3  A    between atoms: C_9  and  C_11
REMARK    4  A    between atoms: C_15  and  C_16
REMARK                            x       y       z     vdW  Elec       q    Type
REMARK                         _______ _______ _______ _____ _____    ______ ____
ROOT
ATOM      1  N   UNL     1       5.314   5.017  15.630  0.00  0.00    +0.000 N 
ATOM      2  C   UNL     1       5.682   4.730  16.938  0.00  0.00    +0.000 C 
ATOM      3  O   UNL     1       6.786   4.348  17.307  0.00  0.00    +0.000 OA
ATOM      4  H   UNL     1       4.397   5.423  15.490  0.00  0.00    +0.000 HD
ENDROOT
BRANCH   2   5
ATOM      5  C   UNL     1       4.514   4.904  17.924  0.00  0.00    +0.000 C 
ATOM      6  C   UNL     1       4.818   4.344  19.332  0.00  0.00    +0.000 C 
ATOM      7  C   UNL     1       4.302   2.926  19.598  0.00  0.00    +0.000 C 
ATOM      8  N   UNL     1       2.951   2.760  19.085  0.00  0.00    +0.000 N 
ATOM      9  C   UNL     1       1.773   2.646  19.806  0.00  0.00    +0.000 C 
ATOM     10  C   UNL     1       1.807   2.551  21.312  0.00  0.00    +0.000 C 
ATOM     11  O   UNL     1       0.670   2.609  19.251  0.00  0.00    +0.000 OA
ATOM     12  C   UNL     1       2.869   2.961  17.643  0.00  0.00    +0.000 C 
ATOM     13  C   UNL     1       3.177   4.420  17.327  0.00  0.00    +0.000 C 
ENDBRANCH   2   5
BRANCH   1  18
ATOM     14  C   UNL     1       6.355   3.361  12.483  0.00  0.00    +0.000 A 
ATOM     15  C   UNL     1       7.462   4.115  12.100  0.00  0.00    +0.000 A 
ATOM     16  C   UNL     1       7.868   5.192  12.888  0.00  0.00    +0.000 A 
ATOM     17  C   UNL     1       7.167   5.520  14.055  0.00  0.00    +0.000 A 
ATOM     18  C   UNL     1       6.053   4.775  14.448  0.00  0.00    +0.000 A 
ATOM     19  C   UNL     1       5.657   3.688  13.653  0.00  0.00    +0.000 A 
BRANCH  14  21
ATOM     20  C   UNL     1       5.583   1.303  11.025  0.00  0.00    +0.000 C 
ATOM     21  C   UNL     1       5.934   2.244  11.688  0.00  0.00    +0.000 C 
ENDBRANCH  14  21
ENDBRANCH   1  18
TORSDOF 3
ENDMDL
MODEL 3
REMARK VINA RESULT:      -7.4      1.189      1.364
REMARK  Name = 
REMARK  4 active torsions:
REMARK  status: ('A' for Active; 'I' for Inactive)
REMARK    1  A    between atoms: C_2  and  C_3
REMARK    2  A    between atoms: C_7  and  N_8
REMARK    3  A    between atoms: C_9  and  C_11
REMARK    4  A    between atoms: C_15  and  C_16
REMARK                            x       y       z     vdW  Elec       q    Type
REMARK                         _______ _______ _______ _____ _____    ______ ____
ROOT
ATOM      1  N   UNL     1       5.625   4.513  16.243  0.00  0.00    +0.000 N 
ATOM      2  C   UNL     1       6.419   4.472  17.382  0.00  0.00    +0.000 C 
ATOM      3  O   UNL     1       7.642   4.552  17.409  0.00  0.00    +0.000 OA
ATOM      4  H   UNL     1       4.623   4.540  16.385  0.00  0.00    +0.000 HD
ENDROOT
BRANCH   2   5
ATOM      5  C   UNL     1       5.592   4.268  18.662  0.00  0.00    +0.000 C 
ATOM      6  C   UNL     1       4.502   3.181  18.517  0.00  0.00    +0.000 C 
ATOM      7  C   UNL     1       3.102   3.700  18.177  0.00  0.00    +0.000 C 
ATOM      8  N   UNL     1       2.778   4.877  18.970  0.00  0.00    +0.000 N 
ATOM      9  C   UNL     1       1.875   4.977  20.016  0.00  0.00    +0.000 C 
ATOM     10  C   UNL     1       0.987   3.810  20.372  0.00  0.00    +0.000 C 
ATOM     11  O   UNL     1       1.760   6.013  20.679  0.00  0.00    +0.000 OA
ATOM     12  C   UNL     1       3.693   5.985  18.729  0.00  0.00    +0.000 C 
ATOM     13  C   UNL     1       5.078   5.604  19.237  0.00  0.00    +0.000 C 
ENDBRANCH   2   5
BRANCH   1  18
ATOM     14  C   UNL     1       5.488   3.867  12.597  0.00  0.00    +0.000 A 
ATOM     15  C   UNL     1       6.747   4.285  12.172  0.00  0.00    +0.000 A 
ATOM     16  C   UNL     1       7.654   4.796  13.101  0.00  0.00    +0.000 A 
ATOM     17  C   UNL     1       7.304   4.894  14.453  0.00  0.00    +0.000 A 
ATOM     18  C   UNL     1       6.044   4.483  14.892  0.00  0.00    +0.000 A 
ATOM     19  C   UNL     1       5.140   3.963  13.951  0.00  0.00    +0.000 A 
BRANCH  14  21
ATOM     20  C   UNL     1       3.765   2.874  10.865  0.00  0.00    +0.000 C 
ATOM     21  C   UNL     1       4.551   3.330  11.654  0.00  0.00    +0.000 C 
ENDBRANCH  14  21
ENDBRANCH   1  18
TORSDOF 3
ENDMDL
MODEL 4
REMARK VINA RESULT:      -6.7      4.697      8.467
REMARK  Name = 
REMARK  4 active torsions:
REMARK  status: ('A' for Active; 'I' for Inactive)
REMARK    1  A    between atoms: C_2  and  C_3
REMARK    2  A    between atoms: C_7  and  N_8
REMARK    3  A    between atoms: C_9  and  C_11
REMARK    4  A    between atoms: C_15  and  C_16
REMARK                            x       y       z     vdW  Elec       q    Type
REMARK                         _______ _______ _______ _____ _____    ______ ____
ROOT
ATOM      1  N   UNL     1       1.551   8.075  21.147  0.00  0.00    +0.000 N 
ATOM      2  C   UNL     1       1.974   7.767  19.861  0.00  0.00    +0.000 C 
ATOM      3  O   UNL     1       1.772   8.440  18.857  0.00  0.00    +0.000 OA
ATOM      4  H   UNL     1       1.882   7.477  21.895  0.00  0.00    +0.000 HD
ENDROOT
BRANCH   2   5
ATOM      5  C   UNL     1       2.721   6.424  19.799  0.00  0.00    +0.000 C 
ATOM      6  C   UNL     1       2.925   5.907  18.356  0.00  0.00    +0.000 C 
ATOM      7  C   UNL     1       1.885   4.892  17.872  0.00  0.00    +0.000 C 
ATOM      8  N   UNL     1       1.599   3.908  18.905  0.00  0.00    +0.000 N 
ATOM      9  C   UNL     1       1.965   2.572  18.935  0.00  0.00    +0.000 C 
ATOM     10  C   UNL     1       2.641   1.940  17.742  0.00  0.00    +0.000 C 
ATOM     11  O   UNL     1       1.747   1.859  19.919  0.00  0.00    +0.000 OA
ATOM     12  C   UNL     1       1.050   4.508  20.115  0.00  0.00    +0.000 C 
ATOM     13  C   UNL     1       2.117   5.382  20.763  0.00  0.00    +0.000 C 
ENDBRANCH   2   5
BRANCH   1  18
ATOM     14  C   UNL     1      -0.410  11.213  20.950  0.00  0.00    +0.000 A 
ATOM     15  C   UNL     1      -0.998  11.278  22.211  0.00  0.00    +0.000 A 
ATOM     16  C   UNL     1      -0.751  10.267  23.140  0.00  0.00    +0.000 A 
ATOM     17  C   UNL     1       0.080   9.189  22.809  0.00  0.00    +0.000 A 
ATOM     18  C   UNL     1       0.671   9.110  21.547  0.00  0.00    +0.000 A 
ATOM     19  C   UNL     1       0.423  10.135  20.622  0.00  0.00    +0.000 A 
BRANCH  14  21
ATOM     20  C   UNL     1      -0.851  13.126  19.189  0.00  0.00    +0.000 C 
ATOM     21  C   UNL     1      -0.648  12.252  19.990  0.00  0.00    +0.000 C 
ENDBRANCH  14  21
ENDBRANCH   1  18
TORSDOF 3
ENDMDL
MODEL 5
REMARK VINA RESULT:      -6.6      1.393      1.451
REMARK  Name = 
REMARK  4 active torsions:
REMARK  status: ('A' for Active; 'I' for Inactive)
REMARK    1  A    between atoms: C_2  and  C_3
REMARK    2  A    between atoms: C_7  and  N_8
REMARK    3  A    between atoms: C_9  and  C_11
REMARK    4  A    between atoms: C_15  and  C_16
REMARK                            x       y       z     vdW  Elec       q    Type
REMARK                         _______ _______ _______ _____ _____    ______ ____
ROOT
ATOM      1  N   UNL     1       5.598   4.732  15.926  0.00  0.00    +0.000 N 
ATOM      2  C   UNL     1       5.142   3.732  16.774  0.00  0.00    +0.000 C 
ATOM      3  O   UNL     1       5.162   2.528  16.543  0.00  0.00    +0.000 OA
ATOM      4  H   UNL     1       5.613   5.675  16.295  0.00  0.00    +0.000 HD
ENDROOT
BRANCH   2   5
ATOM      5  C   UNL     1       4.546   4.297  18.074  0.00  0.00    +0.000 C 
ATOM      6  C   UNL     1       4.773   3.379  19.297  0.00  0.00    +0.000 C 
ATOM      7  C   UNL     1       3.606   2.448  19.642  0.00  0.00    +0.000 C 
ATOM      8  N   UNL     1       2.336   3.152  19.555  0.00  0.00    +0.000 N 
ATOM      9  C   UNL     1       1.506   3.544  20.594  0.00  0.00    +0.000 C 
ATOM     10  C   UNL     1       1.813   3.130  22.012  0.00  0.00    +0.000 C 
ATOM     11  O   UNL     1       0.497   4.227  20.398  0.00  0.00    +0.000 OA
ATOM     12  C   UNL     1       2.068   3.664  18.217  0.00  0.00    +0.000 C 
ATOM     13  C   UNL     1       3.084   4.752  17.889  0.00  0.00    +0.000 C 
ENDBRANCH   2   5
BRANCH   1  18
ATOM     14  C   UNL     1       5.429   3.883  12.323  0.00  0.00    +0.000 A 
ATOM     15  C   UNL     1       6.705   4.220  11.875  0.00  0.00    +0.000 A 
ATOM     16  C   UNL     1       7.634   4.743  12.775  0.00  0.00    +0.000 A 
ATOM     17  C   UNL     1       7.290   4.934  14.119  0.00  0.00    +0.000 A 
ATOM     18  C   UNL     1       6.013   4.605  14.578  0.00  0.00    +0.000 A 
ATOM     19  C   UNL     1       5.087   4.071  13.668  0.00  0.00    +0.000 A 
BRANCH  14  21
ATOM     20  C   UNL     1       3.658   2.877  10.647  0.00  0.00    +0.000 C 
ATOM     21  C   UNL     1       4.469   3.333  11.410  0.00  0.00    +0.000 C 
ENDBRANCH  14  21
ENDBRANCH   1  18
TORSDOF 3
ENDMDL
MODEL 6
REMARK VINA RESULT:      -6.5      4.506      6.246
REMARK  Name = 
REMARK  4 active torsions:
REMARK  status: ('A' for Active; 'I' for Inactive)
REMARK    1  A    between atoms: C_2  and  C_3
REMARK    2  A    between atoms: C_7  and  N_8
REMARK    3  A    between atoms: C_9  and  C_11
REMARK    4  A    between atoms: C_15  and  C_16
REMARK                            x       y       z     vdW  Elec       q    Type
REMARK                         _______ _______ _______ _____ _____    ______ ____
ROOT
ATOM      1  N   UNL     1       2.347   6.943  19.196  0.00  0.00    +0.000 N 
ATOM      2  C   UNL     1       1.996   8.175  18.662  0.00  0.00    +0.000 C 
ATOM      3  O   UNL     1       1.847   8.427  17.471  0.00  0.00    +0.000 OA
ATOM      4  H   UNL     1       2.331   6.859  20.205  0.00  0.00    +0.000 HD
ENDROOT
BRANCH   2   5
ATOM      5  C   UNL     1       1.840   9.257  19.744  0.00  0.00    +0.000 C 
ATOM      6  C   UNL     1       1.267   8.711  21.072  0.00  0.00    +0.000 C 
ATOM      7  C   UNL     1      -0.244   8.882  21.253  0.00  0.00    +0.000 C 
ATOM      8  N   UNL     1      -0.671  10.208  20.830  0.00  0.00    +0.000 N 
ATOM      9  C   UNL     1      -1.092  11.262  21.626  0.00  0.00    +0.000 C 
ATOM     10  C   UNL     1      -1.278  11.069  23.111  0.00  0.00    +0.000 C 
ATOM     11  O   UNL     1      -1.335  12.377  21.154  0.00  0.00    +0.000 OA
ATOM     12  C   UNL     1      -0.397  10.463  19.422  0.00  0.00    +0.000 C 
ATOM     13  C   UNL     1       1.112  10.507  19.209  0.00  0.00    +0.000 C 
ENDBRANCH   2   5
BRANCH   1  18
ATOM     14  C   UNL     1       4.608   4.627  17.390  0.00  0.00    +0.000 A 
ATOM     15  C   UNL     1       3.754   3.580  17.049  0.00  0.00    +0.000 A 
ATOM     16  C   UNL     1       2.412   3.635  17.427  0.00  0.00    +0.000 A 
ATOM     17  C   UNL     1       1.923   4.731  18.149  0.00  0.00    +0.000 A 
ATOM     18  C   UNL     1       2.770   5.784  18.501  0.00  0.00    +0.000 A 
ATOM     19  C   UNL     1       4.117   5.724  18.109  0.00  0.00    +0.000 A 
BRANCH  14  21
ATOM     20  C   UNL     1       7.142   4.558  16.663  0.00  0.00    +0.000 C 
ATOM     21  C   UNL     1       5.987   4.588  16.997  0.00  0.00    +0.000 C 
ENDBRANCH  14  21
ENDBRANCH   1  18
TORSDOF 3
ENDMDL
MODEL 7
REMARK VINA RESULT:      -6.5      4.535      6.424
REMARK  Name = 
REMARK  4 active torsions:
REMARK  status: ('A' for Active; 'I' for Inactive)
REMARK    1  A    between atoms: C_2  and  C_3
REMARK    2  A    between atoms: C_7  and  N_8
REMARK    3  A    between atoms: C_9  and  C_11
REMARK    4  A    between atoms: C_15  and  C_16
REMARK                            x       y       z     vdW  Elec       q    Type
REMARK                         _______ _______ _______ _____ _____    ______ ____
ROOT
ATOM      1  N   UNL     1       2.625   7.448  18.378  0.00  0.00    +0.000 N 
ATOM      2  C   UNL     1       2.023   7.875  19.554  0.00  0.00    +0.000 C 
ATOM      3  O   UNL     1       1.749   7.171  20.519  0.00  0.00    +0.000 OA
ATOM      4  H   UNL     1       2.884   8.163  17.709  0.00  0.00    +0.000 HD
ENDROOT
BRANCH   2   5
ATOM      5  C   UNL     1       1.677   9.373  19.521  0.00  0.00    +0.000 C 
ATOM      6  C   UNL     1       0.787   9.819  20.704  0.00  0.00    +0.000 C 
ATOM      7  C   UNL     1      -0.715   9.877  20.407  0.00  0.00    +0.000 C 
ATOM      8  N   UNL     1      -0.965  10.487  19.110  0.00  0.00    +0.000 N 
ATOM      9  C   UNL     1      -1.504  11.736  18.845  0.00  0.00    +0.000 C 
ATOM     10  C   UNL     1      -2.036  12.591  19.970  0.00  0.00    +0.000 C 
ATOM     11  O   UNL     1      -1.575  12.184  17.697  0.00  0.00    +0.000 OA
ATOM     12  C   UNL     1      -0.361   9.741  18.013  0.00  0.00    +0.000 C 
ATOM     13  C   UNL     1       1.156   9.816  18.138  0.00  0.00    +0.000 C 
ENDBRANCH   2   5
BRANCH   1  18
ATOM     14  C   UNL     1       4.450   4.592  16.880  0.00  0.00    +0.000 A 
ATOM     15  C   UNL     1       3.547   3.542  17.041  0.00  0.00    +0.000 A 
ATOM     16  C   UNL     1       2.320   3.779  17.660  0.00  0.00    +0.000 A 
ATOM     17  C   UNL     1       1.994   5.060  18.123  0.00  0.00    +0.000 A 
ATOM     18  C   UNL     1       2.892   6.118  17.973  0.00  0.00    +0.000 A 
ATOM     19  C   UNL     1       4.122   5.873  17.341  0.00  0.00    +0.000 A 
BRANCH  14  21
ATOM     20  C   UNL     1       6.770   4.169  15.699  0.00  0.00    +0.000 C 
ATOM     21  C   UNL     1       5.710   4.364  16.235  0.00  0.00    +0.000 C 
ENDBRANCH  14  21
ENDBRANCH   1  18
TORSDOF 3
ENDMDL
MODEL 8
REMARK VINA RESULT:      -6.5      3.511      7.870
REMARK  Name = 
REMARK  4 active torsions:
REMARK  status: ('A' for Active; 'I' for Inactive)
REMARK    1  A    between atoms: C_2  and  C_3
REMARK    2  A    between atoms: C_7  and  N_8
REMARK    3  A    between atoms: C_9  and  C_11
REMARK    4  A    between atoms: C_15  and  C_16
REMARK                            x       y       z     vdW  Elec       q    Type
REMARK                         _______ _______ _______ _____ _____    ______ ____
ROOT
ATOM      1  N   UNL     1       2.762   7.639  18.597  0.00  0.00    +0.000 N 
ATOM      2  C   UNL     1       2.987   6.373  19.120  0.00  0.00    +0.000 C 
ATOM      3  O   UNL     1       2.238   5.763  19.875  0.00  0.00    +0.000 OA
ATOM      4  H   UNL     1       3.421   7.973  17.904  0.00  0.00    +0.000 HD
ENDROOT
BRANCH   2   5
ATOM      5  C   UNL     1       4.341   5.792  18.679  0.00  0.00    +0.000 C 
ATOM      6  C   UNL     1       5.116   6.719  17.714  0.00  0.00    +0.000 C 
ATOM      7  C   UNL     1       4.949   6.400  16.225  0.00  0.00    +0.000 C 
ATOM      8  N   UNL     1       5.027   4.966  15.989  0.00  0.00    +0.000 N 
ATOM      9  C   UNL     1       6.051   4.257  15.382  0.00  0.00    +0.000 C 
ATOM     10  C   UNL     1       7.212   4.985  14.749  0.00  0.00    +0.000 C 
ATOM     11  O   UNL     1       6.046   3.023  15.328  0.00  0.00    +0.000 OA
ATOM     12  C   UNL     1       3.983   4.225  16.685  0.00  0.00    +0.000 C 
ATOM     13  C   UNL     1       4.212   4.335  18.187  0.00  0.00    +0.000 C 
ENDBRANCH   2   5
BRANCH   1  18
ATOM     14  C   UNL     1       0.352   9.487  20.720  0.00  0.00    +0.000 A 
ATOM     15  C   UNL     1      -0.333  10.265  19.789  0.00  0.00    +0.000 A 
ATOM     16  C   UNL     1       0.011  10.184  18.439  0.00  0.00    +0.000 A 
ATOM     17  C   UNL     1       1.040   9.332  18.019  0.00  0.00    +0.000 A 
ATOM     18  C   UNL     1       1.736   8.551  18.943  0.00  0.00    +0.000 A 
ATOM     19  C   UNL     1       1.379   8.632  20.299  0.00  0.00    +0.000 A 
BRANCH  14  21
ATOM     20  C   UNL     1      -0.299   9.609  23.273  0.00  0.00    +0.000 C 
ATOM     21  C   UNL     1       0.001   9.552  22.110  0.00  0.00    +0.000 C 
ENDBRANCH  14  21
ENDBRANCH   1  18
TORSDOF 3
ENDMDL
MODEL 9
REMARK VINA RESULT:      -6.4      4.423      8.068
REMARK  Name = 
REMARK  4 active torsions:
REMARK  status: ('A' for Active; 'I' for Inactive)
REMARK    1  A    between atoms: C_2  and  C_3
REMARK    2  A    between atoms: C_7  and  N_8
REMARK    3  A    between atoms: C_9  and  C_11
REMARK    4  A    between atoms: C_15  and  C_16
REMARK                            x       y       z     vdW  Elec       q    Type
REMARK                         _______ _______ _______ _____ _____    ______ ____
ROOT
ATOM      1  N   UNL     1       1.735   8.194  19.911  0.00  0.00    +0.000 N 
ATOM      2  C   UNL     1       2.472   7.579  18.907  0.00  0.00    +0.000 C 
ATOM      3  O   UNL     1       2.599   7.984  17.757  0.00  0.00    +0.000 OA
ATOM      4  H   UNL     1       1.807   7.798  20.841  0.00  0.00    +0.000 HD
ENDROOT
BRANCH   2   5
ATOM      5  C   UNL     1       3.112   6.262  19.377  0.00  0.00    +0.000 C 
ATOM      6  C   UNL     1       3.793   5.474  18.234  0.00  0.00    +0.000 C 
ATOM      7  C   UNL     1       2.942   4.367  17.604  0.00  0.00    +0.000 C 
ATOM      8  N   UNL     1       2.246   3.602  18.628  0.00  0.00    +0.000 N 
ATOM      9  C   UNL     1       2.500   2.304  19.041  0.00  0.00    +0.000 C 
ATOM     10  C   UNL     1       3.523   1.460  18.320  0.00  0.00    +0.000 C 
ATOM     11  O   UNL     1       1.900   1.795  19.994  0.00  0.00    +0.000 OA
ATOM     12  C   UNL     1       1.333   4.419  19.417  0.00  0.00    +0.000 C 
ATOM     13  C   UNL     1       2.142   5.421  20.233  0.00  0.00    +0.000 C 
ENDBRANCH   2   5
BRANCH   1  18
ATOM     14  C   UNL     1      -0.589  10.889  20.943  0.00  0.00    +0.000 A 
ATOM     15  C   UNL     1      -0.970  11.439  19.722  0.00  0.00    +0.000 A 
ATOM     16  C   UNL     1      -0.447  10.919  18.538  0.00  0.00    +0.000 A 
ATOM     17  C   UNL     1       0.460   9.852  18.573  0.00  0.00    +0.000 A 
ATOM     18  C   UNL     1       0.854   9.295  19.791  0.00  0.00    +0.000 A 
ATOM     19  C   UNL     1       0.316   9.820  20.977  0.00  0.00    +0.000 A 
BRANCH  14  21
ATOM     20  C   UNL     1      -1.584  11.847  23.190  0.00  0.00    +0.000 C 
ATOM     21  C   UNL     1      -1.128  11.408  22.167  0.00  0.00    +0.000 C 
ENDBRANCH  14  21
ENDBRANCH   1  18
TORSDOF 3
ENDMDL
