MODEL 1
REMARK VINA RESULT:      -9.4      0.000      0.000
REMARK  Name = 
REMARK  7 active torsions:
REMARK  status: ('A' for Active; 'I' for Inactive)
REMARK    1  A    between atoms: C_1  and  C_2
REMARK    2  A    between atoms: C_5  and  C_6
REMARK    3  A    between atoms: C_10  and  C_12
REMARK    4  A    between atoms: C_15  and  C_16
REMARK    5  A    between atoms: C_22  and  C_23
REMARK    6  A    between atoms: C_25  and  C_26
REMARK    7  A    between atoms: C_26  and  C_27
REMARK                            x       y       z     vdW  Elec       q    Type
REMARK                         _______ _______ _______ _____ _____    ______ ____
ROOT
ATOM      1  C   UNL     1       2.142   5.351  21.027  0.00  0.00    +0.000 C 
ATOM      2  C   UNL     1       1.910   6.665  20.320  0.00  0.00    +0.000 A 
ATOM      3  C   UNL     1       1.051   7.577  20.957  0.00  0.00    +0.000 A 
ATOM      4  C   UNL     1       0.823   8.842  20.426  0.00  0.00    +0.000 A 
ATOM      5  C   UNL     1       1.458   9.230  19.250  0.00  0.00    +0.000 A 
ATOM      6  C   UNL     1       2.273   8.305  18.571  0.00  0.00    +0.000 A 
ATOM      7  C   UNL     1       2.504   7.000  19.075  0.00  0.00    +0.000 A 
ENDROOT
BRANCH   5   8
ATOM      8  C   UNL     1       1.192  10.587  18.668  0.00  0.00    +0.000 C 
ATOM      9  O   UNL     1       2.124  11.236  18.204  0.00  0.00    +0.000 OA
ATOM     10  N   UNL     1      -0.131  11.010  18.629  0.00  0.00    +0.000 N 
ATOM     11  C   UNL     1      -0.624  12.228  18.072  0.00  0.00    +0.000 C 
ATOM     12  C   UNL     1      -1.489  12.657  19.297  0.00  0.00    +0.000 C 
ATOM     13  F   UNL     1      -0.820  13.855  19.438  0.00  0.00    +0.000 F 
ATOM     14  C   UNL     1      -1.014  11.108  19.741  0.00  0.00    +0.000 C 
BRANCH  12  15
ATOM     15  C   UNL     1      -2.181  12.893  20.739  0.00  0.00    +0.000 A 
ATOM     16  C   UNL     1      -3.595  12.748  20.855  0.00  0.00    +0.000 A 
ATOM     17  C   UNL     1      -4.263  12.687  22.080  0.00  0.00    +0.000 A 
ATOM     18  C   UNL     1      -3.530  12.774  23.255  0.00  0.00    +0.000 A 
ATOM     19  C   UNL     1      -2.150  12.996  23.191  0.00  0.00    +0.000 A 
ATOM     20  C   UNL     1      -1.488  13.062  21.951  0.00  0.00    +0.000 A 
BRANCH  18  21
ATOM     21  C   UNL     1      -4.187  12.587  24.517  0.00  0.00    +0.000 C 
ATOM     22  N   UNL     1      -4.721  12.467  25.538  0.00  0.00    +0.000 NA
ENDBRANCH  18  21
ENDBRANCH  12  15
ENDBRANCH   5   8
BRANCH   7  23
ATOM     23  C   UNL     1       3.321   6.029  18.305  0.00  0.00    +0.000 A 
ATOM     24  N   UNL     1       4.677   6.151  18.159  0.00  0.00    +0.000 N 
ATOM     25  C   UNL     1       5.155   5.174  17.313  0.00  0.00    +0.000 A 
ATOM     26  N   UNL     1       4.179   4.345  17.023  0.00  0.00    +0.000 NA
ATOM     27  C   UNL     1       3.054   4.841  17.643  0.00  0.00    +0.000 A 
ATOM     28 CL   UNL     1       1.551   4.027  17.500  0.00  0.00    +0.000 Cl
ATOM     29  H   UNL     1       5.255   6.890  18.554  0.00  0.00    +0.000 HD
BRANCH  25  30
ATOM     30  C   UNL     1       6.587   5.155  16.795  0.00  0.00    +0.000 C 
ATOM     31  C   UNL     1       6.655   4.180  15.597  0.00  0.00    +0.000 C 
ATOM     32  C   UNL     1       7.051   6.554  16.342  0.00  0.00    +0.000 C 
ATOM     33  C   UNL     1       7.285   7.483  17.527  0.00  0.00    +0.000 C 
ATOM     34  O   UNL     1       8.238   6.918  18.421  0.00  0.00    +0.000 OA
ATOM     35  C   UNL     1       7.782   5.686  18.982  0.00  0.00    +0.000 C 
ATOM     36  C   UNL     1       7.567   4.649  17.884  0.00  0.00    +0.000 C 
ENDBRANCH  25  30
ENDBRANCH   7  23
TORSDOF 5
ENDMDL
MODEL 2
REMARK VINA RESULT:      -9.2      3.484     10.662
REMARK  Name = 
REMARK  7 active torsions:
REMARK  status: ('A' for Active; 'I' for Inactive)
REMARK    1  A    between atoms: C_1  and  C_2
REMARK    2  A    between atoms: C_5  and  C_6
REMARK    3  A    between atoms: C_10  and  C_12
REMARK    4  A    between atoms: C_15  and  C_16
REMARK    5  A    between atoms: C_22  and  C_23
REMARK    6  A    between atoms: C_25  and  C_26
REMARK    7  A    between atoms: C_26  and  C_27
REMARK                            x       y       z     vdW  Elec       q    Type
REMARK                         _______ _______ _______ _____ _____    ______ ____
ROOT
ATOM      1  C   UNL     1      -0.527  13.659  18.270  0.00  0.00    +0.000 C 
ATOM      2  C   UNL     1      -0.146  12.347  18.912  0.00  0.00    +0.000 A 
ATOM      3  C   UNL     1       1.154  12.259  19.438  0.00  0.00    +0.000 A 
ATOM      4  C   UNL     1       1.585  11.120  20.110  0.00  0.00    +0.000 A 
ATOM      5  C   UNL     1       0.719  10.045  20.284  0.00  0.00    +0.000 A 
ATOM      6  C   UNL     1      -0.566  10.096  19.710  0.00  0.00    +0.000 A 
ATOM      7  C   UNL     1      -1.022  11.233  18.998  0.00  0.00    +0.000 A 
ENDROOT
BRANCH   5   8
ATOM      8  C   UNL     1       1.193   8.809  20.990  0.00  0.00    +0.000 C 
ATOM      9  O   UNL     1       1.559   8.885  22.158  0.00  0.00    +0.000 OA
ATOM     10  N   UNL     1       1.127   7.613  20.284  0.00  0.00    +0.000 N 
ATOM     11  C   UNL     1       1.465   6.314  20.768  0.00  0.00    +0.000 C 
ATOM     12  C   UNL     1       2.376   5.900  19.572  0.00  0.00    +0.000 C 
ATOM     13  F   UNL     1       3.466   5.680  20.388  0.00  0.00    +0.000 F 
ATOM     14  C   UNL     1       1.728   7.349  19.022  0.00  0.00    +0.000 C 
BRANCH  12  15
ATOM     15  C   UNL     1       3.345   5.806  18.280  0.00  0.00    +0.000 A 
ATOM     16  C   UNL     1       4.295   6.846  18.056  0.00  0.00    +0.000 A 
ATOM     17  C   UNL     1       5.332   6.750  17.126  0.00  0.00    +0.000 A 
ATOM     18  C   UNL     1       5.459   5.595  16.370  0.00  0.00    +0.000 A 
ATOM     19  C   UNL     1       4.505   4.579  16.498  0.00  0.00    +0.000 A 
ATOM     20  C   UNL     1       3.459   4.688  17.435  0.00  0.00    +0.000 A 
BRANCH  18  21
ATOM     21  C   UNL     1       6.591   5.433  15.504  0.00  0.00    +0.000 C 
ATOM     22  N   UNL     1       7.522   5.321  14.822  0.00  0.00    +0.000 NA
ENDBRANCH  18  21
ENDBRANCH  12  15
ENDBRANCH   5   8
BRANCH   7  23
ATOM     23  C   UNL     1      -2.361  11.232  18.355  0.00  0.00    +0.000 A 
ATOM     24  N   UNL     1      -3.387  12.034  18.777  0.00  0.00    +0.000 N 
ATOM     25  C   UNL     1      -4.535  11.750  18.071  0.00  0.00    +0.000 A 
ATOM     26  N   UNL     1      -4.250  10.894  17.117  0.00  0.00    +0.000 NA
ATOM     27  C   UNL     1      -2.915  10.586  17.262  0.00  0.00    +0.000 A 
ATOM     28 CL   UNL     1      -2.155   9.485  16.188  0.00  0.00    +0.000 Cl
ATOM     29  H   UNL     1      -3.346  12.701  19.546  0.00  0.00    +0.000 HD
BRANCH  25  30
ATOM     30  C   UNL     1      -5.896  12.330  18.433  0.00  0.00    +0.000 C 
ATOM     31  C   UNL     1      -6.342  13.269  17.288  0.00  0.00    +0.000 C 
ATOM     32  C   UNL     1      -6.956  11.226  18.629  0.00  0.00    +0.000 C 
ATOM     33  C   UNL     1      -6.727  10.447  19.919  0.00  0.00    +0.000 C 
ATOM     34  O   UNL     1      -6.725  11.327  21.037  0.00  0.00    +0.000 OA
ATOM     35  C   UNL     1      -5.661  12.279  20.969  0.00  0.00    +0.000 C 
ATOM     36  C   UNL     1      -5.818  13.164  19.737  0.00  0.00    +0.000 C 
ENDBRANCH  25  30
ENDBRANCH   7  23
TORSDOF 5
ENDMDL
MODEL 3
REMARK VINA RESULT:      -8.9      3.491     10.969
REMARK  Name = 
REMARK  7 active torsions:
REMARK  status: ('A' for Active; 'I' for Inactive)
REMARK    1  A    between atoms: C_1  and  C_2
REMARK    2  A    between atoms: C_5  and  C_6
REMARK    3  A    between atoms: C_10  and  C_12
REMARK    4  A    between atoms: C_15  and  C_16
REMARK    5  A    between atoms: C_22  and  C_23
REMARK    6  A    between atoms: C_25  and  C_26
REMARK    7  A    between atoms: C_26  and  C_27
REMARK                            x       y       z     vdW  Elec       q    Type
REMARK                         _______ _______ _______ _____ _____    ______ ____
ROOT
ATOM      1  C   UNL     1       1.109  11.594  18.618  0.00  0.00    +0.000 C 
ATOM      2  C   UNL     1       1.303  10.156  19.033  0.00  0.00    +0.000 A 
ATOM      3  C   UNL     1       1.951   9.317  18.110  0.00  0.00    +0.000 A 
ATOM      4  C   UNL     1       2.240   7.993  18.419  0.00  0.00    +0.000 A 
ATOM      5  C   UNL     1       1.899   7.477  19.665  0.00  0.00    +0.000 A 
ATOM      6  C   UNL     1       1.196   8.288  20.576  0.00  0.00    +0.000 A 
ATOM      7  C   UNL     1       0.866   9.634  20.279  0.00  0.00    +0.000 A 
ENDROOT
BRANCH   5   8
ATOM      8  C   UNL     1       2.192   6.041  19.988  0.00  0.00    +0.000 C 
ATOM      9  O   UNL     1       2.271   5.691  21.160  0.00  0.00    +0.000 OA
ATOM     10  N   UNL     1       2.294   5.161  18.917  0.00  0.00    +0.000 N 
ATOM     11  C   UNL     1       2.508   3.752  18.986  0.00  0.00    +0.000 C 
ATOM     12  C   UNL     1       3.676   3.689  17.954  0.00  0.00    +0.000 C 
ATOM     13  F   UNL     1       4.542   3.120  18.864  0.00  0.00    +0.000 F 
ATOM     14  C   UNL     1       3.177   5.287  17.808  0.00  0.00    +0.000 C 
BRANCH  12  15
ATOM     15  C   UNL     1       4.923   3.955  16.959  0.00  0.00    +0.000 A 
ATOM     16  C   UNL     1       4.758   3.700  15.565  0.00  0.00    +0.000 A 
ATOM     17  C   UNL     1       5.670   4.118  14.595  0.00  0.00    +0.000 A 
ATOM     18  C   UNL     1       6.803   4.815  14.987  0.00  0.00    +0.000 A 
ATOM     19  C   UNL     1       7.049   5.020  16.349  0.00  0.00    +0.000 A 
ATOM     20  C   UNL     1       6.125   4.589  17.320  0.00  0.00    +0.000 A 
BRANCH  18  21
ATOM     21  C   UNL     1       7.683   5.358  13.992  0.00  0.00    +0.000 C 
ATOM     22  N   UNL     1       8.369   5.813  13.176  0.00  0.00    +0.000 NA
ENDBRANCH  18  21
ENDBRANCH  12  15
ENDBRANCH   5   8
BRANCH   7  23
ATOM     23  C   UNL     1       0.072  10.444  21.237  0.00  0.00    +0.000 A 
ATOM     24  N   UNL     1      -0.700  11.507  20.848  0.00  0.00    +0.000 N 
ATOM     25  C   UNL     1      -1.237  12.134  21.951  0.00  0.00    +0.000 A 
ATOM     26  N   UNL     1      -0.954  11.431  23.023  0.00  0.00    +0.000 NA
ATOM     27  C   UNL     1      -0.173  10.379  22.599  0.00  0.00    +0.000 A 
ATOM     28 CL   UNL     1       0.408   9.219  23.721  0.00  0.00    +0.000 Cl
ATOM     29  H   UNL     1      -0.816  11.842  19.894  0.00  0.00    +0.000 HD
BRANCH  25  30
ATOM     30  C   UNL     1      -1.982  13.459  21.870  0.00  0.00    +0.000 C 
ATOM     31  C   UNL     1      -0.941  14.602  21.879  0.00  0.00    +0.000 C 
ATOM     32  C   UNL     1      -2.837  13.559  20.589  0.00  0.00    +0.000 C 
ATOM     33  C   UNL     1      -4.059  12.651  20.654  0.00  0.00    +0.000 C 
ATOM     34  O   UNL     1      -4.850  12.965  21.795  0.00  0.00    +0.000 OA
ATOM     35  C   UNL     1      -4.142  12.744  23.017  0.00  0.00    +0.000 C 
ATOM     36  C   UNL     1      -2.917  13.649  23.091  0.00  0.00    +0.000 C 
ENDBRANCH  25  30
ENDBRANCH   7  23
TORSDOF 5
ENDMDL
MODEL 4
REMARK VINA RESULT:      -8.8      3.564     10.841
REMARK  Name = 
REMARK  7 active torsions:
REMARK  status: ('A' for Active; 'I' for Inactive)
REMARK    1  A    between atoms: C_1  and  C_2
REMARK    2  A    between atoms: C_5  and  C_6
REMARK    3  A    between atoms: C_10  and  C_12
REMARK    4  A    between atoms: C_15  and  C_16
REMARK    5  A    between atoms: C_22  and  C_23
REMARK    6  A    between atoms: C_25  and  C_26
REMARK    7  A    between atoms: C_26  and  C_27
REMARK                            x       y       z     vdW  Elec       q    Type
REMARK                         _______ _______ _______ _____ _____    ______ ____
ROOT
ATOM      1  C   UNL     1      -0.564  13.587  18.188  0.00  0.00    +0.000 C 
ATOM      2  C   UNL     1      -0.172  12.284  18.842  0.00  0.00    +0.000 A 
ATOM      3  C   UNL     1       1.169  12.161  19.243  0.00  0.00    +0.000 A 
ATOM      4  C   UNL     1       1.619  11.030  19.916  0.00  0.00    +0.000 A 
ATOM      5  C   UNL     1       0.734   9.998  20.215  0.00  0.00    +0.000 A 
ATOM      6  C   UNL     1      -0.598  10.082  19.765  0.00  0.00    +0.000 A 
ATOM      7  C   UNL     1      -1.078  11.212  19.056  0.00  0.00    +0.000 A 
ENDROOT
BRANCH   5   8
ATOM      8  C   UNL     1       1.227   8.770  20.920  0.00  0.00    +0.000 C 
ATOM      9  O   UNL     1       1.606   8.854  22.084  0.00  0.00    +0.000 OA
ATOM     10  N   UNL     1       1.163   7.570  20.221  0.00  0.00    +0.000 N 
ATOM     11  C   UNL     1       1.519   6.277  20.707  0.00  0.00    +0.000 C 
ATOM     12  C   UNL     1       2.419   5.865  19.502  0.00  0.00    +0.000 C 
ATOM     13  F   UNL     1       3.520   5.658  20.306  0.00  0.00    +0.000 F 
ATOM     14  C   UNL     1       1.752   7.306  18.953  0.00  0.00    +0.000 C 
BRANCH  12  15
ATOM     15  C   UNL     1       3.374   5.774  18.200  0.00  0.00    +0.000 A 
ATOM     16  C   UNL     1       4.343   6.797  17.984  0.00  0.00    +0.000 A 
ATOM     17  C   UNL     1       5.370   6.697  17.043  0.00  0.00    +0.000 A 
ATOM     18  C   UNL     1       5.465   5.552  16.266  0.00  0.00    +0.000 A 
ATOM     19  C   UNL     1       4.491   4.555  16.385  0.00  0.00    +0.000 A 
ATOM     20  C   UNL     1       3.456   4.669  17.333  0.00  0.00    +0.000 A 
BRANCH  18  21
ATOM     21  C   UNL     1       6.585   5.382  15.386  0.00  0.00    +0.000 C 
ATOM     22  N   UNL     1       7.509   5.255  14.698  0.00  0.00    +0.000 NA
ENDBRANCH  18  21
ENDBRANCH  12  15
ENDBRANCH   5   8
BRANCH   7  23
ATOM     23  C   UNL     1      -2.471  11.244  18.545  0.00  0.00    +0.000 A 
ATOM     24  N   UNL     1      -3.515  11.758  19.267  0.00  0.00    +0.000 N 
ATOM     25  C   UNL     1      -4.701  11.562  18.596  0.00  0.00    +0.000 A 
ATOM     26  N   UNL     1      -4.443  11.068  17.406  0.00  0.00    +0.000 NA
ATOM     27  C   UNL     1      -3.079  10.890  17.351  0.00  0.00    +0.000 A 
ATOM     28 CL   UNL     1      -2.341  10.254  15.938  0.00  0.00    +0.000 Cl
ATOM     29  H   UNL     1      -3.452  12.167  20.198  0.00  0.00    +0.000 HD
BRANCH  25  30
ATOM     30  C   UNL     1      -6.062  11.845  19.217  0.00  0.00    +0.000 C 
ATOM     31  C   UNL     1      -6.649  10.509  19.729  0.00  0.00    +0.000 C 
ATOM     32  C   UNL     1      -5.960  12.840  20.392  0.00  0.00    +0.000 C 
ATOM     33  C   UNL     1      -5.667  14.255  19.909  0.00  0.00    +0.000 C 
ATOM     34  O   UNL     1      -6.668  14.684  18.992  0.00  0.00    +0.000 OA
ATOM     35  C   UNL     1      -6.698  13.875  17.815  0.00  0.00    +0.000 C 
ATOM     36  C   UNL     1      -7.042  12.432  18.170  0.00  0.00    +0.000 C 
ENDBRANCH  25  30
ENDBRANCH   7  23
TORSDOF 5
ENDMDL
MODEL 5
REMARK VINA RESULT:      -8.8      3.425     10.822
REMARK  Name = 
REMARK  7 active torsions:
REMARK  status: ('A' for Active; 'I' for Inactive)
REMARK    1  A    between atoms: C_1  and  C_2
REMARK    2  A    between atoms: C_5  and  C_6
REMARK    3  A    between atoms: C_10  and  C_12
REMARK    4  A    between atoms: C_15  and  C_16
REMARK    5  A    between atoms: C_22  and  C_23
REMARK    6  A    between atoms: C_25  and  C_26
REMARK    7  A    between atoms: C_26  and  C_27
REMARK                            x       y       z     vdW  Elec       q    Type
REMARK                         _______ _______ _______ _____ _____    ______ ____
ROOT
ATOM      1  C   UNL     1       0.948  11.483  18.619  0.00  0.00    +0.000 C 
ATOM      2  C   UNL     1       1.191  10.053  19.037  0.00  0.00    +0.000 A 
ATOM      3  C   UNL     1       1.857   9.233  18.110  0.00  0.00    +0.000 A 
ATOM      4  C   UNL     1       2.192   7.919  18.420  0.00  0.00    +0.000 A 
ATOM      5  C   UNL     1       1.879   7.397  19.671  0.00  0.00    +0.000 A 
ATOM      6  C   UNL     1       1.159   8.188  20.587  0.00  0.00    +0.000 A 
ATOM      7  C   UNL     1       0.783   9.522  20.288  0.00  0.00    +0.000 A 
ENDROOT
BRANCH   5   8
ATOM      8  C   UNL     1       2.221   5.973  19.995  0.00  0.00    +0.000 C 
ATOM      9  O   UNL     1       2.306   5.625  21.168  0.00  0.00    +0.000 OA
ATOM     10  N   UNL     1       2.359   5.097  18.925  0.00  0.00    +0.000 N 
ATOM     11  C   UNL     1       2.622   3.696  18.995  0.00  0.00    +0.000 C 
ATOM     12  C   UNL     1       3.797   3.675  17.968  0.00  0.00    +0.000 C 
ATOM     13  F   UNL     1       4.678   3.136  18.883  0.00  0.00    +0.000 F 
ATOM     14  C   UNL     1       3.243   5.254  17.821  0.00  0.00    +0.000 C 
BRANCH  12  15
ATOM     15  C   UNL     1       5.038   3.984  16.979  0.00  0.00    +0.000 A 
ATOM     16  C   UNL     1       4.956   3.564  15.619  0.00  0.00    +0.000 A 
ATOM     17  C   UNL     1       5.846   3.985  14.630  0.00  0.00    +0.000 A 
ATOM     18  C   UNL     1       6.873   4.854  14.969  0.00  0.00    +0.000 A 
ATOM     19  C   UNL     1       7.042   5.232  16.306  0.00  0.00    +0.000 A 
ATOM     20  C   UNL     1       6.142   4.796  17.297  0.00  0.00    +0.000 A 
BRANCH  18  21
ATOM     21  C   UNL     1       7.716   5.393  13.941  0.00  0.00    +0.000 C 
ATOM     22  N   UNL     1       8.411   5.847  13.133  0.00  0.00    +0.000 NA
ENDBRANCH  18  21
ENDBRANCH  12  15
ENDBRANCH   5   8
BRANCH   7  23
ATOM     23  C   UNL     1      -0.027  10.309  21.252  0.00  0.00    +0.000 A 
ATOM     24  N   UNL     1      -0.901  11.288  20.860  0.00  0.00    +0.000 N 
ATOM     25  C   UNL     1      -1.434  11.920  21.961  0.00  0.00    +0.000 A 
ATOM     26  N   UNL     1      -1.043  11.292  23.046  0.00  0.00    +0.000 NA
ATOM     27  C   UNL     1      -0.200  10.287  22.627  0.00  0.00    +0.000 A 
ATOM     28 CL   UNL     1       0.527   9.229  23.764  0.00  0.00    +0.000 Cl
ATOM     29  H   UNL     1      -1.090  11.569  19.899  0.00  0.00    +0.000 HD
BRANCH  25  30
ATOM     30  C   UNL     1      -2.288  13.177  21.864  0.00  0.00    +0.000 C 
ATOM     31  C   UNL     1      -3.774  12.753  21.831  0.00  0.00    +0.000 C 
ATOM     32  C   UNL     1      -2.054  14.123  23.060  0.00  0.00    +0.000 C 
ATOM     33  C   UNL     1      -0.693  14.805  22.983  0.00  0.00    +0.000 C 
ATOM     34  O   UNL     1      -0.565  15.523  21.761  0.00  0.00    +0.000 OA
ATOM     35  C   UNL     1      -0.628  14.660  20.623  0.00  0.00    +0.000 C 
ATOM     36  C   UNL     1      -1.981  13.960  20.561  0.00  0.00    +0.000 C 
ENDBRANCH  25  30
ENDBRANCH   7  23
TORSDOF 5
ENDMDL
MODEL 6
REMARK VINA RESULT:      -8.7      1.300      1.704
REMARK  Name = 
REMARK  7 active torsions:
REMARK  status: ('A' for Active; 'I' for Inactive)
REMARK    1  A    between atoms: C_1  and  C_2
REMARK    2  A    between atoms: C_5  and  C_6
REMARK    3  A    between atoms: C_10  and  C_12
REMARK    4  A    between atoms: C_15  and  C_16
REMARK    5  A    between atoms: C_22  and  C_23
REMARK    6  A    between atoms: C_25  and  C_26
REMARK    7  A    between atoms: C_26  and  C_27
REMARK                            x       y       z     vdW  Elec       q    Type
REMARK                         _______ _______ _______ _____ _____    ______ ____
ROOT
ATOM      1  C   UNL     1       2.036   5.409  20.975  0.00  0.00    +0.000 C 
ATOM      2  C   UNL     1       1.859   6.726  20.258  0.00  0.00    +0.000 A 
ATOM      3  C   UNL     1       0.996   7.658  20.860  0.00  0.00    +0.000 A 
ATOM      4  C   UNL     1       0.816   8.926  20.318  0.00  0.00    +0.000 A 
ATOM      5  C   UNL     1       1.505   9.298  19.168  0.00  0.00    +0.000 A 
ATOM      6  C   UNL     1       2.326   8.354  18.522  0.00  0.00    +0.000 A 
ATOM      7  C   UNL     1       2.509   7.046  19.037  0.00  0.00    +0.000 A 
ENDROOT
BRANCH   5   8
ATOM      8  C   UNL     1       1.291  10.659  18.574  0.00  0.00    +0.000 C 
ATOM      9  O   UNL     1       2.098  11.094  17.760  0.00  0.00    +0.000 OA
ATOM     10  N   UNL     1       0.133  11.334  18.940  0.00  0.00    +0.000 N 
ATOM     11  C   UNL     1      -0.305  12.605  18.461  0.00  0.00    +0.000 C 
ATOM     12  C   UNL     1      -0.599  13.240  19.855  0.00  0.00    +0.000 C 
ATOM     13  F   UNL     1       0.274  14.285  19.639  0.00  0.00    +0.000 F 
ATOM     14  C   UNL     1      -0.274  11.644  20.268  0.00  0.00    +0.000 C 
BRANCH  12  15
ATOM     15  C   UNL     1      -0.690  13.659  21.414  0.00  0.00    +0.000 A 
ATOM     16  C   UNL     1      -0.009  14.833  21.852  0.00  0.00    +0.000 A 
ATOM     17  C   UNL     1      -0.215  15.418  23.102  0.00  0.00    +0.000 A 
ATOM     18  C   UNL     1      -1.120  14.839  23.980  0.00  0.00    +0.000 A 
ATOM     19  C   UNL     1      -1.753  13.643  23.626  0.00  0.00    +0.000 A 
ATOM     20  C   UNL     1      -1.534  13.057  22.364  0.00  0.00    +0.000 A 
BRANCH  18  21
ATOM     21  C   UNL     1      -1.434  15.499  25.215  0.00  0.00    +0.000 C 
ATOM     22  N   UNL     1      -1.714  16.015  26.214  0.00  0.00    +0.000 NA
ENDBRANCH  18  21
ENDBRANCH  12  15
ENDBRANCH   5   8
BRANCH   7  23
ATOM     23  C   UNL     1       3.334   6.055  18.300  0.00  0.00    +0.000 A 
ATOM     24  N   UNL     1       4.693   6.166  18.179  0.00  0.00    +0.000 N 
ATOM     25  C   UNL     1       5.181   5.171  17.361  0.00  0.00    +0.000 A 
ATOM     26  N   UNL     1       4.206   4.343  17.065  0.00  0.00    +0.000 NA
ATOM     27  C   UNL     1       3.072   4.858  17.654  0.00  0.00    +0.000 A 
ATOM     28 CL   UNL     1       1.566   4.051  17.495  0.00  0.00    +0.000 Cl
ATOM     29  H   UNL     1       5.269   6.908  18.573  0.00  0.00    +0.000 HD
BRANCH  25  30
ATOM     30  C   UNL     1       6.623   5.133  16.872  0.00  0.00    +0.000 C 
ATOM     31  C   UNL     1       6.707   4.144  15.687  0.00  0.00    +0.000 C 
ATOM     32  C   UNL     1       7.109   6.523  16.411  0.00  0.00    +0.000 C 
ATOM     33  C   UNL     1       7.327   7.464  17.590  0.00  0.00    +0.000 C 
ATOM     34  O   UNL     1       8.257   6.901  18.509  0.00  0.00    +0.000 OA
ATOM     35  C   UNL     1       7.779   5.679  19.076  0.00  0.00    +0.000 C 
ATOM     36  C   UNL     1       7.576   4.632  17.986  0.00  0.00    +0.000 C 
ENDBRANCH  25  30
ENDBRANCH   7  23
TORSDOF 5
ENDMDL
MODEL 7
REMARK VINA RESULT:      -8.6      3.668     11.050
REMARK  Name = 
REMARK  7 active torsions:
REMARK  status: ('A' for Active; 'I' for Inactive)
REMARK    1  A    between atoms: C_1  and  C_2
REMARK    2  A    between atoms: C_5  and  C_6
REMARK    3  A    between atoms: C_10  and  C_12
REMARK    4  A    between atoms: C_15  and  C_16
REMARK    5  A    between atoms: C_22  and  C_23
REMARK    6  A    between atoms: C_25  and  C_26
REMARK    7  A    between atoms: C_26  and  C_27
REMARK                            x       y       z     vdW  Elec       q    Type
REMARK                         _______ _______ _______ _____ _____    ______ ____
ROOT
ATOM      1  C   UNL     1      -0.665  13.152  18.208  0.00  0.00    +0.000 C 
ATOM      2  C   UNL     1      -0.240  11.906  18.947  0.00  0.00    +0.000 A 
ATOM      3  C   UNL     1       0.913  11.257  18.473  0.00  0.00    +0.000 A 
ATOM      4  C   UNL     1       1.430  10.141  19.122  0.00  0.00    +0.000 A 
ATOM      5  C   UNL     1       0.812   9.653  20.269  0.00  0.00    +0.000 A 
ATOM      6  C   UNL     1      -0.377  10.257  20.720  0.00  0.00    +0.000 A 
ATOM      7  C   UNL     1      -0.941  11.380  20.064  0.00  0.00    +0.000 A 
ENDROOT
BRANCH   5   8
ATOM      8  C   UNL     1       1.359   8.436  20.954  0.00  0.00    +0.000 C 
ATOM      9  O   UNL     1       1.758   8.523  22.111  0.00  0.00    +0.000 OA
ATOM     10  N   UNL     1       1.320   7.241  20.246  0.00  0.00    +0.000 N 
ATOM     11  C   UNL     1       1.727   5.955  20.713  0.00  0.00    +0.000 C 
ATOM     12  C   UNL     1       2.616   5.583  19.487  0.00  0.00    +0.000 C 
ATOM     13  F   UNL     1       3.739   5.406  20.267  0.00  0.00    +0.000 F 
ATOM     14  C   UNL     1       1.892   7.006  18.964  0.00  0.00    +0.000 C 
BRANCH  12  15
ATOM     15  C   UNL     1       3.547   5.534  18.165  0.00  0.00    +0.000 A 
ATOM     16  C   UNL     1       4.441   6.616  17.913  0.00  0.00    +0.000 A 
ATOM     17  C   UNL     1       5.451   6.568  16.951  0.00  0.00    +0.000 A 
ATOM     18  C   UNL     1       5.607   5.420  16.189  0.00  0.00    +0.000 A 
ATOM     19  C   UNL     1       4.704   4.362  16.346  0.00  0.00    +0.000 A 
ATOM     20  C   UNL     1       3.685   4.422  17.314  0.00  0.00    +0.000 A 
BRANCH  18  21
ATOM     21  C   UNL     1       6.717   5.310  15.287  0.00  0.00    +0.000 C 
ATOM     22  N   UNL     1       7.594   5.219  14.535  0.00  0.00    +0.000 NA
ENDBRANCH  18  21
ENDBRANCH  12  15
ENDBRANCH   5   8
BRANCH   7  23
ATOM     23  C   UNL     1      -2.228  11.957  20.530  0.00  0.00    +0.000 A 
ATOM     24  N   UNL     1      -3.352  11.988  19.749  0.00  0.00    +0.000 N 
ATOM     25  C   UNL     1      -4.361  12.669  20.392  0.00  0.00    +0.000 A 
ATOM     26  N   UNL     1      -3.972  12.956  21.614  0.00  0.00    +0.000 NA
ATOM     27  C   UNL     1      -2.676  12.504  21.721  0.00  0.00    +0.000 A 
ATOM     28 CL   UNL     1      -1.807  12.695  23.188  0.00  0.00    +0.000 Cl
ATOM     29  H   UNL     1      -3.429  11.625  18.800  0.00  0.00    +0.000 HD
BRANCH  25  30
ATOM     30  C   UNL     1      -5.671  13.045  19.714  0.00  0.00    +0.000 C 
ATOM     31  C   UNL     1      -5.820  14.583  19.764  0.00  0.00    +0.000 C 
ATOM     32  C   UNL     1      -5.711  12.577  18.244  0.00  0.00    +0.000 C 
ATOM     33  C   UNL     1      -5.862  11.064  18.137  0.00  0.00    +0.000 C 
ATOM     34  O   UNL     1      -7.034  10.633  18.819  0.00  0.00    +0.000 OA
ATOM     35  C   UNL     1      -6.976  10.916  20.219  0.00  0.00    +0.000 C 
ATOM     36  C   UNL     1      -6.881  12.419  20.453  0.00  0.00    +0.000 C 
ENDBRANCH  25  30
ENDBRANCH   7  23
TORSDOF 5
ENDMDL
MODEL 8
REMARK VINA RESULT:      -8.6      3.527     11.048
REMARK  Name = 
REMARK  7 active torsions:
REMARK  status: ('A' for Active; 'I' for Inactive)
REMARK    1  A    between atoms: C_1  and  C_2
REMARK    2  A    between atoms: C_5  and  C_6
REMARK    3  A    between atoms: C_10  and  C_12
REMARK    4  A    between atoms: C_15  and  C_16
REMARK    5  A    between atoms: C_22  and  C_23
REMARK    6  A    between atoms: C_25  and  C_26
REMARK    7  A    between atoms: C_26  and  C_27
REMARK                            x       y       z     vdW  Elec       q    Type
REMARK                         _______ _______ _______ _____ _____    ______ ____
ROOT
ATOM      1  C   UNL     1      -0.285  13.541  18.025  0.00  0.00    +0.000 C 
ATOM      2  C   UNL     1       0.063  12.244  18.716  0.00  0.00    +0.000 A 
ATOM      3  C   UNL     1       1.429  11.927  18.807  0.00  0.00    +0.000 A 
ATOM      4  C   UNL     1       1.861  10.791  19.482  0.00  0.00    +0.000 A 
ATOM      5  C   UNL     1       0.937   9.950  20.095  0.00  0.00    +0.000 A 
ATOM      6  C   UNL     1      -0.437  10.224  19.960  0.00  0.00    +0.000 A 
ATOM      7  C   UNL     1      -0.908  11.360  19.257  0.00  0.00    +0.000 A 
ENDROOT
BRANCH   5   8
ATOM      8  C   UNL     1       1.405   8.713  20.804  0.00  0.00    +0.000 C 
ATOM      9  O   UNL     1       1.787   8.794  21.967  0.00  0.00    +0.000 OA
ATOM     10  N   UNL     1       1.316   7.514  20.108  0.00  0.00    +0.000 N 
ATOM     11  C   UNL     1       1.645   6.214  20.598  0.00  0.00    +0.000 C 
ATOM     12  C   UNL     1       2.536   5.780  19.393  0.00  0.00    +0.000 C 
ATOM     13  F   UNL     1       3.633   5.553  20.197  0.00  0.00    +0.000 F 
ATOM     14  C   UNL     1       1.899   7.234  18.841  0.00  0.00    +0.000 C 
BRANCH  12  15
ATOM     15  C   UNL     1       3.488   5.666  18.091  0.00  0.00    +0.000 A 
ATOM     16  C   UNL     1       4.362   6.749  17.780  0.00  0.00    +0.000 A 
ATOM     17  C   UNL     1       5.388   6.661  16.837  0.00  0.00    +0.000 A 
ATOM     18  C   UNL     1       5.579   5.469  16.154  0.00  0.00    +0.000 A 
ATOM     19  C   UNL     1       4.697   4.404  16.368  0.00  0.00    +0.000 A 
ATOM     20  C   UNL     1       3.662   4.505  17.316  0.00  0.00    +0.000 A 
BRANCH  18  21
ATOM     21  C   UNL     1       6.706   5.325  15.277  0.00  0.00    +0.000 C 
ATOM     22  N   UNL     1       7.629   5.233  14.583  0.00  0.00    +0.000 NA
ENDBRANCH  18  21
ENDBRANCH  12  15
ENDBRANCH   5   8
BRANCH   7  23
ATOM     23  C   UNL     1      -2.365  11.588  19.082  0.00  0.00    +0.000 A 
ATOM     24  N   UNL     1      -3.106  12.345  19.949  0.00  0.00    +0.000 N 
ATOM     25  C   UNL     1      -4.438  12.298  19.604  0.00  0.00    +0.000 A 
ATOM     26  N   UNL     1      -4.563  11.654  18.466  0.00  0.00    +0.000 NA
ATOM     27  C   UNL     1      -3.298  11.234  18.121  0.00  0.00    +0.000 A 
ATOM     28 CL   UNL     1      -3.040  10.344  16.677  0.00  0.00    +0.000 Cl
ATOM     29  H   UNL     1      -2.752  12.825  20.775  0.00  0.00    +0.000 HD
BRANCH  25  30
ATOM     30  C   UNL     1      -5.542  12.876  20.479  0.00  0.00    +0.000 C 
ATOM     31  C   UNL     1      -5.028  12.930  21.936  0.00  0.00    +0.000 C 
ATOM     32  C   UNL     1      -5.948  14.295  20.028  0.00  0.00    +0.000 C 
ATOM     33  C   UNL     1      -6.728  14.271  18.720  0.00  0.00    +0.000 C 
ATOM     34  O   UNL     1      -7.884  13.450  18.846  0.00  0.00    +0.000 OA
ATOM     35  C   UNL     1      -7.547  12.088  19.118  0.00  0.00    +0.000 C 
ATOM     36  C   UNL     1      -6.806  11.979  20.446  0.00  0.00    +0.000 C 
ENDBRANCH  25  30
ENDBRANCH   7  23
TORSDOF 5
ENDMDL
MODEL 9
REMARK VINA RESULT:      -8.6      3.291      4.859
REMARK  Name = 
REMARK  7 active torsions:
REMARK  status: ('A' for Active; 'I' for Inactive)
REMARK    1  A    between atoms: C_1  and  C_2
REMARK    2  A    between atoms: C_5  and  C_6
REMARK    3  A    between atoms: C_10  and  C_12
REMARK    4  A    between atoms: C_15  and  C_16
REMARK    5  A    between atoms: C_22  and  C_23
REMARK    6  A    between atoms: C_25  and  C_26
REMARK    7  A    between atoms: C_26  and  C_27
REMARK                            x       y       z     vdW  Elec       q    Type
REMARK                         _______ _______ _______ _____ _____    ______ ____
ROOT
ATOM      1  C   UNL     1       2.459   5.532  21.207  0.00  0.00    +0.000 C 
ATOM      2  C   UNL     1       1.980   6.746  20.448  0.00  0.00    +0.000 A 
ATOM      3  C   UNL     1       1.089   7.598  21.123  0.00  0.00    +0.000 A 
ATOM      4  C   UNL     1       0.639   8.778  20.540  0.00  0.00    +0.000 A 
ATOM      5  C   UNL     1       1.080   9.141  19.272  0.00  0.00    +0.000 A 
ATOM      6  C   UNL     1       1.925   8.268  18.561  0.00  0.00    +0.000 A 
ATOM      7  C   UNL     1       2.379   7.047  19.119  0.00  0.00    +0.000 A 
ENDROOT
BRANCH   5   8
ATOM      8  C   UNL     1       0.576  10.404  18.637  0.00  0.00    +0.000 C 
ATOM      9  O   UNL     1      -0.015  10.344  17.564  0.00  0.00    +0.000 OA
ATOM     10  N   UNL     1       0.756  11.584  19.348  0.00  0.00    +0.000 N 
ATOM     11  C   UNL     1       0.310  12.886  18.971  0.00  0.00    +0.000 C 
ATOM     12  C   UNL     1       1.665  13.623  19.205  0.00  0.00    +0.000 C 
ATOM     13  F   UNL     1       1.724  14.073  17.902  0.00  0.00    +0.000 F 
ATOM     14  C   UNL     1       1.995  12.097  19.825  0.00  0.00    +0.000 C 
BRANCH  12  15
ATOM     15  C   UNL     1       3.203  14.076  19.414  0.00  0.00    +0.000 A 
ATOM     16  C   UNL     1       4.026  14.267  18.265  0.00  0.00    +0.000 A 
ATOM     17  C   UNL     1       5.277  14.884  18.311  0.00  0.00    +0.000 A 
ATOM     18  C   UNL     1       5.764  15.337  19.529  0.00  0.00    +0.000 A 
ATOM     19  C   UNL     1       5.028  15.102  20.695  0.00  0.00    +0.000 A 
ATOM     20  C   UNL     1       3.769  14.473  20.638  0.00  0.00    +0.000 A 
BRANCH  18  21
ATOM     21  C   UNL     1       6.989  16.084  19.572  0.00  0.00    +0.000 C 
ATOM     22  N   UNL     1       7.964  16.709  19.590  0.00  0.00    +0.000 NA
ENDBRANCH  18  21
ENDBRANCH  12  15
ENDBRANCH   5   8
BRANCH   7  23
ATOM     23  C   UNL     1       3.221   6.121  18.321  0.00  0.00    +0.000 A 
ATOM     24  N   UNL     1       4.571   6.294  18.164  0.00  0.00    +0.000 N 
ATOM     25  C   UNL     1       5.074   5.352  17.294  0.00  0.00    +0.000 A 
ATOM     26  N   UNL     1       4.125   4.495  16.995  0.00  0.00    +0.000 NA
ATOM     27  C   UNL     1       2.989   4.938  17.636  0.00  0.00    +0.000 A 
ATOM     28 CL   UNL     1       1.514   4.075  17.491  0.00  0.00    +0.000 Cl
ATOM     29  H   UNL     1       5.127   7.045  18.569  0.00  0.00    +0.000 HD
BRANCH  25  30
ATOM     30  C   UNL     1       6.500   5.393  16.762  0.00  0.00    +0.000 C 
ATOM     31  C   UNL     1       6.552   4.577  15.450  0.00  0.00    +0.000 C 
ATOM     32  C   UNL     1       6.965   6.838  16.482  0.00  0.00    +0.000 C 
ATOM     33  C   UNL     1       7.216   7.610  17.771  0.00  0.00    +0.000 C 
ATOM     34  O   UNL     1       8.176   6.935  18.577  0.00  0.00    +0.000 OA
ATOM     35  C   UNL     1       7.720   5.643  18.984  0.00  0.00    +0.000 C 
ATOM     36  C   UNL     1       7.489   4.753  17.768  0.00  0.00    +0.000 C 
ENDBRANCH  25  30
ENDBRANCH   7  23
TORSDOF 5
ENDMDL
