MODEL 1
REMARK VINA RESULT:      -9.1      0.000      0.000
REMARK  Name = 
REMARK  8 active torsions:
REMARK  status: ('A' for Active; 'I' for Inactive)
REMARK    1  A    between atoms: C_1  and  O_2
REMARK    2  A    between atoms: O_2  and  C_3
REMARK    3  A    between atoms: C_8  and  N_9
REMARK    4  A    between atoms: N_12  and  C_13
REMARK    5  A    between atoms: C_13  and  C_14
REMARK    6  A    between atoms: C_13  and  C_15
REMARK    7  A    between atoms: C_22  and  C_23
REMARK    8  A    between atoms: C_27  and  C_28
REMARK                            x       y       z     vdW  Elec       q    Type
REMARK                         _______ _______ _______ _____ _____    ______ ____
ROOT
ATOM      1  C   UNL     1       3.099   2.825  20.034  0.00  0.00    +0.000 A 
ATOM      2  N   UNL     1       2.064   2.323  20.711  0.00  0.00    +0.000 NA
ATOM      3  N   UNL     1       1.307   3.405  20.956  0.00  0.00    +0.000 N 
ATOM      4  C   UNL     1       1.830   4.577  20.479  0.00  0.00    +0.000 A 
ATOM      5  C   UNL     1       1.386   5.898  20.572  0.00  0.00    +0.000 A 
ATOM      6  C   UNL     1       2.200   6.857  19.974  0.00  0.00    +0.000 A 
ATOM      7  N   UNL     1       3.322   6.536  19.314  0.00  0.00    +0.000 NA
ATOM      8  C   UNL     1       3.749   5.242  19.194  0.00  0.00    +0.000 A 
ATOM      9  C   UNL     1       3.005   4.224  19.816  0.00  0.00    +0.000 A 
ATOM     10  H   UNL     1       0.442   3.271  21.468  0.00  0.00    +0.000 HD
ENDROOT
BRANCH   8  11
ATOM     11  C   UNL     1       5.002   5.039  18.463  0.00  0.00    +0.000 A 
ATOM     12  C   UNL     1       6.260   5.260  19.030  0.00  0.00    +0.000 A 
ATOM     13  C   UNL     1       7.394   5.095  18.251  0.00  0.00    +0.000 A 
ATOM     14  N   UNL     1       7.372   4.696  16.965  0.00  0.00    +0.000 NA
ATOM     15  C   UNL     1       6.160   4.424  16.429  0.00  0.00    +0.000 A 
ATOM     16  C   UNL     1       6.123   3.958  15.005  0.00  0.00    +0.000 C 
ATOM     17  C   UNL     1       4.974   4.577  17.140  0.00  0.00    +0.000 A 
ENDBRANCH   8  11
BRANCH   6  18
ATOM     18  N   UNL     1       1.799   8.199  20.080  0.00  0.00    +0.000 N 
ATOM     19  C   UNL     1       1.436   9.014  19.028  0.00  0.00    +0.000 C 
ATOM     20  O   UNL     1       1.438   8.741  17.838  0.00  0.00    +0.000 OA
ATOM     21  N   UNL     1       1.035  10.259  19.488  0.00  0.00    +0.000 N 
ATOM     22  H   UNL     1       1.805   8.607  20.997  0.00  0.00    +0.000 HD
ATOM     23  H   UNL     1       1.101  10.478  20.468  0.00  0.00    +0.000 HD
BRANCH  21  24
ATOM     24  C   UNL     1       0.613  11.318  18.584  0.00  0.00    +0.000 C 
ATOM     25  C   UNL     1       1.118  12.691  19.046  0.00  0.00    +0.000 C 
BRANCH  24  26
ATOM     26  C   UNL     1      -0.903  11.338  18.459  0.00  0.00    +0.000 A 
ATOM     27  C   UNL     1      -1.668  12.176  19.284  0.00  0.00    +0.000 A 
ATOM     28  C   UNL     1      -3.064  12.116  19.259  0.00  0.00    +0.000 A 
ATOM     29  C   UNL     1      -3.711  11.224  18.406  0.00  0.00    +0.000 A 
ATOM     30  C   UNL     1      -2.966  10.416  17.551  0.00  0.00    +0.000 A 
ATOM     31  C   UNL     1      -1.572  10.480  17.569  0.00  0.00    +0.000 A 
ENDBRANCH  24  26
ENDBRANCH  21  24
ENDBRANCH   6  18
BRANCH   1  33
ATOM     32  C   UNL     1       3.786   1.287  18.412  0.00  0.00    +0.000 C 
ATOM     33  O   UNL     1       4.085   2.008  19.600  0.00  0.00    +0.000 OA
ENDBRANCH   1  33
TORSDOF 5
ENDMDL
MODEL 2
REMARK VINA RESULT:      -8.6      0.699      1.072
REMARK  Name = 
REMARK  8 active torsions:
REMARK  status: ('A' for Active; 'I' for Inactive)
REMARK    1  A    between atoms: C_1  and  O_2
REMARK    2  A    between atoms: O_2  and  C_3
REMARK    3  A    between atoms: C_8  and  N_9
REMARK    4  A    between atoms: N_12  and  C_13
REMARK    5  A    between atoms: C_13  and  C_14
REMARK    6  A    between atoms: C_13  and  C_15
REMARK    7  A    between atoms: C_22  and  C_23
REMARK    8  A    between atoms: C_27  and  C_28
REMARK                            x       y       z     vdW  Elec       q    Type
REMARK                         _______ _______ _______ _____ _____    ______ ____
ROOT
ATOM      1  C   UNL     1       3.020   2.849  19.944  0.00  0.00    +0.000 A 
ATOM      2  N   UNL     1       1.984   2.353  20.624  0.00  0.00    +0.000 NA
ATOM      3  N   UNL     1       1.252   3.443  20.904  0.00  0.00    +0.000 N 
ATOM      4  C   UNL     1       1.792   4.616  20.445  0.00  0.00    +0.000 A 
ATOM      5  C   UNL     1       1.376   5.943  20.572  0.00  0.00    +0.000 A 
ATOM      6  C   UNL     1       2.201   6.898  19.984  0.00  0.00    +0.000 A 
ATOM      7  N   UNL     1       3.308   6.570  19.302  0.00  0.00    +0.000 NA
ATOM      8  C   UNL     1       3.706   5.271  19.149  0.00  0.00    +0.000 A 
ATOM      9  C   UNL     1       2.951   4.253  19.758  0.00  0.00    +0.000 A 
ATOM     10  H   UNL     1       0.391   3.316  21.424  0.00  0.00    +0.000 HD
ENDROOT
BRANCH   8  11
ATOM     11  C   UNL     1       4.946   5.059  18.396  0.00  0.00    +0.000 A 
ATOM     12  C   UNL     1       6.216   5.233  18.953  0.00  0.00    +0.000 A 
ATOM     13  C   UNL     1       7.335   5.064  18.156  0.00  0.00    +0.000 A 
ATOM     14  N   UNL     1       7.288   4.702  16.859  0.00  0.00    +0.000 NA
ATOM     15  C   UNL     1       6.065   4.475  16.331  0.00  0.00    +0.000 A 
ATOM     16  C   UNL     1       5.999   4.051  14.895  0.00  0.00    +0.000 C 
ATOM     17  C   UNL     1       4.891   4.635  17.060  0.00  0.00    +0.000 A 
ENDBRANCH   8  11
BRANCH   6  18
ATOM     18  N   UNL     1       1.829   8.245  20.124  0.00  0.00    +0.000 N 
ATOM     19  C   UNL     1       1.490   9.096  19.093  0.00  0.00    +0.000 C 
ATOM     20  O   UNL     1       1.493   8.855  17.895  0.00  0.00    +0.000 OA
ATOM     21  N   UNL     1       1.113  10.337  19.585  0.00  0.00    +0.000 N 
ATOM     22  H   UNL     1       1.838   8.628  21.052  0.00  0.00    +0.000 HD
ATOM     23  H   UNL     1       1.177  10.528  20.570  0.00  0.00    +0.000 HD
BRANCH  21  24
ATOM     24  C   UNL     1       0.719  11.429  18.707  0.00  0.00    +0.000 C 
ATOM     25  C   UNL     1       1.859  12.436  18.511  0.00  0.00    +0.000 C 
BRANCH  24  26
ATOM     26  C   UNL     1      -0.510  12.137  19.259  0.00  0.00    +0.000 A 
ATOM     27  C   UNL     1      -0.365  13.267  20.078  0.00  0.00    +0.000 A 
ATOM     28  C   UNL     1      -1.479  13.854  20.684  0.00  0.00    +0.000 A 
ATOM     29  C   UNL     1      -2.750  13.322  20.473  0.00  0.00    +0.000 A 
ATOM     30  C   UNL     1      -2.915  12.228  19.628  0.00  0.00    +0.000 A 
ATOM     31  C   UNL     1      -1.804  11.646  19.017  0.00  0.00    +0.000 A 
ENDBRANCH  24  26
ENDBRANCH  21  24
ENDBRANCH   6  18
BRANCH   1  33
ATOM     32  C   UNL     1       3.678   1.380  18.249  0.00  0.00    +0.000 C 
ATOM     33  O   UNL     1       3.984   2.022  19.479  0.00  0.00    +0.000 OA
ENDBRANCH   1  33
TORSDOF 5
ENDMDL
MODEL 3
REMARK VINA RESULT:      -8.6      1.567      1.982
REMARK  Name = 
REMARK  8 active torsions:
REMARK  status: ('A' for Active; 'I' for Inactive)
REMARK    1  A    between atoms: C_1  and  O_2
REMARK    2  A    between atoms: O_2  and  C_3
REMARK    3  A    between atoms: C_8  and  N_9
REMARK    4  A    between atoms: N_12  and  C_13
REMARK    5  A    between atoms: C_13  and  C_14
REMARK    6  A    between atoms: C_13  and  C_15
REMARK    7  A    between atoms: C_22  and  C_23
REMARK    8  A    between atoms: C_27  and  C_28
REMARK                            x       y       z     vdW  Elec       q    Type
REMARK                         _______ _______ _______ _____ _____    ______ ____
ROOT
ATOM      1  C   UNL     1       2.428   2.618  18.962  0.00  0.00    +0.000 A 
ATOM      2  N   UNL     1       1.306   2.066  19.429  0.00  0.00    +0.000 NA
ATOM      3  N   UNL     1       0.675   3.099  20.009  0.00  0.00    +0.000 N 
ATOM      4  C   UNL     1       1.361   4.283  19.948  0.00  0.00    +0.000 A 
ATOM      5  C   UNL     1       1.077   5.549  20.466  0.00  0.00    +0.000 A 
ATOM      6  C   UNL     1       2.031   6.534  20.222  0.00  0.00    +0.000 A 
ATOM      7  N   UNL     1       3.139   6.299  19.503  0.00  0.00    +0.000 NA
ATOM      8  C   UNL     1       3.409   5.069  18.968  0.00  0.00    +0.000 A 
ATOM      9  C   UNL     1       2.517   4.012  19.215  0.00  0.00    +0.000 A 
ATOM     10  H   UNL     1      -0.225   2.922  20.442  0.00  0.00    +0.000 HD
ENDROOT
BRANCH   8  11
ATOM     11  C   UNL     1       4.664   4.951  18.221  0.00  0.00    +0.000 A 
ATOM     12  C   UNL     1       5.922   5.006  18.828  0.00  0.00    +0.000 A 
ATOM     13  C   UNL     1       7.059   4.939  18.041  0.00  0.00    +0.000 A 
ATOM     14  N   UNL     1       7.040   4.788  16.702  0.00  0.00    +0.000 NA
ATOM     15  C   UNL     1       5.827   4.676  16.116  0.00  0.00    +0.000 A 
ATOM     16  C   UNL     1       5.793   4.485  14.630  0.00  0.00    +0.000 C 
ATOM     17  C   UNL     1       4.637   4.745  16.834  0.00  0.00    +0.000 A 
ENDBRANCH   8  11
BRANCH   6  18
ATOM     18  N   UNL     1       1.793   7.809  20.759  0.00  0.00    +0.000 N 
ATOM     19  C   UNL     1       1.269   8.884  20.073  0.00  0.00    +0.000 C 
ATOM     20  O   UNL     1       0.965   8.938  18.891  0.00  0.00    +0.000 OA
ATOM     21  N   UNL     1       1.104   9.972  20.916  0.00  0.00    +0.000 N 
ATOM     22  H   UNL     1       2.052   7.957  21.717  0.00  0.00    +0.000 HD
ATOM     23  H   UNL     1       1.419   9.920  21.871  0.00  0.00    +0.000 HD
BRANCH  21  24
ATOM     24  C   UNL     1       0.580  11.245  20.444  0.00  0.00    +0.000 C 
ATOM     25  C   UNL     1       1.607  12.373  20.603  0.00  0.00    +0.000 C 
BRANCH  24  26
ATOM     26  C   UNL     1      -0.700  11.600  21.185  0.00  0.00    +0.000 A 
ATOM     27  C   UNL     1      -1.733  12.281  20.523  0.00  0.00    +0.000 A 
ATOM     28  C   UNL     1      -2.862  12.715  21.222  0.00  0.00    +0.000 A 
ATOM     29  C   UNL     1      -2.975  12.468  22.589  0.00  0.00    +0.000 A 
ATOM     30  C   UNL     1      -1.978  11.755  23.251  0.00  0.00    +0.000 A 
ATOM     31  C   UNL     1      -0.854  11.315  22.553  0.00  0.00    +0.000 A 
ENDBRANCH  24  26
ENDBRANCH  21  24
ENDBRANCH   6  18
BRANCH   1  33
ATOM     32  C   UNL     1       4.323   1.256  19.105  0.00  0.00    +0.000 C 
ATOM     33  O   UNL     1       3.328   1.864  18.292  0.00  0.00    +0.000 OA
ENDBRANCH   1  33
TORSDOF 5
ENDMDL
MODEL 4
REMARK VINA RESULT:      -8.4      1.539      2.876
REMARK  Name = 
REMARK  8 active torsions:
REMARK  status: ('A' for Active; 'I' for Inactive)
REMARK    1  A    between atoms: C_1  and  O_2
REMARK    2  A    between atoms: O_2  and  C_3
REMARK    3  A    between atoms: C_8  and  N_9
REMARK    4  A    between atoms: N_12  and  C_13
REMARK    5  A    between atoms: C_13  and  C_14
REMARK    6  A    between atoms: C_13  and  C_15
REMARK    7  A    between atoms: C_22  and  C_23
REMARK    8  A    between atoms: C_27  and  C_28
REMARK                            x       y       z     vdW  Elec       q    Type
REMARK                         _______ _______ _______ _____ _____    ______ ____
ROOT
ATOM      1  C   UNL     1       3.426   3.807  19.959  0.00  0.00    +0.000 A 
ATOM      2  N   UNL     1       2.438   3.619  20.836  0.00  0.00    +0.000 NA
ATOM      3  N   UNL     1       1.708   4.739  20.718  0.00  0.00    +0.000 N 
ATOM      4  C   UNL     1       2.204   5.642  19.814  0.00  0.00    +0.000 A 
ATOM      5  C   UNL     1       1.777   6.920  19.447  0.00  0.00    +0.000 A 
ATOM      6  C   UNL     1       2.554   7.569  18.491  0.00  0.00    +0.000 A 
ATOM      7  N   UNL     1       3.624   6.995  17.924  0.00  0.00    +0.000 NA
ATOM      8  C   UNL     1       4.032   5.733  18.257  0.00  0.00    +0.000 A 
ATOM      9  C   UNL     1       3.327   5.034  19.253  0.00  0.00    +0.000 A 
ATOM     10  H   UNL     1       0.880   4.829  21.296  0.00  0.00    +0.000 HD
ENDROOT
BRANCH   8  11
ATOM     11  C   UNL     1       5.230   5.238  17.573  0.00  0.00    +0.000 A 
ATOM     12  C   UNL     1       6.473   5.121  18.199  0.00  0.00    +0.000 A 
ATOM     13  C   UNL     1       7.566   4.694  17.464  0.00  0.00    +0.000 A 
ATOM     14  N   UNL     1       7.509   4.344  16.164  0.00  0.00    +0.000 NA
ATOM     15  C   UNL     1       6.297   4.400  15.568  0.00  0.00    +0.000 A 
ATOM     16  C   UNL     1       6.215   3.993  14.128  0.00  0.00    +0.000 C 
ATOM     17  C   UNL     1       5.152   4.830  16.233  0.00  0.00    +0.000 A 
ENDBRANCH   8  11
BRANCH   6  18
ATOM     18  N   UNL     1       2.171   8.871  18.125  0.00  0.00    +0.000 N 
ATOM     19  C   UNL     1       1.398   9.723  18.885  0.00  0.00    +0.000 C 
ATOM     20  O   UNL     1       0.880   9.496  19.968  0.00  0.00    +0.000 OA
ATOM     21  N   UNL     1       1.262  10.953  18.258  0.00  0.00    +0.000 N 
ATOM     22  H   UNL     1       2.462   9.196  17.222  0.00  0.00    +0.000 HD
ATOM     23  H   UNL     1       1.648  11.093  17.339  0.00  0.00    +0.000 HD
BRANCH  21  24
ATOM     24  C   UNL     1       0.482  12.035  18.838  0.00  0.00    +0.000 C 
ATOM     25  C   UNL     1      -0.941  12.075  18.267  0.00  0.00    +0.000 C 
BRANCH  24  26
ATOM     26  C   UNL     1       1.172  13.371  18.606  0.00  0.00    +0.000 A 
ATOM     27  C   UNL     1       2.504  13.410  18.168  0.00  0.00    +0.000 A 
ATOM     28  C   UNL     1       3.183  14.627  18.065  0.00  0.00    +0.000 A 
ATOM     29  C   UNL     1       2.537  15.818  18.391  0.00  0.00    +0.000 A 
ATOM     30  C   UNL     1       1.201  15.799  18.786  0.00  0.00    +0.000 A 
ATOM     31  C   UNL     1       0.520  14.586  18.882  0.00  0.00    +0.000 A 
ENDBRANCH  24  26
ENDBRANCH  21  24
ENDBRANCH   6  18
BRANCH   1  33
ATOM     32  C   UNL     1       3.983   1.760  18.975  0.00  0.00    +0.000 C 
ATOM     33  O   UNL     1       4.374   2.857  19.790  0.00  0.00    +0.000 OA
ENDBRANCH   1  33
TORSDOF 5
ENDMDL
MODEL 5
REMARK VINA RESULT:      -8.2      0.867      1.597
REMARK  Name = 
REMARK  8 active torsions:
REMARK  status: ('A' for Active; 'I' for Inactive)
REMARK    1  A    between atoms: C_1  and  O_2
REMARK    2  A    between atoms: O_2  and  C_3
REMARK    3  A    between atoms: C_8  and  N_9
REMARK    4  A    between atoms: N_12  and  C_13
REMARK    5  A    between atoms: C_13  and  C_14
REMARK    6  A    between atoms: C_13  and  C_15
REMARK    7  A    between atoms: C_22  and  C_23
REMARK    8  A    between atoms: C_27  and  C_28
REMARK                            x       y       z     vdW  Elec       q    Type
REMARK                         _______ _______ _______ _____ _____    ______ ____
ROOT
ATOM      1  C   UNL     1       3.278   3.199  19.957  0.00  0.00    +0.000 A 
ATOM      2  N   UNL     1       2.505   2.613  20.873  0.00  0.00    +0.000 NA
ATOM      3  N   UNL     1       1.716   3.614  21.293  0.00  0.00    +0.000 N 
ATOM      4  C   UNL     1       1.971   4.820  20.695  0.00  0.00    +0.000 A 
ATOM      5  C   UNL     1       1.419   6.088  20.888  0.00  0.00    +0.000 A 
ATOM      6  C   UNL     1       1.948   7.108  20.101  0.00  0.00    +0.000 A 
ATOM      7  N   UNL     1       2.901   6.888  19.185  0.00  0.00    +0.000 NA
ATOM      8  C   UNL     1       3.427   5.643  18.969  0.00  0.00    +0.000 A 
ATOM      9  C   UNL     1       2.978   4.572  19.762  0.00  0.00    +0.000 A 
ATOM     10  H   UNL     1       1.025   3.407  22.005  0.00  0.00    +0.000 HD
ENDROOT
BRANCH   8  11
ATOM     11  C   UNL     1       4.476   5.551  17.950  0.00  0.00    +0.000 A 
ATOM     12  C   UNL     1       4.427   4.650  16.884  0.00  0.00    +0.000 A 
ATOM     13  C   UNL     1       5.487   4.592  15.995  0.00  0.00    +0.000 A 
ATOM     14  N   UNL     1       6.574   5.384  16.067  0.00  0.00    +0.000 NA
ATOM     15  C   UNL     1       6.600   6.298  17.063  0.00  0.00    +0.000 A 
ATOM     16  C   UNL     1       7.794   7.200  17.142  0.00  0.00    +0.000 C 
ATOM     17  C   UNL     1       5.582   6.412  18.004  0.00  0.00    +0.000 A 
ENDBRANCH   8  11
BRANCH   6  18
ATOM     18  N   UNL     1       1.439   8.403  20.296  0.00  0.00    +0.000 N 
ATOM     19  C   UNL     1       1.072   9.281  19.298  0.00  0.00    +0.000 C 
ATOM     20  O   UNL     1       1.162   9.116  18.091  0.00  0.00    +0.000 OA
ATOM     21  N   UNL     1       0.550  10.447  19.837  0.00  0.00    +0.000 N 
ATOM     22  H   UNL     1       1.362   8.725  21.243  0.00  0.00    +0.000 HD
ATOM     23  H   UNL     1       0.544  10.581  20.834  0.00  0.00    +0.000 HD
BRANCH  21  24
ATOM     24  C   UNL     1       0.098  11.549  19.002  0.00  0.00    +0.000 C 
ATOM     25  C   UNL     1       0.519  12.906  19.580  0.00  0.00    +0.000 C 
BRANCH  24  26
ATOM     26  C   UNL     1      -1.414  11.503  18.834  0.00  0.00    +0.000 A 
ATOM     27  C   UNL     1      -1.983  10.787  17.770  0.00  0.00    +0.000 A 
ATOM     28  C   UNL     1      -3.361  10.834  17.538  0.00  0.00    +0.000 A 
ATOM     29  C   UNL     1      -4.184  11.591  18.370  0.00  0.00    +0.000 A 
ATOM     30  C   UNL     1      -3.638  12.271  19.456  0.00  0.00    +0.000 A 
ATOM     31  C   UNL     1      -2.265  12.219  19.693  0.00  0.00    +0.000 A 
ENDBRANCH  24  26
ENDBRANCH  21  24
ENDBRANCH   6  18
BRANCH   1  33
ATOM     32  C   UNL     1       3.697   1.416  18.504  0.00  0.00    +0.000 C 
ATOM     33  O   UNL     1       4.212   2.479  19.295  0.00  0.00    +0.000 OA
ENDBRANCH   1  33
TORSDOF 5
ENDMDL
MODEL 6
REMARK VINA RESULT:      -8.2      1.558      2.319
REMARK  Name = 
REMARK  8 active torsions:
REMARK  status: ('A' for Active; 'I' for Inactive)
REMARK    1  A    between atoms: C_1  and  O_2
REMARK    2  A    between atoms: O_2  and  C_3
REMARK    3  A    between atoms: C_8  and  N_9
REMARK    4  A    between atoms: N_12  and  C_13
REMARK    5  A    between atoms: C_13  and  C_14
REMARK    6  A    between atoms: C_13  and  C_15
REMARK    7  A    between atoms: C_22  and  C_23
REMARK    8  A    between atoms: C_27  and  C_28
REMARK                            x       y       z     vdW  Elec       q    Type
REMARK                         _______ _______ _______ _____ _____    ______ ____
ROOT
ATOM      1  C   UNL     1       2.403   2.713  19.199  0.00  0.00    +0.000 A 
ATOM      2  N   UNL     1       1.297   2.134  19.672  0.00  0.00    +0.000 NA
ATOM      3  N   UNL     1       0.634   3.156  20.236  0.00  0.00    +0.000 N 
ATOM      4  C   UNL     1       1.285   4.359  20.158  0.00  0.00    +0.000 A 
ATOM      5  C   UNL     1       0.962   5.624  20.656  0.00  0.00    +0.000 A 
ATOM      6  C   UNL     1       1.887   6.633  20.400  0.00  0.00    +0.000 A 
ATOM      7  N   UNL     1       3.002   6.421  19.686  0.00  0.00    +0.000 NA
ATOM      8  C   UNL     1       3.310   5.192  19.170  0.00  0.00    +0.000 A 
ATOM      9  C   UNL     1       2.449   4.112  19.431  0.00  0.00    +0.000 A 
ATOM     10  H   UNL     1      -0.261   2.959  20.670  0.00  0.00    +0.000 HD
ENDROOT
BRANCH   8  11
ATOM     11  C   UNL     1       4.570   5.100  18.427  0.00  0.00    +0.000 A 
ATOM     12  C   UNL     1       4.633   4.779  17.068  0.00  0.00    +0.000 A 
ATOM     13  C   UNL     1       5.869   4.661  16.455  0.00  0.00    +0.000 A 
ATOM     14  N   UNL     1       7.043   4.871  17.082  0.00  0.00    +0.000 NA
ATOM     15  C   UNL     1       6.986   5.239  18.382  0.00  0.00    +0.000 A 
ATOM     16  C   UNL     1       8.284   5.496  19.085  0.00  0.00    +0.000 C 
ATOM     17  C   UNL     1       5.785   5.367  19.073  0.00  0.00    +0.000 A 
ENDBRANCH   8  11
BRANCH   6  18
ATOM     18  N   UNL     1       1.609   7.909  20.917  0.00  0.00    +0.000 N 
ATOM     19  C   UNL     1       1.132   8.982  20.195  0.00  0.00    +0.000 C 
ATOM     20  O   UNL     1       0.912   9.034  18.994  0.00  0.00    +0.000 OA
ATOM     21  N   UNL     1       0.907  10.071  21.024  0.00  0.00    +0.000 N 
ATOM     22  H   UNL     1       1.800   8.058  21.891  0.00  0.00    +0.000 HD
ATOM     23  H   UNL     1       1.155  10.020  21.998  0.00  0.00    +0.000 HD
BRANCH  21  24
ATOM     24  C   UNL     1       0.416  11.342  20.514  0.00  0.00    +0.000 C 
ATOM     25  C   UNL     1       1.445  12.464  20.705  0.00  0.00    +0.000 C 
BRANCH  24  26
ATOM     26  C   UNL     1      -0.893  11.717  21.194  0.00  0.00    +0.000 A 
ATOM     27  C   UNL     1      -1.883  12.412  20.484  0.00  0.00    +0.000 A 
ATOM     28  C   UNL     1      -3.037  12.863  21.131  0.00  0.00    +0.000 A 
ATOM     29  C   UNL     1      -3.218  12.618  22.491  0.00  0.00    +0.000 A 
ATOM     30  C   UNL     1      -2.264  11.891  23.199  0.00  0.00    +0.000 A 
ATOM     31  C   UNL     1      -1.115  11.434  22.553  0.00  0.00    +0.000 A 
ENDBRANCH  24  26
ENDBRANCH  21  24
ENDBRANCH   6  18
BRANCH   1  33
ATOM     32  C   UNL     1       4.417   1.534  19.339  0.00  0.00    +0.000 C 
ATOM     33  O   UNL     1       3.326   1.976  18.542  0.00  0.00    +0.000 OA
ENDBRANCH   1  33
TORSDOF 5
ENDMDL
MODEL 7
REMARK VINA RESULT:      -8.1      1.823      2.374
REMARK  Name = 
REMARK  8 active torsions:
REMARK  status: ('A' for Active; 'I' for Inactive)
REMARK    1  A    between atoms: C_1  and  O_2
REMARK    2  A    between atoms: O_2  and  C_3
REMARK    3  A    between atoms: C_8  and  N_9
REMARK    4  A    between atoms: N_12  and  C_13
REMARK    5  A    between atoms: C_13  and  C_14
REMARK    6  A    between atoms: C_13  and  C_15
REMARK    7  A    between atoms: C_22  and  C_23
REMARK    8  A    between atoms: C_27  and  C_28
REMARK                            x       y       z     vdW  Elec       q    Type
REMARK                         _______ _______ _______ _____ _____    ______ ____
ROOT
ATOM      1  C   UNL     1       2.587   2.833  19.470  0.00  0.00    +0.000 A 
ATOM      2  N   UNL     1       1.517   2.262  20.027  0.00  0.00    +0.000 NA
ATOM      3  N   UNL     1       0.866   3.300  20.573  0.00  0.00    +0.000 N 
ATOM      4  C   UNL     1       1.491   4.508  20.404  0.00  0.00    +0.000 A 
ATOM      5  C   UNL     1       1.172   5.790  20.856  0.00  0.00    +0.000 A 
ATOM      6  C   UNL     1       2.065   6.799  20.503  0.00  0.00    +0.000 A 
ATOM      7  N   UNL     1       3.146   6.568  19.744  0.00  0.00    +0.000 NA
ATOM      8  C   UNL     1       3.449   5.320  19.274  0.00  0.00    +0.000 A 
ATOM      9  C   UNL     1       2.621   4.242  19.631  0.00  0.00    +0.000 A 
ATOM     10  H   UNL     1      -0.003   3.112  21.061  0.00  0.00    +0.000 HD
ENDROOT
BRANCH   8  11
ATOM     11  C   UNL     1       4.671   5.210  18.473  0.00  0.00    +0.000 A 
ATOM     12  C   UNL     1       5.951   5.183  19.032  0.00  0.00    +0.000 A 
ATOM     13  C   UNL     1       7.056   5.131  18.199  0.00  0.00    +0.000 A 
ATOM     14  N   UNL     1       6.982   5.070  16.855  0.00  0.00    +0.000 NA
ATOM     15  C   UNL     1       5.745   5.037  16.310  0.00  0.00    +0.000 A 
ATOM     16  C   UNL     1       5.650   4.948  14.818  0.00  0.00    +0.000 C 
ATOM     17  C   UNL     1       4.586   5.099  17.077  0.00  0.00    +0.000 A 
ENDBRANCH   8  11
BRANCH   6  18
ATOM     18  N   UNL     1       1.791   8.095  20.972  0.00  0.00    +0.000 N 
ATOM     19  C   UNL     1       1.207   9.107  20.240  0.00  0.00    +0.000 C 
ATOM     20  O   UNL     1       0.868   9.078  19.066  0.00  0.00    +0.000 OA
ATOM     21  N   UNL     1       1.023  10.236  21.023  0.00  0.00    +0.000 N 
ATOM     22  H   UNL     1       2.072   8.309  21.911  0.00  0.00    +0.000 HD
ATOM     23  H   UNL     1       1.367  10.253  21.969  0.00  0.00    +0.000 HD
BRANCH  21  24
ATOM     24  C   UNL     1       0.437  11.458  20.493  0.00  0.00    +0.000 C 
ATOM     25  C   UNL     1       1.498  12.366  19.860  0.00  0.00    +0.000 C 
BRANCH  24  26
ATOM     26  C   UNL     1      -0.305  12.210  21.588  0.00  0.00    +0.000 A 
ATOM     27  C   UNL     1      -1.353  11.589  22.284  0.00  0.00    +0.000 A 
ATOM     28  C   UNL     1      -2.116  12.308  23.208  0.00  0.00    +0.000 A 
ATOM     29  C   UNL     1      -1.836  13.651  23.452  0.00  0.00    +0.000 A 
ATOM     30  C   UNL     1      -0.771  14.268  22.801  0.00  0.00    +0.000 A 
ATOM     31  C   UNL     1      -0.004  13.550  21.884  0.00  0.00    +0.000 A 
ENDBRANCH  24  26
ENDBRANCH  21  24
ENDBRANCH   6  18
BRANCH   1  33
ATOM     32  C   UNL     1       3.188   1.859  17.431  0.00  0.00    +0.000 C 
ATOM     33  O   UNL     1       3.489   2.078  18.803  0.00  0.00    +0.000 OA
ENDBRANCH   1  33
TORSDOF 5
ENDMDL
MODEL 8
REMARK VINA RESULT:      -8.1      1.830      2.508
REMARK  Name = 
REMARK  8 active torsions:
REMARK  status: ('A' for Active; 'I' for Inactive)
REMARK    1  A    between atoms: C_1  and  O_2
REMARK    2  A    between atoms: O_2  and  C_3
REMARK    3  A    between atoms: C_8  and  N_9
REMARK    4  A    between atoms: N_12  and  C_13
REMARK    5  A    between atoms: C_13  and  C_14
REMARK    6  A    between atoms: C_13  and  C_15
REMARK    7  A    between atoms: C_22  and  C_23
REMARK    8  A    between atoms: C_27  and  C_28
REMARK                            x       y       z     vdW  Elec       q    Type
REMARK                         _______ _______ _______ _____ _____    ______ ____
ROOT
ATOM      1  C   UNL     1       3.433   3.035  20.401  0.00  0.00    +0.000 A 
ATOM      2  N   UNL     1       2.479   2.610  21.233  0.00  0.00    +0.000 NA
ATOM      3  N   UNL     1       1.657   3.667  21.320  0.00  0.00    +0.000 N 
ATOM      4  C   UNL     1       2.060   4.756  20.592  0.00  0.00    +0.000 A 
ATOM      5  C   UNL     1       1.522   6.038  20.462  0.00  0.00    +0.000 A 
ATOM      6  C   UNL     1       2.225   6.911  19.636  0.00  0.00    +0.000 A 
ATOM      7  N   UNL     1       3.329   6.541  18.972  0.00  0.00    +0.000 NA
ATOM      8  C   UNL     1       3.846   5.278  19.071  0.00  0.00    +0.000 A 
ATOM      9  C   UNL     1       3.220   4.355  19.927  0.00  0.00    +0.000 A 
ATOM     10  H   UNL     1       0.835   3.582  21.908  0.00  0.00    +0.000 HD
ENDROOT
BRANCH   8  11
ATOM     11  C   UNL     1       5.068   5.017  18.306  0.00  0.00    +0.000 A 
ATOM     12  C   UNL     1       6.350   5.167  18.841  0.00  0.00    +0.000 A 
ATOM     13  C   UNL     1       7.453   4.951  18.031  0.00  0.00    +0.000 A 
ATOM     14  N   UNL     1       7.376   4.565  16.742  0.00  0.00    +0.000 NA
ATOM     15  C   UNL     1       6.139   4.362  16.237  0.00  0.00    +0.000 A 
ATOM     16  C   UNL     1       6.041   3.911  14.811  0.00  0.00    +0.000 C 
ATOM     17  C   UNL     1       4.981   4.569  16.980  0.00  0.00    +0.000 A 
ENDBRANCH   8  11
BRANCH   6  18
ATOM     18  N   UNL     1       1.729   8.220  19.511  0.00  0.00    +0.000 N 
ATOM     19  C   UNL     1       1.424   9.066  20.556  0.00  0.00    +0.000 C 
ATOM     20  O   UNL     1       1.485   8.826  21.753  0.00  0.00    +0.000 OA
ATOM     21  N   UNL     1       1.019  10.304  20.083  0.00  0.00    +0.000 N 
ATOM     22  H   UNL     1       1.556   8.556  18.581  0.00  0.00    +0.000 HD
ATOM     23  H   UNL     1       0.919  10.456  19.093  0.00  0.00    +0.000 HD
BRANCH  21  24
ATOM     24  C   UNL     1       0.624  11.383  20.977  0.00  0.00    +0.000 C 
ATOM     25  C   UNL     1      -0.852  11.272  21.379  0.00  0.00    +0.000 C 
BRANCH  24  26
ATOM     26  C   UNL     1       0.885  12.734  20.327  0.00  0.00    +0.000 A 
ATOM     27  C   UNL     1       2.141  13.345  20.451  0.00  0.00    +0.000 A 
ATOM     28  C   UNL     1       2.356  14.635  19.959  0.00  0.00    +0.000 A 
ATOM     29  C   UNL     1       1.320  15.326  19.333  0.00  0.00    +0.000 A 
ATOM     30  C   UNL     1       0.079  14.716  19.165  0.00  0.00    +0.000 A 
ATOM     31  C   UNL     1      -0.134  13.425  19.648  0.00  0.00    +0.000 A 
ENDBRANCH  24  26
ENDBRANCH  21  24
ENDBRANCH   6  18
BRANCH   1  33
ATOM     32  C   UNL     1       4.209   1.395  18.926  0.00  0.00    +0.000 C 
ATOM     33  O   UNL     1       4.453   2.214  20.062  0.00  0.00    +0.000 OA
ENDBRANCH   1  33
TORSDOF 5
ENDMDL
MODEL 9
REMARK VINA RESULT:      -8.0      1.589      2.270
REMARK  Name = 
REMARK  8 active torsions:
REMARK  status: ('A' for Active; 'I' for Inactive)
REMARK    1  A    between atoms: C_1  and  O_2
REMARK    2  A    between atoms: O_2  and  C_3
REMARK    3  A    between atoms: C_8  and  N_9
REMARK    4  A    between atoms: N_12  and  C_13
REMARK    5  A    between atoms: C_13  and  C_14
REMARK    6  A    between atoms: C_13  and  C_15
REMARK    7  A    between atoms: C_22  and  C_23
REMARK    8  A    between atoms: C_27  and  C_28
REMARK                            x       y       z     vdW  Elec       q    Type
REMARK                         _______ _______ _______ _____ _____    ______ ____
ROOT
ATOM      1  C   UNL     1       2.471   2.985  19.505  0.00  0.00    +0.000 A 
ATOM      2  N   UNL     1       1.433   2.365  20.070  0.00  0.00    +0.000 NA
ATOM      3  N   UNL     1       0.744   3.372  20.631  0.00  0.00    +0.000 N 
ATOM      4  C   UNL     1       1.314   4.606  20.461  0.00  0.00    +0.000 A 
ATOM      5  C   UNL     1       0.945   5.871  20.924  0.00  0.00    +0.000 A 
ATOM      6  C   UNL     1       1.790   6.920  20.567  0.00  0.00    +0.000 A 
ATOM      7  N   UNL     1       2.871   6.740  19.794  0.00  0.00    +0.000 NA
ATOM      8  C   UNL     1       3.222   5.509  19.313  0.00  0.00    +0.000 A 
ATOM      9  C   UNL     1       2.446   4.393  19.674  0.00  0.00    +0.000 A 
ATOM     10  H   UNL     1      -0.110   3.144  21.127  0.00  0.00    +0.000 HD
ENDROOT
BRANCH   8  11
ATOM     11  C   UNL     1       4.438   5.456  18.497  0.00  0.00    +0.000 A 
ATOM     12  C   UNL     1       4.419   5.343  17.105  0.00  0.00    +0.000 A 
ATOM     13  C   UNL     1       5.616   5.246  16.415  0.00  0.00    +0.000 A 
ATOM     14  N   UNL     1       6.828   5.287  17.001  0.00  0.00    +0.000 NA
ATOM     15  C   UNL     1       6.854   5.455  18.342  0.00  0.00    +0.000 A 
ATOM     16  C   UNL     1       8.197   5.524  19.004  0.00  0.00    +0.000 C 
ATOM     17  C   UNL     1       5.697   5.548  19.110  0.00  0.00    +0.000 A 
ENDBRANCH   8  11
BRANCH   6  18
ATOM     18  N   UNL     1       1.466   8.200  21.046  0.00  0.00    +0.000 N 
ATOM     19  C   UNL     1       1.030   9.258  20.278  0.00  0.00    +0.000 C 
ATOM     20  O   UNL     1       0.890   9.291  19.065  0.00  0.00    +0.000 OA
ATOM     21  N   UNL     1       0.740  10.356  21.074  0.00  0.00    +0.000 N 
ATOM     22  H   UNL     1       1.590   8.364  22.028  0.00  0.00    +0.000 HD
ATOM     23  H   UNL     1       0.922  10.321  22.063  0.00  0.00    +0.000 HD
BRANCH  21  24
ATOM     24  C   UNL     1       0.272  11.615  20.514  0.00  0.00    +0.000 C 
ATOM     25  C   UNL     1       1.331  12.718  20.639  0.00  0.00    +0.000 C 
BRANCH  24  26
ATOM     26  C   UNL     1      -1.016  12.053  21.195  0.00  0.00    +0.000 A 
ATOM     27  C   UNL     1      -1.206  11.817  22.565  0.00  0.00    +0.000 A 
ATOM     28  C   UNL     1      -2.430  12.109  23.174  0.00  0.00    +0.000 A 
ATOM     29  C   UNL     1      -3.474  12.644  22.422  0.00  0.00    +0.000 A 
ATOM     30  C   UNL     1      -3.287  12.924  21.071  0.00  0.00    +0.000 A 
ATOM     31  C   UNL     1      -2.063  12.641  20.464  0.00  0.00    +0.000 A 
ENDBRANCH  24  26
ENDBRANCH  21  24
ENDBRANCH   6  18
BRANCH   1  33
ATOM     32  C   UNL     1       3.042   1.960  17.482  0.00  0.00    +0.000 C 
ATOM     33  O   UNL     1       3.397   2.274  18.823  0.00  0.00    +0.000 OA
ENDBRANCH   1  33
TORSDOF 5
ENDMDL
