MODEL 1
REMARK VINA RESULT:      -6.7      0.000      0.000
REMARK  Name = 
REMARK  5 active torsions:
REMARK  status: ('A' for Active; 'I' for Inactive)
REMARK    1  A    between atoms: C_1  and  C_2
REMARK    2  A    between atoms: C_2  and  O_3
REMARK    3  A    between atoms: C_2  and  C_4
REMARK    4  A    between atoms: C_4  and  C_5
REMARK    5  A    between atoms: C_10  and  C_12
REMARK                            x       y       z     vdW  Elec       q    Type
REMARK                         _______ _______ _______ _____ _____    ______ ____
ROOT
ATOM      1  C   UNL     1       6.455   4.564  14.774  0.00  0.00    +0.000 A 
ATOM      2  N   UNL     1       7.604   4.749  15.432  0.00  0.00    +0.000 NA
ATOM      3  S   UNL     1       7.218   4.700  17.063  0.00  0.00    +0.000 S 
ATOM      4  C   UNL     1       5.565   4.399  16.758  0.00  0.00    +0.000 A 
ATOM      5  N   UNL     1       4.760   4.189  17.836  0.00  0.00    +0.000 N 
ATOM      6  C   UNL     1       3.462   3.749  17.695  0.00  0.00    +0.000 C 
ATOM      7  O   UNL     1       2.915   3.503  16.627  0.00  0.00    +0.000 OA
ATOM      8  N   UNL     1       5.279   4.389  15.485  0.00  0.00    +0.000 NA
ATOM      9  H   UNL     1       5.159   4.283  18.758  0.00  0.00    +0.000 HD
ENDROOT
BRANCH   6  10
ATOM     10  C   UNL     1       2.755   3.554  18.963  0.00  0.00    +0.000 A 
ATOM     11  C   UNL     1       2.024   2.438  19.332  0.00  0.00    +0.000 A 
ATOM     12  C   UNL     1       1.463   2.556  20.636  0.00  0.00    +0.000 A 
ATOM     13  C   UNL     1       1.778   3.761  21.223  0.00  0.00    +0.000 A 
ATOM     14  S   UNL     1       2.744   4.736  20.207  0.00  0.00    +0.000 S 
ENDBRANCH   6  10
BRANCH   1  15
ATOM     15  C   UNL     1       6.405   4.489  13.291  0.00  0.00    +0.000 C 
BRANCH  15  17
ATOM     16  C   UNL     1       4.570   3.450  11.824  0.00  0.00    +0.000 C 
ATOM     17  C   UNL     1       5.734   3.208  12.783  0.00  0.00    +0.000 C 
BRANCH  17  18
ATOM     18  O   UNL     1       6.711   2.408  12.106  0.00  0.00    +0.000 OA
ATOM     19  H   UNL     1       7.395   2.165  12.754  0.00  0.00    +0.000 HD
ENDBRANCH  17  18
ENDBRANCH  15  17
ENDBRANCH   1  15
TORSDOF 4
ENDMDL
MODEL 2
REMARK VINA RESULT:      -6.5      0.943      1.142
REMARK  Name = 
REMARK  5 active torsions:
REMARK  status: ('A' for Active; 'I' for Inactive)
REMARK    1  A    between atoms: C_1  and  C_2
REMARK    2  A    between atoms: C_2  and  O_3
REMARK    3  A    between atoms: C_2  and  C_4
REMARK    4  A    between atoms: C_4  and  C_5
REMARK    5  A    between atoms: C_10  and  C_12
REMARK                            x       y       z     vdW  Elec       q    Type
REMARK                         _______ _______ _______ _____ _____    ______ ____
ROOT
ATOM      1  C   UNL     1       6.412   4.607  14.423  0.00  0.00    +0.000 A 
ATOM      2  N   UNL     1       7.409   5.228  15.061  0.00  0.00    +0.000 NA
ATOM      3  S   UNL     1       6.862   5.499  16.624  0.00  0.00    +0.000 S 
ATOM      4  C   UNL     1       5.364   4.734  16.331  0.00  0.00    +0.000 A 
ATOM      5  N   UNL     1       4.510   4.611  17.384  0.00  0.00    +0.000 N 
ATOM      6  C   UNL     1       3.368   3.845  17.305  0.00  0.00    +0.000 C 
ATOM      7  O   UNL     1       3.014   3.210  16.318  0.00  0.00    +0.000 OA
ATOM      8  N   UNL     1       5.232   4.334  15.096  0.00  0.00    +0.000 NA
ATOM      9  H   UNL     1       4.772   5.029  18.264  0.00  0.00    +0.000 HD
ENDROOT
BRANCH   6  10
ATOM     10  C   UNL     1       2.584   3.808  18.541  0.00  0.00    +0.000 A 
ATOM     11  C   UNL     1       2.189   4.900  19.296  0.00  0.00    +0.000 A 
ATOM     12  C   UNL     1       1.429   4.530  20.441  0.00  0.00    +0.000 A 
ATOM     13  C   UNL     1       1.269   3.166  20.532  0.00  0.00    +0.000 A 
ATOM     14  S   UNL     1       2.029   2.344  19.243  0.00  0.00    +0.000 S 
ENDBRANCH   6  10
BRANCH   1  15
ATOM     15  C   UNL     1       6.548   4.151  13.015  0.00  0.00    +0.000 C 
BRANCH  15  17
ATOM     16  C   UNL     1       4.432   3.594  11.668  0.00  0.00    +0.000 C 
ATOM     17  C   UNL     1       5.506   3.093  12.631  0.00  0.00    +0.000 C 
BRANCH  17  18
ATOM     18  O   UNL     1       6.175   1.985  12.016  0.00  0.00    +0.000 OA
ATOM     19  H   UNL     1       5.495   1.407  11.629  0.00  0.00    +0.000 HD
ENDBRANCH  17  18
ENDBRANCH  15  17
ENDBRANCH   1  15
TORSDOF 4
ENDMDL
MODEL 3
REMARK VINA RESULT:      -6.4      5.730      7.336
REMARK  Name = 
REMARK  5 active torsions:
REMARK  status: ('A' for Active; 'I' for Inactive)
REMARK    1  A    between atoms: C_1  and  C_2
REMARK    2  A    between atoms: C_2  and  O_3
REMARK    3  A    between atoms: C_2  and  C_4
REMARK    4  A    between atoms: C_4  and  C_5
REMARK    5  A    between atoms: C_10  and  C_12
REMARK                            x       y       z     vdW  Elec       q    Type
REMARK                         _______ _______ _______ _____ _____    ______ ____
ROOT
ATOM      1  C   UNL     1       6.451   6.031  17.161  0.00  0.00    +0.000 A 
ATOM      2  N   UNL     1       6.750   5.096  18.068  0.00  0.00    +0.000 NA
ATOM      3  S   UNL     1       7.893   5.784  19.085  0.00  0.00    +0.000 S 
ATOM      4  C   UNL     1       7.866   7.277  18.256  0.00  0.00    +0.000 A 
ATOM      5  N   UNL     1       8.625   8.286  18.766  0.00  0.00    +0.000 N 
ATOM      6  C   UNL     1       8.526   9.576  18.293  0.00  0.00    +0.000 C 
ATOM      7  O   UNL     1       7.769   9.942  17.402  0.00  0.00    +0.000 OA
ATOM      8  N   UNL     1       7.078   7.265  17.216  0.00  0.00    +0.000 NA
ATOM      9  H   UNL     1       9.212   8.089  19.563  0.00  0.00    +0.000 HD
ENDROOT
BRANCH   6  10
ATOM     10  C   UNL     1       9.400  10.533  18.976  0.00  0.00    +0.000 A 
ATOM     11  C   UNL     1       9.451  10.771  20.339  0.00  0.00    +0.000 A 
ATOM     12  C   UNL     1      10.414  11.759  20.688  0.00  0.00    +0.000 A 
ATOM     13  C   UNL     1      11.067  12.252  19.581  0.00  0.00    +0.000 A 
ATOM     14  S   UNL     1      10.522  11.523  18.137  0.00  0.00    +0.000 S 
ENDBRANCH   6  10
BRANCH   1  15
ATOM     15  C   UNL     1       5.422   5.805  16.113  0.00  0.00    +0.000 C 
BRANCH  15  17
ATOM     16  C   UNL     1       7.056   4.804  14.401  0.00  0.00    +0.000 C 
ATOM     17  C   UNL     1       5.761   4.628  15.192  0.00  0.00    +0.000 C 
BRANCH  17  18
ATOM     18  O   UNL     1       5.880   3.438  15.982  0.00  0.00    +0.000 OA
ATOM     19  H   UNL     1       5.011   3.000  15.990  0.00  0.00    +0.000 HD
ENDBRANCH  17  18
ENDBRANCH  15  17
ENDBRANCH   1  15
TORSDOF 4
ENDMDL
MODEL 4
REMARK VINA RESULT:      -6.4      1.407      1.494
REMARK  Name = 
REMARK  5 active torsions:
REMARK  status: ('A' for Active; 'I' for Inactive)
REMARK    1  A    between atoms: C_1  and  C_2
REMARK    2  A    between atoms: C_2  and  O_3
REMARK    3  A    between atoms: C_2  and  C_4
REMARK    4  A    between atoms: C_4  and  C_5
REMARK    5  A    between atoms: C_10  and  C_12
REMARK                            x       y       z     vdW  Elec       q    Type
REMARK                         _______ _______ _______ _____ _____    ______ ____
ROOT
ATOM      1  C   UNL     1       6.833   5.329  15.686  0.00  0.00    +0.000 A 
ATOM      2  N   UNL     1       7.406   6.338  16.349  0.00  0.00    +0.000 NA
ATOM      3  S   UNL     1       6.512   6.538  17.754  0.00  0.00    +0.000 S 
ATOM      4  C   UNL     1       5.463   5.243  17.380  0.00  0.00    +0.000 A 
ATOM      5  N   UNL     1       4.523   4.913  18.308  0.00  0.00    +0.000 N 
ATOM      6  C   UNL     1       3.762   3.771  18.194  0.00  0.00    +0.000 C 
ATOM      7  O   UNL     1       3.848   2.956  17.283  0.00  0.00    +0.000 OA
ATOM      8  N   UNL     1       5.719   4.702  16.221  0.00  0.00    +0.000 NA
ATOM      9  H   UNL     1       4.448   5.484  19.137  0.00  0.00    +0.000 HD
ENDROOT
BRANCH   6  10
ATOM     10  C   UNL     1       2.820   3.567  19.297  0.00  0.00    +0.000 A 
ATOM     11  C   UNL     1       1.515   4.026  19.359  0.00  0.00    +0.000 A 
ATOM     12  C   UNL     1       0.858   3.653  20.566  0.00  0.00    +0.000 A 
ATOM     13  C   UNL     1       1.681   2.923  21.393  0.00  0.00    +0.000 A 
ATOM     14  S   UNL     1       3.231   2.691  20.714  0.00  0.00    +0.000 S 
ENDBRANCH   6  10
BRANCH   1  15
ATOM     15  C   UNL     1       7.386   4.820  14.404  0.00  0.00    +0.000 C 
BRANCH  15  17
ATOM     16  C   UNL     1       6.778   3.892  12.086  0.00  0.00    +0.000 C 
ATOM     17  C   UNL     1       6.323   4.158  13.520  0.00  0.00    +0.000 C 
BRANCH  17  18
ATOM     18  O   UNL     1       5.945   2.906  14.106  0.00  0.00    +0.000 OA
ATOM     19  H   UNL     1       5.014   2.976  14.380  0.00  0.00    +0.000 HD
ENDBRANCH  17  18
ENDBRANCH  15  17
ENDBRANCH   1  15
TORSDOF 4
ENDMDL
MODEL 5
REMARK VINA RESULT:      -6.3      5.885      7.303
REMARK  Name = 
REMARK  5 active torsions:
REMARK  status: ('A' for Active; 'I' for Inactive)
REMARK    1  A    between atoms: C_1  and  C_2
REMARK    2  A    between atoms: C_2  and  O_3
REMARK    3  A    between atoms: C_2  and  C_4
REMARK    4  A    between atoms: C_4  and  C_5
REMARK    5  A    between atoms: C_10  and  C_12
REMARK                            x       y       z     vdW  Elec       q    Type
REMARK                         _______ _______ _______ _____ _____    ______ ____
ROOT
ATOM      1  C   UNL     1       6.873   5.987  17.090  0.00  0.00    +0.000 A 
ATOM      2  N   UNL     1       6.988   5.085  18.070  0.00  0.00    +0.000 NA
ATOM      3  S   UNL     1       7.924   5.809  19.258  0.00  0.00    +0.000 S 
ATOM      4  C   UNL     1       8.065   7.271  18.387  0.00  0.00    +0.000 A 
ATOM      5  N   UNL     1       8.722   8.297  18.994  0.00  0.00    +0.000 N 
ATOM      6  C   UNL     1       8.723   9.569  18.465  0.00  0.00    +0.000 C 
ATOM      7  O   UNL     1       8.151   9.903  17.434  0.00  0.00    +0.000 OA
ATOM      8  N   UNL     1       7.487   7.221  17.218  0.00  0.00    +0.000 NA
ATOM      9  H   UNL     1       9.147   8.129  19.894  0.00  0.00    +0.000 HD
ENDROOT
BRANCH   6  10
ATOM     10  C   UNL     1       9.460  10.550  19.265  0.00  0.00    +0.000 A 
ATOM     11  C   UNL     1      10.555  11.290  18.853  0.00  0.00    +0.000 A 
ATOM     12  C   UNL     1      11.040  12.164  19.867  0.00  0.00    +0.000 A 
ATOM     13  C   UNL     1      10.305  12.063  21.026  0.00  0.00    +0.000 A 
ATOM     14  S   UNL     1       9.040  10.925  20.886  0.00  0.00    +0.000 S 
ENDBRANCH   6  10
BRANCH   1  15
ATOM     15  C   UNL     1       6.058   5.723  15.875  0.00  0.00    +0.000 C 
BRANCH  15  17
ATOM     16  C   UNL     1       5.778   4.077  13.922  0.00  0.00    +0.000 C 
ATOM     17  C   UNL     1       6.735   4.748  14.905  0.00  0.00    +0.000 C 
BRANCH  17  18
ATOM     18  O   UNL     1       7.726   5.457  14.150  0.00  0.00    +0.000 OA
ATOM     19  H   UNL     1       8.404   5.771  14.773  0.00  0.00    +0.000 HD
ENDBRANCH  17  18
ENDBRANCH  15  17
ENDBRANCH   1  15
TORSDOF 4
ENDMDL
MODEL 6
REMARK VINA RESULT:      -6.3      1.435      1.513
REMARK  Name = 
REMARK  5 active torsions:
REMARK  status: ('A' for Active; 'I' for Inactive)
REMARK    1  A    between atoms: C_1  and  C_2
REMARK    2  A    between atoms: C_2  and  O_3
REMARK    3  A    between atoms: C_2  and  C_4
REMARK    4  A    between atoms: C_4  and  C_5
REMARK    5  A    between atoms: C_10  and  C_12
REMARK                            x       y       z     vdW  Elec       q    Type
REMARK                         _______ _______ _______ _____ _____    ______ ____
ROOT
ATOM      1  C   UNL     1       6.179   4.612  15.184  0.00  0.00    +0.000 A 
ATOM      2  N   UNL     1       7.349   4.782  15.806  0.00  0.00    +0.000 NA
ATOM      3  S   UNL     1       7.031   4.624  17.445  0.00  0.00    +0.000 S 
ATOM      4  C   UNL     1       5.373   4.307  17.187  0.00  0.00    +0.000 A 
ATOM      5  N   UNL     1       4.617   4.014  18.280  0.00  0.00    +0.000 N 
ATOM      6  C   UNL     1       3.323   3.555  18.164  0.00  0.00    +0.000 C 
ATOM      7  O   UNL     1       2.738   3.362  17.105  0.00  0.00    +0.000 OA
ATOM      8  N   UNL     1       5.035   4.369  15.928  0.00  0.00    +0.000 NA
ATOM      9  H   UNL     1       5.051   4.060  19.190  0.00  0.00    +0.000 HD
ENDROOT
BRANCH   6  10
ATOM     10  C   UNL     1       2.672   3.268  19.444  0.00  0.00    +0.000 A 
ATOM     11  C   UNL     1       1.349   3.517  19.766  0.00  0.00    +0.000 A 
ATOM     12  C   UNL     1       1.021   3.115  21.092  0.00  0.00    +0.000 A 
ATOM     13  C   UNL     1       2.105   2.575  21.747  0.00  0.00    +0.000 A 
ATOM     14  S   UNL     1       3.501   2.552  20.765  0.00  0.00    +0.000 S 
ENDBRANCH   6  10
BRANCH   1  15
ATOM     15  C   UNL     1       6.070   4.627  13.702  0.00  0.00    +0.000 C 
BRANCH  15  17
ATOM     16  C   UNL     1       7.346   3.941  11.580  0.00  0.00    +0.000 C 
ATOM     17  C   UNL     1       7.428   4.483  13.005  0.00  0.00    +0.000 C 
BRANCH  17  18
ATOM     18  O   UNL     1       8.064   5.766  12.958  0.00  0.00    +0.000 OA
ATOM     19  H   UNL     1       7.439   6.392  12.553  0.00  0.00    +0.000 HD
ENDBRANCH  17  18
ENDBRANCH  15  17
ENDBRANCH   1  15
TORSDOF 4
ENDMDL
MODEL 7
REMARK VINA RESULT:      -6.2      3.505      4.506
REMARK  Name = 
REMARK  5 active torsions:
REMARK  status: ('A' for Active; 'I' for Inactive)
REMARK    1  A    between atoms: C_1  and  C_2
REMARK    2  A    between atoms: C_2  and  O_3
REMARK    3  A    between atoms: C_2  and  C_4
REMARK    4  A    between atoms: C_4  and  C_5
REMARK    5  A    between atoms: C_10  and  C_12
REMARK                            x       y       z     vdW  Elec       q    Type
REMARK                         _______ _______ _______ _____ _____    ______ ____
ROOT
ATOM      1  C   UNL     1       6.928   7.003  17.193  0.00  0.00    +0.000 A 
ATOM      2  N   UNL     1       7.488   6.162  16.319  0.00  0.00    +0.000 NA
ATOM      3  S   UNL     1       6.625   4.729  16.435  0.00  0.00    +0.000 S 
ATOM      4  C   UNL     1       5.557   5.360  17.608  0.00  0.00    +0.000 A 
ATOM      5  N   UNL     1       4.537   4.557  18.019  0.00  0.00    +0.000 N 
ATOM      6  C   UNL     1       3.514   5.033  18.809  0.00  0.00    +0.000 C 
ATOM      7  O   UNL     1       3.411   6.188  19.207  0.00  0.00    +0.000 OA
ATOM      8  N   UNL     1       5.853   6.582  17.958  0.00  0.00    +0.000 NA
ATOM      9  H   UNL     1       4.497   3.613  17.664  0.00  0.00    +0.000 HD
ENDROOT
BRANCH   6  10
ATOM     10  C   UNL     1       2.492   4.035  19.132  0.00  0.00    +0.000 A 
ATOM     11  C   UNL     1       1.615   3.439  18.242  0.00  0.00    +0.000 A 
ATOM     12  C   UNL     1       0.747   2.501  18.869  0.00  0.00    +0.000 A 
ATOM     13  C   UNL     1       0.983   2.411  20.223  0.00  0.00    +0.000 A 
ATOM     14  S   UNL     1       2.242   3.448  20.725  0.00  0.00    +0.000 S 
ENDBRANCH   6  10
BRANCH   1  15
ATOM     15  C   UNL     1       7.393   8.407  17.337  0.00  0.00    +0.000 C 
BRANCH  15  17
ATOM     16  C   UNL     1       8.804   9.862  18.917  0.00  0.00    +0.000 C 
ATOM     17  C   UNL     1       8.664   8.528  18.186  0.00  0.00    +0.000 C 
BRANCH  17  18
ATOM     18  O   UNL     1       8.669   7.481  19.165  0.00  0.00    +0.000 OA
ATOM     19  H   UNL     1       7.879   7.592  19.722  0.00  0.00    +0.000 HD
ENDBRANCH  17  18
ENDBRANCH  15  17
ENDBRANCH   1  15
TORSDOF 4
ENDMDL
MODEL 8
REMARK VINA RESULT:      -6.2      1.482      1.538
REMARK  Name = 
REMARK  5 active torsions:
REMARK  status: ('A' for Active; 'I' for Inactive)
REMARK    1  A    between atoms: C_1  and  C_2
REMARK    2  A    between atoms: C_2  and  O_3
REMARK    3  A    between atoms: C_2  and  C_4
REMARK    4  A    between atoms: C_4  and  C_5
REMARK    5  A    between atoms: C_10  and  C_12
REMARK                            x       y       z     vdW  Elec       q    Type
REMARK                         _______ _______ _______ _____ _____    ______ ____
ROOT
ATOM      1  C   UNL     1       6.012   4.666  14.905  0.00  0.00    +0.000 A 
ATOM      2  N   UNL     1       6.106   5.993  15.033  0.00  0.00    +0.000 NA
ATOM      3  S   UNL     1       5.095   6.410  16.304  0.00  0.00    +0.000 S 
ATOM      4  C   UNL     1       4.647   4.788  16.600  0.00  0.00    +0.000 A 
ATOM      5  N   UNL     1       3.830   4.551  17.664  0.00  0.00    +0.000 N 
ATOM      6  C   UNL     1       3.568   3.273  18.104  0.00  0.00    +0.000 C 
ATOM      7  O   UNL     1       4.029   2.250  17.611  0.00  0.00    +0.000 OA
ATOM      8  N   UNL     1       5.180   3.953  15.752  0.00  0.00    +0.000 NA
ATOM      9  H   UNL     1       3.479   5.342  18.183  0.00  0.00    +0.000 HD
ENDROOT
BRANCH   6  10
ATOM     10  C   UNL     1       2.689   3.211  19.274  0.00  0.00    +0.000 A 
ATOM     11  C   UNL     1       1.371   3.630  19.334  0.00  0.00    +0.000 A 
ATOM     12  C   UNL     1       0.788   3.428  20.617  0.00  0.00    +0.000 A 
ATOM     13  C   UNL     1       1.679   2.864  21.502  0.00  0.00    +0.000 A 
ATOM     14  S   UNL     1       3.203   2.581  20.786  0.00  0.00    +0.000 S 
ENDBRANCH   6  10
BRANCH   1  15
ATOM     15  C   UNL     1       6.817   3.917  13.905  0.00  0.00    +0.000 C 
BRANCH  15  17
ATOM     16  C   UNL     1       6.592   2.613  11.703  0.00  0.00    +0.000 C 
ATOM     17  C   UNL     1       6.112   3.790  12.550  0.00  0.00    +0.000 C 
BRANCH  17  18
ATOM     18  O   UNL     1       4.704   3.635  12.771  0.00  0.00    +0.000 OA
ATOM     19  H   UNL     1       4.549   2.719  13.058  0.00  0.00    +0.000 HD
ENDBRANCH  17  18
ENDBRANCH  15  17
ENDBRANCH   1  15
TORSDOF 4
ENDMDL
MODEL 9
REMARK VINA RESULT:      -6.2      3.941      5.301
REMARK  Name = 
REMARK  5 active torsions:
REMARK  status: ('A' for Active; 'I' for Inactive)
REMARK    1  A    between atoms: C_1  and  C_2
REMARK    2  A    between atoms: C_2  and  O_3
REMARK    3  A    between atoms: C_2  and  C_4
REMARK    4  A    between atoms: C_4  and  C_5
REMARK    5  A    between atoms: C_10  and  C_12
REMARK                            x       y       z     vdW  Elec       q    Type
REMARK                         _______ _______ _______ _____ _____    ______ ____
ROOT
ATOM      1  C   UNL     1       4.030   4.371  17.989  0.00  0.00    +0.000 A 
ATOM      2  N   UNL     1       3.780   3.353  18.819  0.00  0.00    +0.000 NA
ATOM      3  S   UNL     1       2.937   4.006  20.113  0.00  0.00    +0.000 S 
ATOM      4  C   UNL     1       2.943   5.577  19.444  0.00  0.00    +0.000 A 
ATOM      5  N   UNL     1       2.269   6.546  20.122  0.00  0.00    +0.000 N 
ATOM      6  C   UNL     1       2.047   7.791  19.576  0.00  0.00    +0.000 C 
ATOM      7  O   UNL     1       2.413   8.146  18.462  0.00  0.00    +0.000 OA
ATOM      8  N   UNL     1       3.597   5.645  18.317  0.00  0.00    +0.000 NA
ATOM      9  H   UNL     1       1.856   6.309  21.012  0.00  0.00    +0.000 HD
ENDROOT
BRANCH   6  10
ATOM     10  C   UNL     1       1.284   8.696  20.439  0.00  0.00    +0.000 A 
ATOM     11  C   UNL     1       1.059   8.541  21.797  0.00  0.00    +0.000 A 
ATOM     12  C   UNL     1       0.283   9.600  22.349  0.00  0.00    +0.000 A 
ATOM     13  C   UNL     1      -0.064  10.531  21.397  0.00  0.00    +0.000 A 
ATOM     14  S   UNL     1       0.544  10.129  19.853  0.00  0.00    +0.000 S 
ENDBRANCH   6  10
BRANCH   1  15
ATOM     15  C   UNL     1       4.720   4.170  16.688  0.00  0.00    +0.000 C 
BRANCH  15  17
ATOM     16  C   UNL     1       6.810   5.583  16.199  0.00  0.00    +0.000 C 
ATOM     17  C   UNL     1       6.244   4.297  16.799  0.00  0.00    +0.000 C 
BRANCH  17  18
ATOM     18  O   UNL     1       6.615   4.250  18.183  0.00  0.00    +0.000 OA
ATOM     19  H   UNL     1       5.817   4.032  18.696  0.00  0.00    +0.000 HD
ENDBRANCH  17  18
ENDBRANCH  15  17
ENDBRANCH   1  15
TORSDOF 4
ENDMDL
