MODEL 1
REMARK VINA RESULT:      -7.9      0.000      0.000
REMARK  Name = 
REMARK  6 active torsions:
REMARK  status: ('A' for Active; 'I' for Inactive)
REMARK    1  A    between atoms: C_1  and  C_2
REMARK    2  A    between atoms: C_6  and  N_7
REMARK    3  A    between atoms: C_8  and  C_10
REMARK    4  A    between atoms: C_14  and  N_15
REMARK    5  A    between atoms: C_16  and  C_18
REMARK    6  A    between atoms: C_18  and  N_19
REMARK                            x       y       z     vdW  Elec       q    Type
REMARK                         _______ _______ _______ _____ _____    ______ ____
ROOT
ATOM      1  C   UNL     1       0.888   9.582  20.268  0.00  0.00    +0.000 A 
ATOM      2  C   UNL     1       0.689  10.045  18.968  0.00  0.00    +0.000 A 
ATOM      3  C   UNL     1       1.241   9.341  17.899  0.00  0.00    +0.000 A 
ATOM      4  C   UNL     1       1.992   8.180  18.121  0.00  0.00    +0.000 A 
ATOM      5  C   UNL     1       2.189   7.688  19.415  0.00  0.00    +0.000 A 
ATOM      6  C   UNL     1       1.621   8.393  20.484  0.00  0.00    +0.000 A 
ENDROOT
BRANCH   1   8
ATOM      7  N   UNL     1      -0.506  11.368  21.192  0.00  0.00    +0.000 N 
ATOM      8  C   UNL     1       0.329  10.293  21.455  0.00  0.00    +0.000 C 
ATOM      9  O   UNL     1       0.723   9.918  22.559  0.00  0.00    +0.000 OA
ATOM     10  H   UNL     1      -0.608  11.664  20.231  0.00  0.00    +0.000 HD
BRANCH   7  16
ATOM     11  C   UNL     1      -4.171  12.357  24.351  0.00  0.00    +0.000 C 
ATOM     12  C   UNL     1      -2.856  12.738  23.730  0.00  0.00    +0.000 A 
ATOM     13  C   UNL     1      -2.299  13.996  23.977  0.00  0.00    +0.000 A 
ATOM     14  C   UNL     1      -1.116  14.371  23.345  0.00  0.00    +0.000 A 
ATOM     15  C   UNL     1      -0.496  13.509  22.438  0.00  0.00    +0.000 A 
ATOM     16  C   UNL     1      -1.043  12.255  22.160  0.00  0.00    +0.000 A 
ATOM     17  C   UNL     1      -2.206  11.861  22.842  0.00  0.00    +0.000 A 
ENDBRANCH   7  16
ENDBRANCH   1   8
BRANCH   5  18
ATOM     18  N   UNL     1       2.963   6.529  19.704  0.00  0.00    +0.000 N 
ATOM     19  C   UNL     1       2.714   5.251  19.225  0.00  0.00    +0.000 C 
ATOM     20  O   UNL     1       1.747   4.908  18.547  0.00  0.00    +0.000 OA
ATOM     21  H   UNL     1       3.712   6.680  20.371  0.00  0.00    +0.000 HD
BRANCH  19  22
ATOM     22  C   UNL     1       3.784   4.211  19.515  0.00  0.00    +0.000 C 
BRANCH  22  23
ATOM     23  N   UNL     1       4.946   4.378  18.606  0.00  0.00    +0.000 N 
ATOM     24  C   UNL     1       4.839   3.999  17.311  0.00  0.00    +0.000 A 
ATOM     25  C   UNL     1       5.907   4.151  16.433  0.00  0.00    +0.000 A 
ATOM     26  C   UNL     1       7.094   4.701  16.892  0.00  0.00    +0.000 A 
ATOM     27  C   UNL     1       7.189   5.101  18.219  0.00  0.00    +0.000 A 
ATOM     28  C   UNL     1       6.095   4.939  19.062  0.00  0.00    +0.000 A 
ENDBRANCH  22  23
ENDBRANCH  19  22
ENDBRANCH   5  18
TORSDOF 5
ENDMDL
MODEL 2
REMARK VINA RESULT:      -7.9      0.433      1.024
REMARK  Name = 
REMARK  6 active torsions:
REMARK  status: ('A' for Active; 'I' for Inactive)
REMARK    1  A    between atoms: C_1  and  C_2
REMARK    2  A    between atoms: C_6  and  N_7
REMARK    3  A    between atoms: C_8  and  C_10
REMARK    4  A    between atoms: C_14  and  N_15
REMARK    5  A    between atoms: C_16  and  C_18
REMARK    6  A    between atoms: C_18  and  N_19
REMARK                            x       y       z     vdW  Elec       q    Type
REMARK                         _______ _______ _______ _____ _____    ______ ____
ROOT
ATOM      1  C   UNL     1       0.680   9.791  20.576  0.00  0.00    +0.000 A 
ATOM      2  C   UNL     1       0.525  10.304  19.290  0.00  0.00    +0.000 A 
ATOM      3  C   UNL     1       1.099   9.634  18.212  0.00  0.00    +0.000 A 
ATOM      4  C   UNL     1       1.829   8.455  18.412  0.00  0.00    +0.000 A 
ATOM      5  C   UNL     1       1.981   7.913  19.691  0.00  0.00    +0.000 A 
ATOM      6  C   UNL     1       1.391   8.585  20.769  0.00  0.00    +0.000 A 
ENDROOT
BRANCH   1   8
ATOM      7  N   UNL     1      -0.778  11.513  21.524  0.00  0.00    +0.000 N 
ATOM      8  C   UNL     1       0.095  10.465  21.773  0.00  0.00    +0.000 C 
ATOM      9  O   UNL     1       0.501  10.089  22.871  0.00  0.00    +0.000 OA
ATOM     10  H   UNL     1      -0.890  11.818  20.567  0.00  0.00    +0.000 HD
BRANCH   7  16
ATOM     11  C   UNL     1      -4.556  12.406  24.577  0.00  0.00    +0.000 C 
ATOM     12  C   UNL     1      -3.217  12.802  24.021  0.00  0.00    +0.000 A 
ATOM     13  C   UNL     1      -2.663  14.046  24.336  0.00  0.00    +0.000 A 
ATOM     14  C   UNL     1      -1.456  14.438  23.763  0.00  0.00    +0.000 A 
ATOM     15  C   UNL     1      -0.806  13.606  22.848  0.00  0.00    +0.000 A 
ATOM     16  C   UNL     1      -1.348  12.367  22.503  0.00  0.00    +0.000 A 
ATOM     17  C   UNL     1      -2.537  11.955  23.126  0.00  0.00    +0.000 A 
ENDBRANCH   7  16
ENDBRANCH   1   8
BRANCH   5  18
ATOM     18  N   UNL     1       2.732   6.733  19.959  0.00  0.00    +0.000 N 
ATOM     19  C   UNL     1       2.693   5.564  19.213  0.00  0.00    +0.000 C 
ATOM     20  O   UNL     1       1.950   5.339  18.260  0.00  0.00    +0.000 OA
ATOM     21  H   UNL     1       3.280   6.769  20.811  0.00  0.00    +0.000 HD
BRANCH  19  22
ATOM     22  C   UNL     1       3.721   4.506  19.579  0.00  0.00    +0.000 C 
BRANCH  22  23
ATOM     23  N   UNL     1       4.947   4.652  18.755  0.00  0.00    +0.000 N 
ATOM     24  C   UNL     1       6.039   5.253  19.283  0.00  0.00    +0.000 A 
ATOM     25  C   UNL     1       7.204   5.398  18.539  0.00  0.00    +0.000 A 
ATOM     26  C   UNL     1       7.248   4.916  17.239  0.00  0.00    +0.000 A 
ATOM     27  C   UNL     1       6.128   4.288  16.711  0.00  0.00    +0.000 A 
ATOM     28  C   UNL     1       4.985   4.156  17.491  0.00  0.00    +0.000 A 
ENDBRANCH  22  23
ENDBRANCH  19  22
ENDBRANCH   5  18
TORSDOF 5
ENDMDL
MODEL 3
REMARK VINA RESULT:      -7.5      1.174      2.120
REMARK  Name = 
REMARK  6 active torsions:
REMARK  status: ('A' for Active; 'I' for Inactive)
REMARK    1  A    between atoms: C_1  and  C_2
REMARK    2  A    between atoms: C_6  and  N_7
REMARK    3  A    between atoms: C_8  and  C_10
REMARK    4  A    between atoms: C_14  and  N_15
REMARK    5  A    between atoms: C_16  and  C_18
REMARK    6  A    between atoms: C_18  and  N_19
REMARK                            x       y       z     vdW  Elec       q    Type
REMARK                         _______ _______ _______ _____ _____    ______ ____
ROOT
ATOM      1  C   UNL     1       0.269  10.000  21.007  0.00  0.00    +0.000 A 
ATOM      2  C   UNL     1       0.199  10.545  19.727  0.00  0.00    +0.000 A 
ATOM      3  C   UNL     1       0.848   9.904  18.673  0.00  0.00    +0.000 A 
ATOM      4  C   UNL     1       1.568   8.722  18.893  0.00  0.00    +0.000 A 
ATOM      5  C   UNL     1       1.636   8.148  20.166  0.00  0.00    +0.000 A 
ATOM      6  C   UNL     1       0.971   8.792  21.217  0.00  0.00    +0.000 A 
ENDROOT
BRANCH   1   8
ATOM      7  N   UNL     1      -1.305  11.652  21.893  0.00  0.00    +0.000 N 
ATOM      8  C   UNL     1      -0.399  10.642  22.178  0.00  0.00    +0.000 C 
ATOM      9  O   UNL     1      -0.026  10.279  23.293  0.00  0.00    +0.000 OA
ATOM     10  H   UNL     1      -1.386  11.956  20.933  0.00  0.00    +0.000 HD
BRANCH   7  16
ATOM     11  C   UNL     1      -1.061  15.623  24.818  0.00  0.00    +0.000 C 
ATOM     12  C   UNL     1      -1.834  14.448  24.289  0.00  0.00    +0.000 A 
ATOM     13  C   UNL     1      -3.062  14.099  24.858  0.00  0.00    +0.000 A 
ATOM     14  C   UNL     1      -3.742  12.969  24.413  0.00  0.00    +0.000 A 
ATOM     15  C   UNL     1      -3.189  12.158  23.419  0.00  0.00    +0.000 A 
ATOM     16  C   UNL     1      -1.955  12.475  22.848  0.00  0.00    +0.000 A 
ATOM     17  C   UNL     1      -1.301  13.646  23.263  0.00  0.00    +0.000 A 
ENDBRANCH   7  16
ENDBRANCH   1   8
BRANCH   5  18
ATOM     18  N   UNL     1       2.372   6.964  20.454  0.00  0.00    +0.000 N 
ATOM     19  C   UNL     1       1.845   5.683  20.526  0.00  0.00    +0.000 C 
ATOM     20  O   UNL     1       0.656   5.383  20.433  0.00  0.00    +0.000 OA
ATOM     21  H   UNL     1       3.348   7.121  20.682  0.00  0.00    +0.000 HD
BRANCH  19  22
ATOM     22  C   UNL     1       2.855   4.554  20.660  0.00  0.00    +0.000 C 
BRANCH  22  23
ATOM     23  N   UNL     1       3.563   4.323  19.376  0.00  0.00    +0.000 N 
ATOM     24  C   UNL     1       4.879   4.627  19.275  0.00  0.00    +0.000 A 
ATOM     25  C   UNL     1       5.572   4.415  18.089  0.00  0.00    +0.000 A 
ATOM     26  C   UNL     1       4.905   3.881  16.996  0.00  0.00    +0.000 A 
ATOM     27  C   UNL     1       3.560   3.558  17.113  0.00  0.00    +0.000 A 
ATOM     28  C   UNL     1       2.905   3.779  18.320  0.00  0.00    +0.000 A 
ENDBRANCH  22  23
ENDBRANCH  19  22
ENDBRANCH   5  18
TORSDOF 5
ENDMDL
MODEL 4
REMARK VINA RESULT:      -7.5      3.396      4.648
REMARK  Name = 
REMARK  6 active torsions:
REMARK  status: ('A' for Active; 'I' for Inactive)
REMARK    1  A    between atoms: C_1  and  C_2
REMARK    2  A    between atoms: C_6  and  N_7
REMARK    3  A    between atoms: C_8  and  C_10
REMARK    4  A    between atoms: C_14  and  N_15
REMARK    5  A    between atoms: C_16  and  C_18
REMARK    6  A    between atoms: C_18  and  N_19
REMARK                            x       y       z     vdW  Elec       q    Type
REMARK                         _______ _______ _______ _____ _____    ______ ____
ROOT
ATOM      1  C   UNL     1       2.602   7.236  18.749  0.00  0.00    +0.000 A 
ATOM      2  C   UNL     1       2.078   6.560  19.848  0.00  0.00    +0.000 A 
ATOM      3  C   UNL     1       2.608   5.322  20.207  0.00  0.00    +0.000 A 
ATOM      4  C   UNL     1       3.656   4.755  19.472  0.00  0.00    +0.000 A 
ATOM      5  C   UNL     1       4.209   5.425  18.375  0.00  0.00    +0.000 A 
ATOM      6  C   UNL     1       3.680   6.674  18.029  0.00  0.00    +0.000 A 
ENDROOT
BRANCH   1   8
ATOM      7  N   UNL     1       1.259   9.229  19.211  0.00  0.00    +0.000 N 
ATOM      8  C   UNL     1       2.075   8.563  18.310  0.00  0.00    +0.000 C 
ATOM      9  O   UNL     1       2.341   8.909  17.160  0.00  0.00    +0.000 OA
ATOM     10  H   UNL     1       0.993   8.744  20.057  0.00  0.00    +0.000 HD
BRANCH   7  16
ATOM     11  C   UNL     1      -2.915  11.360  17.655  0.00  0.00    +0.000 C 
ATOM     12  C   UNL     1      -1.517  11.487  18.193  0.00  0.00    +0.000 A 
ATOM     13  C   UNL     1      -0.899  12.738  18.259  0.00  0.00    +0.000 A 
ATOM     14  C   UNL     1       0.420  12.843  18.693  0.00  0.00    +0.000 A 
ATOM     15  C   UNL     1       1.144  11.697  19.032  0.00  0.00    +0.000 A 
ATOM     16  C   UNL     1       0.555  10.434  18.956  0.00  0.00    +0.000 A 
ATOM     17  C   UNL     1      -0.793  10.342  18.571  0.00  0.00    +0.000 A 
ENDBRANCH   7  16
ENDBRANCH   1   8
BRANCH   5  18
ATOM     18  N   UNL     1       5.258   4.888  17.576  0.00  0.00    +0.000 N 
ATOM     19  C   UNL     1       6.090   5.616  16.739  0.00  0.00    +0.000 C 
ATOM     20  O   UNL     1       6.001   6.818  16.498  0.00  0.00    +0.000 OA
ATOM     21  H   UNL     1       5.328   3.876  17.601  0.00  0.00    +0.000 HD
BRANCH  19  22
ATOM     22  C   UNL     1       7.257   4.853  16.132  0.00  0.00    +0.000 C 
BRANCH  22  23
ATOM     23  N   UNL     1       7.027   4.595  14.689  0.00  0.00    +0.000 N 
ATOM     24  C   UNL     1       6.047   3.740  14.312  0.00  0.00    +0.000 A 
ATOM     25  C   UNL     1       5.802   3.483  12.968  0.00  0.00    +0.000 A 
ATOM     26  C   UNL     1       6.571   4.114  12.002  0.00  0.00    +0.000 A 
ATOM     27  C   UNL     1       7.564   5.000  12.397  0.00  0.00    +0.000 A 
ATOM     28  C   UNL     1       7.772   5.236  13.752  0.00  0.00    +0.000 A 
ENDBRANCH  22  23
ENDBRANCH  19  22
ENDBRANCH   5  18
TORSDOF 5
ENDMDL
MODEL 5
REMARK VINA RESULT:      -7.4      3.453      3.983
REMARK  Name = 
REMARK  6 active torsions:
REMARK  status: ('A' for Active; 'I' for Inactive)
REMARK    1  A    between atoms: C_1  and  C_2
REMARK    2  A    between atoms: C_6  and  N_7
REMARK    3  A    between atoms: C_8  and  C_10
REMARK    4  A    between atoms: C_14  and  N_15
REMARK    5  A    between atoms: C_16  and  C_18
REMARK    6  A    between atoms: C_18  and  N_19
REMARK                            x       y       z     vdW  Elec       q    Type
REMARK                         _______ _______ _______ _____ _____    ______ ____
ROOT
ATOM      1  C   UNL     1      -0.811  10.830  18.323  0.00  0.00    +0.000 A 
ATOM      2  C   UNL     1      -0.130  11.978  18.723  0.00  0.00    +0.000 A 
ATOM      3  C   UNL     1       1.262  11.959  18.795  0.00  0.00    +0.000 A 
ATOM      4  C   UNL     1       1.976  10.799  18.471  0.00  0.00    +0.000 A 
ATOM      5  C   UNL     1       1.315   9.641  18.050  0.00  0.00    +0.000 A 
ATOM      6  C   UNL     1      -0.083   9.672  17.968  0.00  0.00    +0.000 A 
ENDROOT
BRANCH   1   8
ATOM      7  N   UNL     1      -2.972  11.955  18.546  0.00  0.00    +0.000 N 
ATOM      8  C   UNL     1      -2.300  10.784  18.232  0.00  0.00    +0.000 C 
ATOM      9  O   UNL     1      -2.803   9.693  17.970  0.00  0.00    +0.000 OA
ATOM     10  H   UNL     1      -2.431  12.729  18.906  0.00  0.00    +0.000 HD
BRANCH   7  16
ATOM     11  C   UNL     1      -6.919  12.324  21.491  0.00  0.00    +0.000 C 
ATOM     12  C   UNL     1      -6.332  12.291  20.108  0.00  0.00    +0.000 A 
ATOM     13  C   UNL     1      -7.168  12.228  18.989  0.00  0.00    +0.000 A 
ATOM     14  C   UNL     1      -6.620  12.128  17.713  0.00  0.00    +0.000 A 
ATOM     15  C   UNL     1      -5.235  12.058  17.543  0.00  0.00    +0.000 A 
ATOM     16  C   UNL     1      -4.380  12.101  18.646  0.00  0.00    +0.000 A 
ATOM     17  C   UNL     1      -4.938  12.257  19.925  0.00  0.00    +0.000 A 
ENDBRANCH   7  16
ENDBRANCH   1   8
BRANCH   5  18
ATOM     18  N   UNL     1       1.985   8.427  17.732  0.00  0.00    +0.000 N 
ATOM     19  C   UNL     1       2.390   7.464  18.645  0.00  0.00    +0.000 C 
ATOM     20  O   UNL     1       2.305   7.547  19.868  0.00  0.00    +0.000 OA
ATOM     21  H   UNL     1       2.226   8.324  16.751  0.00  0.00    +0.000 HD
BRANCH  19  22
ATOM     22  C   UNL     1       2.917   6.166  18.054  0.00  0.00    +0.000 C 
BRANCH  22  23
ATOM     23  N   UNL     1       4.400   6.128  18.098  0.00  0.00    +0.000 N 
ATOM     24  C   UNL     1       5.113   6.793  17.158  0.00  0.00    +0.000 A 
ATOM     25  C   UNL     1       6.503   6.783  17.177  0.00  0.00    +0.000 A 
ATOM     26  C   UNL     1       7.167   6.085  18.175  0.00  0.00    +0.000 A 
ATOM     27  C   UNL     1       6.428   5.418  19.143  0.00  0.00    +0.000 A 
ATOM     28  C   UNL     1       5.039   5.459  19.093  0.00  0.00    +0.000 A 
ENDBRANCH  22  23
ENDBRANCH  19  22
ENDBRANCH   5  18
TORSDOF 5
ENDMDL
MODEL 6
REMARK VINA RESULT:      -7.4      2.060     10.250
REMARK  Name = 
REMARK  6 active torsions:
REMARK  status: ('A' for Active; 'I' for Inactive)
REMARK    1  A    between atoms: C_1  and  C_2
REMARK    2  A    between atoms: C_6  and  N_7
REMARK    3  A    between atoms: C_8  and  C_10
REMARK    4  A    between atoms: C_14  and  N_15
REMARK    5  A    between atoms: C_16  and  C_18
REMARK    6  A    between atoms: C_18  and  N_19
REMARK                            x       y       z     vdW  Elec       q    Type
REMARK                         _______ _______ _______ _____ _____    ______ ____
ROOT
ATOM      1  C   UNL     1       3.037   5.802  18.584  0.00  0.00    +0.000 A 
ATOM      2  C   UNL     1       2.530   4.554  18.941  0.00  0.00    +0.000 A 
ATOM      3  C   UNL     1       1.737   4.438  20.081  0.00  0.00    +0.000 A 
ATOM      4  C   UNL     1       1.450   5.562  20.867  0.00  0.00    +0.000 A 
ATOM      5  C   UNL     1       1.932   6.827  20.516  0.00  0.00    +0.000 A 
ATOM      6  C   UNL     1       2.718   6.937  19.362  0.00  0.00    +0.000 A 
ENDROOT
BRANCH   1   8
ATOM      7  N   UNL     1       4.424   4.841  16.811  0.00  0.00    +0.000 N 
ATOM      8  C   UNL     1       3.896   5.991  17.378  0.00  0.00    +0.000 C 
ATOM      9  O   UNL     1       4.131   7.152  17.044  0.00  0.00    +0.000 OA
ATOM     10  H   UNL     1       4.278   3.966  17.295  0.00  0.00    +0.000 HD
BRANCH   7  16
ATOM     11  C   UNL     1       5.474   3.242  12.258  0.00  0.00    +0.000 C 
ATOM     12  C   UNL     1       5.873   4.011  13.486  0.00  0.00    +0.000 A 
ATOM     13  C   UNL     1       7.176   4.497  13.620  0.00  0.00    +0.000 A 
ATOM     14  C   UNL     1       7.562   5.147  14.790  0.00  0.00    +0.000 A 
ATOM     15  C   UNL     1       6.661   5.290  15.848  0.00  0.00    +0.000 A 
ATOM     16  C   UNL     1       5.359   4.797  15.745  0.00  0.00    +0.000 A 
ATOM     17  C   UNL     1       4.961   4.191  14.543  0.00  0.00    +0.000 A 
ENDBRANCH   7  16
ENDBRANCH   1   8
BRANCH   5  18
ATOM     18  N   UNL     1       1.693   7.998  21.288  0.00  0.00    +0.000 N 
ATOM     19  C   UNL     1       0.454   8.435  21.732  0.00  0.00    +0.000 C 
ATOM     20  O   UNL     1      -0.632   7.926  21.462  0.00  0.00    +0.000 OA
ATOM     21  H   UNL     1       2.517   8.568  21.452  0.00  0.00    +0.000 HD
BRANCH  19  22
ATOM     22  C   UNL     1       0.469   9.609  22.699  0.00  0.00    +0.000 C 
BRANCH  22  23
ATOM     23  N   UNL     1      -0.482  10.663  22.266  0.00  0.00    +0.000 N 
ATOM     24  C   UNL     1      -1.404  11.130  23.140  0.00  0.00    +0.000 A 
ATOM     25  C   UNL     1      -2.303  12.123  22.766  0.00  0.00    +0.000 A 
ATOM     26  C   UNL     1      -2.251  12.643  21.482  0.00  0.00    +0.000 A 
ATOM     27  C   UNL     1      -1.291  12.168  20.597  0.00  0.00    +0.000 A 
ATOM     28  C   UNL     1      -0.406  11.180  21.012  0.00  0.00    +0.000 A 
ENDBRANCH  22  23
ENDBRANCH  19  22
ENDBRANCH   5  18
TORSDOF 5
ENDMDL
MODEL 7
REMARK VINA RESULT:      -7.4      2.127     10.148
REMARK  Name = 
REMARK  6 active torsions:
REMARK  status: ('A' for Active; 'I' for Inactive)
REMARK    1  A    between atoms: C_1  and  C_2
REMARK    2  A    between atoms: C_6  and  N_7
REMARK    3  A    between atoms: C_8  and  C_10
REMARK    4  A    between atoms: C_14  and  N_15
REMARK    5  A    between atoms: C_16  and  C_18
REMARK    6  A    between atoms: C_18  and  N_19
REMARK                            x       y       z     vdW  Elec       q    Type
REMARK                         _______ _______ _______ _____ _____    ______ ____
ROOT
ATOM      1  C   UNL     1       2.881   4.233  18.657  0.00  0.00    +0.000 A 
ATOM      2  C   UNL     1       1.898   3.321  19.037  0.00  0.00    +0.000 A 
ATOM      3  C   UNL     1       0.968   3.683  20.009  0.00  0.00    +0.000 A 
ATOM      4  C   UNL     1       1.016   4.949  20.606  0.00  0.00    +0.000 A 
ATOM      5  C   UNL     1       1.983   5.886  20.227  0.00  0.00    +0.000 A 
ATOM      6  C   UNL     1       2.907   5.520  19.240  0.00  0.00    +0.000 A 
ENDROOT
BRANCH   1   8
ATOM      7  N   UNL     1       4.462   4.977  16.944  0.00  0.00    +0.000 N 
ATOM      8  C   UNL     1       3.909   3.904  17.625  0.00  0.00    +0.000 C 
ATOM      9  O   UNL     1       4.113   2.710  17.410  0.00  0.00    +0.000 OA
ATOM     10  H   UNL     1       4.074   5.895  17.112  0.00  0.00    +0.000 HD
BRANCH   7  16
ATOM     11  C   UNL     1       5.249   3.391  12.333  0.00  0.00    +0.000 C 
ATOM     12  C   UNL     1       5.740   4.110  13.559  0.00  0.00    +0.000 A 
ATOM     13  C   UNL     1       7.078   4.504  13.655  0.00  0.00    +0.000 A 
ATOM     14  C   UNL     1       7.545   5.107  14.821  0.00  0.00    +0.000 A 
ATOM     15  C   UNL     1       6.691   5.292  15.911  0.00  0.00    +0.000 A 
ATOM     16  C   UNL     1       5.356   4.889  15.846  0.00  0.00    +0.000 A 
ATOM     17  C   UNL     1       4.878   4.333  14.648  0.00  0.00    +0.000 A 
ENDBRANCH   7  16
ENDBRANCH   1   8
BRANCH   5  18
ATOM     18  N   UNL     1       2.097   7.177  20.815  0.00  0.00    +0.000 N 
ATOM     19  C   UNL     1       1.040   7.958  21.259  0.00  0.00    +0.000 C 
ATOM     20  O   UNL     1      -0.155   7.694  21.142  0.00  0.00    +0.000 OA
ATOM     21  H   UNL     1       3.041   7.548  20.835  0.00  0.00    +0.000 HD
BRANCH  19  22
ATOM     22  C   UNL     1       1.419   9.218  22.024  0.00  0.00    +0.000 C 
BRANCH  22  23
ATOM     23  N   UNL     1       0.320  10.215  21.977  0.00  0.00    +0.000 N 
ATOM     24  C   UNL     1       0.136  10.953  20.856  0.00  0.00    +0.000 A 
ATOM     25  C   UNL     1      -0.889  11.889  20.779  0.00  0.00    +0.000 A 
ATOM     26  C   UNL     1      -1.734  12.066  21.864  0.00  0.00    +0.000 A 
ATOM     27  C   UNL     1      -1.547  11.295  23.004  0.00  0.00    +0.000 A 
ATOM     28  C   UNL     1      -0.515  10.363  23.037  0.00  0.00    +0.000 A 
ENDBRANCH  22  23
ENDBRANCH  19  22
ENDBRANCH   5  18
TORSDOF 5
ENDMDL
MODEL 8
REMARK VINA RESULT:      -7.4      1.692      2.691
REMARK  Name = 
REMARK  6 active torsions:
REMARK  status: ('A' for Active; 'I' for Inactive)
REMARK    1  A    between atoms: C_1  and  C_2
REMARK    2  A    between atoms: C_6  and  N_7
REMARK    3  A    between atoms: C_8  and  C_10
REMARK    4  A    between atoms: C_14  and  N_15
REMARK    5  A    between atoms: C_16  and  C_18
REMARK    6  A    between atoms: C_18  and  N_19
REMARK                            x       y       z     vdW  Elec       q    Type
REMARK                         _______ _______ _______ _____ _____    ______ ____
ROOT
ATOM      1  C   UNL     1       0.659  10.108  20.411  0.00  0.00    +0.000 A 
ATOM      2  C   UNL     1       0.621  10.741  19.171  0.00  0.00    +0.000 A 
ATOM      3  C   UNL     1       1.160  10.099  18.057  0.00  0.00    +0.000 A 
ATOM      4  C   UNL     1       1.736   8.828  18.177  0.00  0.00    +0.000 A 
ATOM      5  C   UNL     1       1.769   8.166  19.409  0.00  0.00    +0.000 A 
ATOM      6  C   UNL     1       1.215   8.813  20.521  0.00  0.00    +0.000 A 
ENDROOT
BRANCH   1   8
ATOM      7  N   UNL     1      -0.871  11.711  21.450  0.00  0.00    +0.000 N 
ATOM      8  C   UNL     1       0.105  10.744  21.642  0.00  0.00    +0.000 C 
ATOM      9  O   UNL     1       0.620  10.419  22.712  0.00  0.00    +0.000 OA
ATOM     10  H   UNL     1      -1.076  11.993  20.502  0.00  0.00    +0.000 HD
BRANCH   7  16
ATOM     11  C   UNL     1      -4.599  12.429  24.608  0.00  0.00    +0.000 C 
ATOM     12  C   UNL     1      -3.284  12.874  24.032  0.00  0.00    +0.000 A 
ATOM     13  C   UNL     1      -2.757  14.126  24.363  0.00  0.00    +0.000 A 
ATOM     14  C   UNL     1      -1.574  14.563  23.773  0.00  0.00    +0.000 A 
ATOM     15  C   UNL     1      -0.924  13.771  22.824  0.00  0.00    +0.000 A 
ATOM     16  C   UNL     1      -1.440  12.526  22.462  0.00  0.00    +0.000 A 
ATOM     17  C   UNL     1      -2.603  12.067  23.102  0.00  0.00    +0.000 A 
ENDBRANCH   7  16
ENDBRANCH   1   8
BRANCH   5  18
ATOM     18  N   UNL     1       2.363   6.887  19.596  0.00  0.00    +0.000 N 
ATOM     19  C   UNL     1       3.450   6.390  18.892  0.00  0.00    +0.000 C 
ATOM     20  O   UNL     1       4.015   6.941  17.949  0.00  0.00    +0.000 OA
ATOM     21  H   UNL     1       1.883   6.295  20.265  0.00  0.00    +0.000 HD
BRANCH  19  22
ATOM     22  C   UNL     1       4.026   5.076  19.396  0.00  0.00    +0.000 C 
BRANCH  22  23
ATOM     23  N   UNL     1       2.972   4.035  19.483  0.00  0.00    +0.000 N 
ATOM     24  C   UNL     1       2.536   3.627  20.698  0.00  0.00    +0.000 A 
ATOM     25  C   UNL     1       1.544   2.659  20.812  0.00  0.00    +0.000 A 
ATOM     26  C   UNL     1       0.994   2.108  19.664  0.00  0.00    +0.000 A 
ATOM     27  C   UNL     1       1.437   2.543  18.422  0.00  0.00    +0.000 A 
ATOM     28  C   UNL     1       2.425   3.519  18.352  0.00  0.00    +0.000 A 
ENDBRANCH  22  23
ENDBRANCH  19  22
ENDBRANCH   5  18
TORSDOF 5
ENDMDL
MODEL 9
REMARK VINA RESULT:      -7.3      2.982      9.959
REMARK  Name = 
REMARK  6 active torsions:
REMARK  status: ('A' for Active; 'I' for Inactive)
REMARK    1  A    between atoms: C_1  and  C_2
REMARK    2  A    between atoms: C_6  and  N_7
REMARK    3  A    between atoms: C_8  and  C_10
REMARK    4  A    between atoms: C_14  and  N_15
REMARK    5  A    between atoms: C_16  and  C_18
REMARK    6  A    between atoms: C_18  and  N_19
REMARK                            x       y       z     vdW  Elec       q    Type
REMARK                         _______ _______ _______ _____ _____    ______ ____
ROOT
ATOM      1  C   UNL     1       3.443   4.380  19.003  0.00  0.00    +0.000 A 
ATOM      2  C   UNL     1       2.709   3.223  19.254  0.00  0.00    +0.000 A 
ATOM      3  C   UNL     1       1.598   3.285  20.093  0.00  0.00    +0.000 A 
ATOM      4  C   UNL     1       1.218   4.496  20.684  0.00  0.00    +0.000 A 
ATOM      5  C   UNL     1       1.929   5.673  20.432  0.00  0.00    +0.000 A 
ATOM      6  C   UNL     1       3.037   5.606  19.578  0.00  0.00    +0.000 A 
ENDROOT
BRANCH   1   8
ATOM      7  N   UNL     1       4.462   4.852  16.829  0.00  0.00    +0.000 N 
ATOM      8  C   UNL     1       4.646   4.379  18.119  0.00  0.00    +0.000 C 
ATOM      9  O   UNL     1       5.671   3.882  18.582  0.00  0.00    +0.000 OA
ATOM     10  H   UNL     1       3.520   5.075  16.536  0.00  0.00    +0.000 HD
BRANCH   7  16
ATOM     11  C   UNL     1       5.678   3.261  12.314  0.00  0.00    +0.000 C 
ATOM     12  C   UNL     1       6.025   4.042  13.551  0.00  0.00    +0.000 A 
ATOM     13  C   UNL     1       7.313   4.557  13.721  0.00  0.00    +0.000 A 
ATOM     14  C   UNL     1       7.650   5.220  14.898  0.00  0.00    +0.000 A 
ATOM     15  C   UNL     1       6.716   5.347  15.929  0.00  0.00    +0.000 A 
ATOM     16  C   UNL     1       5.428   4.825  15.791  0.00  0.00    +0.000 A 
ATOM     17  C   UNL     1       5.079   4.207  14.579  0.00  0.00    +0.000 A 
ENDBRANCH   7  16
ENDBRANCH   1   8
BRANCH   5  18
ATOM     18  N   UNL     1       1.605   6.927  21.024  0.00  0.00    +0.000 N 
ATOM     19  C   UNL     1       1.564   8.145  20.363  0.00  0.00    +0.000 C 
ATOM     20  O   UNL     1       1.876   8.344  19.190  0.00  0.00    +0.000 OA
ATOM     21  H   UNL     1       1.461   6.892  22.027  0.00  0.00    +0.000 HD
BRANCH  19  22
ATOM     22  C   UNL     1       1.008   9.316  21.159  0.00  0.00    +0.000 C 
BRANCH  22  23
ATOM     23  N   UNL     1       0.416  10.336  20.257  0.00  0.00    +0.000 N 
ATOM     24  C   UNL     1       1.077  11.497  20.037  0.00  0.00    +0.000 A 
ATOM     25  C   UNL     1       0.552  12.468  19.192  0.00  0.00    +0.000 A 
ATOM     26  C   UNL     1      -0.664  12.241  18.565  0.00  0.00    +0.000 A 
ATOM     27  C   UNL     1      -1.328  11.041  18.785  0.00  0.00    +0.000 A 
ATOM     28  C   UNL     1      -0.765  10.092  19.632  0.00  0.00    +0.000 A 
ENDBRANCH  22  23
ENDBRANCH  19  22
ENDBRANCH   5  18
TORSDOF 5
ENDMDL
