MODEL 1
REMARK VINA RESULT:      -5.5      0.000      0.000
REMARK  Name = 
REMARK  3 active torsions:
REMARK  status: ('A' for Active; 'I' for Inactive)
REMARK    1  A    between atoms: C_1  and  N_2
REMARK    2  A    between atoms: C_6  and  N_7
REMARK    3  A    between atoms: N_10  and  C_11
REMARK                            x       y       z     vdW  Elec       q    Type
REMARK                         _______ _______ _______ _____ _____    ______ ____
ROOT
ATOM      1  C   UNL     1       1.230   3.488  19.175  0.00  0.00    +0.000 C 
ATOM      2  N   UNL     1       2.578   3.952  18.894  0.00  0.00    +0.000 N 
ATOM      3  C   UNL     1       3.296   4.585  19.872  0.00  0.00    +0.000 C 
ATOM      4  C   UNL     1       4.533   5.016  19.635  0.00  0.00    +0.000 C 
ATOM      5  C   UNL     1       5.174   4.842  18.336  0.00  0.00    +0.000 C 
ATOM      6  C   UNL     1       6.401   5.388  18.255  0.00  0.00    +0.000 C 
ATOM      7  N   UNL     1       4.428   4.117  17.391  0.00  0.00    +0.000 N 
ATOM      8  C   UNL     1       4.935   3.736  16.078  0.00  0.00    +0.000 C 
ATOM      9  C   UNL     1       3.095   3.697  17.623  0.00  0.00    +0.000 C 
ATOM     10  O   UNL     1       2.419   3.125  16.764  0.00  0.00    +0.000 OA
ENDROOT
BRANCH   6  11
ATOM     11  N   UNL     1       7.198   5.445  17.078  0.00  0.00    +0.000 N 
ATOM     12  O   UNL     1       8.000   4.518  16.919  0.00  0.00    +0.000 OA
ATOM     13  O   UNL     1       7.099   6.449  16.360  0.00  0.00    +0.000 OA
ENDBRANCH   6  11
TORSDOF 1
ENDMDL
MODEL 2
REMARK VINA RESULT:      -5.4      2.255      4.963
REMARK  Name = 
REMARK  3 active torsions:
REMARK  status: ('A' for Active; 'I' for Inactive)
REMARK    1  A    between atoms: C_1  and  N_2
REMARK    2  A    between atoms: C_6  and  N_7
REMARK    3  A    between atoms: N_10  and  C_11
REMARK                            x       y       z     vdW  Elec       q    Type
REMARK                         _______ _______ _______ _____ _____    ______ ____
ROOT
ATOM      1  C   UNL     1       6.213   6.615  17.569  0.00  0.00    +0.000 C 
ATOM      2  N   UNL     1       5.019   5.902  17.992  0.00  0.00    +0.000 N 
ATOM      3  C   UNL     1       3.783   6.413  17.697  0.00  0.00    +0.000 C 
ATOM      4  C   UNL     1       2.677   5.776  18.073  0.00  0.00    +0.000 C 
ATOM      5  C   UNL     1       2.726   4.519  18.815  0.00  0.00    +0.000 C 
ATOM      6  C   UNL     1       1.517   4.044  19.164  0.00  0.00    +0.000 C 
ATOM      7  N   UNL     1       4.014   3.996  19.023  0.00  0.00    +0.000 N 
ATOM      8  C   UNL     1       4.271   2.699  19.638  0.00  0.00    +0.000 C 
ATOM      9  C   UNL     1       5.194   4.693  18.665  0.00  0.00    +0.000 C 
ATOM     10  O   UNL     1       6.323   4.262  18.916  0.00  0.00    +0.000 OA
ENDROOT
BRANCH   6  11
ATOM     11  N   UNL     1       1.289   2.894  19.971  0.00  0.00    +0.000 N 
ATOM     12  O   UNL     1       1.132   1.828  19.366  0.00  0.00    +0.000 OA
ATOM     13  O   UNL     1       1.173   3.058  21.192  0.00  0.00    +0.000 OA
ENDBRANCH   6  11
TORSDOF 1
ENDMDL
MODEL 3
REMARK VINA RESULT:      -5.4      1.989      2.278
REMARK  Name = 
REMARK  3 active torsions:
REMARK  status: ('A' for Active; 'I' for Inactive)
REMARK    1  A    between atoms: C_1  and  N_2
REMARK    2  A    between atoms: C_6  and  N_7
REMARK    3  A    between atoms: N_10  and  C_11
REMARK                            x       y       z     vdW  Elec       q    Type
REMARK                         _______ _______ _______ _____ _____    ______ ____
ROOT
ATOM      1  C   UNL     1       2.233   2.666  20.347  0.00  0.00    +0.000 C 
ATOM      2  N   UNL     1       2.858   3.647  19.476  0.00  0.00    +0.000 N 
ATOM      3  C   UNL     1       2.092   4.618  18.888  0.00  0.00    +0.000 C 
ATOM      4  C   UNL     1       2.645   5.527  18.088  0.00  0.00    +0.000 C 
ATOM      5  C   UNL     1       4.076   5.531  17.799  0.00  0.00    +0.000 C 
ATOM      6  C   UNL     1       4.453   6.483  16.927  0.00  0.00    +0.000 C 
ATOM      7  N   UNL     1       4.830   4.565  18.487  0.00  0.00    +0.000 N 
ATOM      8  C   UNL     1       6.284   4.478  18.426  0.00  0.00    +0.000 C 
ATOM      9  C   UNL     1       4.240   3.567  19.303  0.00  0.00    +0.000 C 
ATOM     10  O   UNL     1       4.900   2.678  19.847  0.00  0.00    +0.000 OA
ENDROOT
BRANCH   6  11
ATOM     11  N   UNL     1       5.767   6.642  16.403  0.00  0.00    +0.000 N 
ATOM     12  O   UNL     1       6.492   7.453  16.989  0.00  0.00    +0.000 OA
ATOM     13  O   UNL     1       6.052   6.036  15.361  0.00  0.00    +0.000 OA
ENDBRANCH   6  11
TORSDOF 1
ENDMDL
MODEL 4
REMARK VINA RESULT:      -5.4      2.515      4.949
REMARK  Name = 
REMARK  3 active torsions:
REMARK  status: ('A' for Active; 'I' for Inactive)
REMARK    1  A    between atoms: C_1  and  N_2
REMARK    2  A    between atoms: C_6  and  N_7
REMARK    3  A    between atoms: N_10  and  C_11
REMARK                            x       y       z     vdW  Elec       q    Type
REMARK                         _______ _______ _______ _____ _____    ______ ____
ROOT
ATOM      1  C   UNL     1       6.020   6.623  17.248  0.00  0.00    +0.000 C 
ATOM      2  N   UNL     1       4.945   6.011  18.011  0.00  0.00    +0.000 N 
ATOM      3  C   UNL     1       3.734   6.642  18.104  0.00  0.00    +0.000 C 
ATOM      4  C   UNL     1       2.735   6.097  18.796  0.00  0.00    +0.000 C 
ATOM      5  C   UNL     1       2.883   4.819  19.486  0.00  0.00    +0.000 C 
ATOM      6  C   UNL     1       1.794   4.447  20.183  0.00  0.00    +0.000 C 
ATOM      7  N   UNL     1       4.117   4.174  19.295  0.00  0.00    +0.000 N 
ATOM      8  C   UNL     1       4.420   2.841  19.801  0.00  0.00    +0.000 C 
ATOM      9  C   UNL     1       5.197   4.770  18.598  0.00  0.00    +0.000 C 
ATOM     10  O   UNL     1       6.301   4.230  18.495  0.00  0.00    +0.000 OA
ENDROOT
BRANCH   6  11
ATOM     11  N   UNL     1       1.709   3.299  21.019  0.00  0.00    +0.000 N 
ATOM     12  O   UNL     1       2.181   3.416  22.155  0.00  0.00    +0.000 OA
ATOM     13  O   UNL     1       1.262   2.255  20.525  0.00  0.00    +0.000 OA
ENDBRANCH   6  11
TORSDOF 1
ENDMDL
MODEL 5
REMARK VINA RESULT:      -5.4      1.445      2.234
REMARK  Name = 
REMARK  3 active torsions:
REMARK  status: ('A' for Active; 'I' for Inactive)
REMARK    1  A    between atoms: C_1  and  N_2
REMARK    2  A    between atoms: C_6  and  N_7
REMARK    3  A    between atoms: N_10  and  C_11
REMARK                            x       y       z     vdW  Elec       q    Type
REMARK                         _______ _______ _______ _____ _____    ______ ____
ROOT
ATOM      1  C   UNL     1       1.530   3.179  19.421  0.00  0.00    +0.000 C 
ATOM      2  N   UNL     1       2.709   3.523  18.645  0.00  0.00    +0.000 N 
ATOM      3  C   UNL     1       2.777   3.174  17.323  0.00  0.00    +0.000 C 
ATOM      4  C   UNL     1       3.847   3.481  16.593  0.00  0.00    +0.000 C 
ATOM      5  C   UNL     1       4.989   4.191  17.161  0.00  0.00    +0.000 C 
ATOM      6  C   UNL     1       6.006   4.366  16.298  0.00  0.00    +0.000 C 
ATOM      7  N   UNL     1       4.839   4.597  18.498  0.00  0.00    +0.000 N 
ATOM      8  C   UNL     1       5.812   5.415  19.210  0.00  0.00    +0.000 C 
ATOM      9  C   UNL     1       3.722   4.233  19.291  0.00  0.00    +0.000 C 
ATOM     10  O   UNL     1       3.629   4.530  20.485  0.00  0.00    +0.000 OA
ENDROOT
BRANCH   6  11
ATOM     11  N   UNL     1       7.268   4.939  16.623  0.00  0.00    +0.000 N 
ATOM     12  O   UNL     1       8.057   4.207  17.231  0.00  0.00    +0.000 OA
ATOM     13  O   UNL     1       7.445   6.136  16.361  0.00  0.00    +0.000 OA
ENDBRANCH   6  11
TORSDOF 1
ENDMDL
MODEL 6
REMARK VINA RESULT:      -5.4      1.981      4.827
REMARK  Name = 
REMARK  3 active torsions:
REMARK  status: ('A' for Active; 'I' for Inactive)
REMARK    1  A    between atoms: C_1  and  N_2
REMARK    2  A    between atoms: C_6  and  N_7
REMARK    3  A    between atoms: N_10  and  C_11
REMARK                            x       y       z     vdW  Elec       q    Type
REMARK                         _______ _______ _______ _____ _____    ______ ____
ROOT
ATOM      1  C   UNL     1       7.364   6.689  17.625  0.00  0.00    +0.000 C 
ATOM      2  N   UNL     1       5.999   6.207  17.751  0.00  0.00    +0.000 N 
ATOM      3  C   UNL     1       4.972   6.927  17.201  0.00  0.00    +0.000 C 
ATOM      4  C   UNL     1       3.714   6.502  17.305  0.00  0.00    +0.000 C 
ATOM      5  C   UNL     1       3.372   5.268  18.005  0.00  0.00    +0.000 C 
ATOM      6  C   UNL     1       2.051   5.022  18.063  0.00  0.00    +0.000 C 
ATOM      7  N   UNL     1       4.466   4.526  18.483  0.00  0.00    +0.000 N 
ATOM      8  C   UNL     1       4.345   3.214  19.105  0.00  0.00    +0.000 C 
ATOM      9  C   UNL     1       5.801   4.996  18.415  0.00  0.00    +0.000 C 
ATOM     10  O   UNL     1       6.750   4.374  18.901  0.00  0.00    +0.000 OA
ENDROOT
BRANCH   6  11
ATOM     11  N   UNL     1       1.447   3.943  18.768  0.00  0.00    +0.000 N 
ATOM     12  O   UNL     1       1.133   2.959  18.091  0.00  0.00    +0.000 OA
ATOM     13  O   UNL     1       1.199   4.105  19.970  0.00  0.00    +0.000 OA
ENDBRANCH   6  11
TORSDOF 1
ENDMDL
MODEL 7
REMARK VINA RESULT:      -5.4      1.744      2.414
REMARK  Name = 
REMARK  3 active torsions:
REMARK  status: ('A' for Active; 'I' for Inactive)
REMARK    1  A    between atoms: C_1  and  N_2
REMARK    2  A    between atoms: C_6  and  N_7
REMARK    3  A    between atoms: N_10  and  C_11
REMARK                            x       y       z     vdW  Elec       q    Type
REMARK                         _______ _______ _______ _____ _____    ______ ____
ROOT
ATOM      1  C   UNL     1       1.520   4.377  19.600  0.00  0.00    +0.000 C 
ATOM      2  N   UNL     1       2.628   4.291  18.664  0.00  0.00    +0.000 N 
ATOM      3  C   UNL     1       2.808   3.149  17.929  0.00  0.00    +0.000 C 
ATOM      4  C   UNL     1       3.816   3.050  17.065  0.00  0.00    +0.000 C 
ATOM      5  C   UNL     1       4.769   4.137  16.864  0.00  0.00    +0.000 C 
ATOM      6  C   UNL     1       5.756   3.845  15.998  0.00  0.00    +0.000 C 
ATOM      7  N   UNL     1       4.496   5.315  17.581  0.00  0.00    +0.000 N 
ATOM      8  C   UNL     1       5.258   6.549  17.432  0.00  0.00    +0.000 C 
ATOM      9  C   UNL     1       3.453   5.409  18.536  0.00  0.00    +0.000 C 
ATOM     10  O   UNL     1       3.262   6.421  19.215  0.00  0.00    +0.000 OA
ENDROOT
BRANCH   6  11
ATOM     11  N   UNL     1       6.863   4.688  15.699  0.00  0.00    +0.000 N 
ATOM     12  O   UNL     1       6.752   5.394  14.691  0.00  0.00    +0.000 OA
ATOM     13  O   UNL     1       7.875   4.586  16.405  0.00  0.00    +0.000 OA
ENDBRANCH   6  11
TORSDOF 1
ENDMDL
MODEL 8
REMARK VINA RESULT:      -5.4      2.610      4.756
REMARK  Name = 
REMARK  3 active torsions:
REMARK  status: ('A' for Active; 'I' for Inactive)
REMARK    1  A    between atoms: C_1  and  N_2
REMARK    2  A    between atoms: C_6  and  N_7
REMARK    3  A    between atoms: N_10  and  C_11
REMARK                            x       y       z     vdW  Elec       q    Type
REMARK                         _______ _______ _______ _____ _____    ______ ____
ROOT
ATOM      1  C   UNL     1       5.055   6.174  16.178  0.00  0.00    +0.000 C 
ATOM      2  N   UNL     1       4.254   5.754  17.316  0.00  0.00    +0.000 N 
ATOM      3  C   UNL     1       3.585   6.689  18.058  0.00  0.00    +0.000 C 
ATOM      4  C   UNL     1       2.844   6.325  19.102  0.00  0.00    +0.000 C 
ATOM      5  C   UNL     1       2.716   4.928  19.506  0.00  0.00    +0.000 C 
ATOM      6  C   UNL     1       1.977   4.747  20.616  0.00  0.00    +0.000 C 
ATOM      7  N   UNL     1       3.356   4.000  18.667  0.00  0.00    +0.000 N 
ATOM      8  C   UNL     1       3.251   2.555  18.830  0.00  0.00    +0.000 C 
ATOM      9  C   UNL     1       4.182   4.386  17.582  0.00  0.00    +0.000 C 
ATOM     10  O   UNL     1       4.799   3.569  16.894  0.00  0.00    +0.000 OA
ENDROOT
BRANCH   6  11
ATOM     11  N   UNL     1       1.777   3.501  21.274  0.00  0.00    +0.000 N 
ATOM     12  O   UNL     1       0.802   2.840  20.902  0.00  0.00    +0.000 OA
ATOM     13  O   UNL     1       2.526   3.219  22.219  0.00  0.00    +0.000 OA
ENDBRANCH   6  11
TORSDOF 1
ENDMDL
MODEL 9
REMARK VINA RESULT:      -5.3      2.016      4.766
REMARK  Name = 
REMARK  3 active torsions:
REMARK  status: ('A' for Active; 'I' for Inactive)
REMARK    1  A    between atoms: C_1  and  N_2
REMARK    2  A    between atoms: C_6  and  N_7
REMARK    3  A    between atoms: N_10  and  C_11
REMARK                            x       y       z     vdW  Elec       q    Type
REMARK                         _______ _______ _______ _____ _____    ______ ____
ROOT
ATOM      1  C   UNL     1       7.819   6.970  18.192  0.00  0.00    +0.000 C 
ATOM      2  N   UNL     1       6.612   6.201  17.937  0.00  0.00    +0.000 N 
ATOM      3  C   UNL     1       5.911   6.403  16.778  0.00  0.00    +0.000 C 
ATOM      4  C   UNL     1       4.804   5.708  16.524  0.00  0.00    +0.000 C 
ATOM      5  C   UNL     1       4.287   4.714  17.459  0.00  0.00    +0.000 C 
ATOM      6  C   UNL     1       3.129   4.150  17.070  0.00  0.00    +0.000 C 
ATOM      7  N   UNL     1       5.083   4.487  18.595  0.00  0.00    +0.000 N 
ATOM      8  C   UNL     1       4.803   3.456  19.587  0.00  0.00    +0.000 C 
ATOM      9  C   UNL     1       6.236   5.255  18.891  0.00  0.00    +0.000 C 
ATOM     10  O   UNL     1       6.890   5.100  19.926  0.00  0.00    +0.000 OA
ENDROOT
BRANCH   6  11
ATOM     11  N   UNL     1       2.367   3.227  17.840  0.00  0.00    +0.000 N 
ATOM     12  O   UNL     1       2.516   2.032  17.561  0.00  0.00    +0.000 OA
ATOM     13  O   UNL     1       1.554   3.685  18.653  0.00  0.00    +0.000 OA
ENDBRANCH   6  11
TORSDOF 1
ENDMDL
