MODEL 1
REMARK VINA RESULT:      -7.7      0.000      0.000
REMARK  Name = 
REMARK  8 active torsions:
REMARK  status: ('A' for Active; 'I' for Inactive)
REMARK    1  A    between atoms: C_1  and  C_2
REMARK    2  A    between atoms: C_2  and  O_3
REMARK    3  A    between atoms: O_3  and  C_4
REMARK    4  A    between atoms: C_4  and  C_6
REMARK    5  A    between atoms: C_9  and  O_10
REMARK    6  A    between atoms: O_10  and  C_11
REMARK    7  A    between atoms: C_11  and  C_12
REMARK    8  A    between atoms: C_19  and  C_20
REMARK                            x       y       z     vdW  Elec       q    Type
REMARK                         _______ _______ _______ _____ _____    ______ ____
ROOT
ATOM      1  C   UNL     1       3.962   5.576  19.769  0.00  0.00    +0.000 C 
ENDROOT
BRANCH   1   2
ATOM      2  C   UNL     1       5.006   4.580  19.268  0.00  0.00    +0.000 C 
ATOM      3  C   UNL     1       6.443   5.100  19.431  0.00  0.00    +0.000 C 
ATOM      4  C   UNL     1       6.750   5.771  18.093  0.00  0.00    +0.000 C 
ATOM      5  N   UNL     1       6.054   4.899  17.168  0.00  0.00    +0.000 N 
ATOM      6  C   UNL     1       6.367   4.824  15.837  0.00  0.00    +0.000 A 
ATOM      7  C   UNL     1       5.697   3.944  14.989  0.00  0.00    +0.000 A 
ATOM      8  C   UNL     1       6.027   3.856  13.639  0.00  0.00    +0.000 A 
ATOM      9  C   UNL     1       7.035   4.653  13.148  0.00  0.00    +0.000 A 
ATOM     10  C   UNL     1       7.435   4.603  11.709  0.00  0.00    +0.000 C 
ATOM     11  N   UNL     1       7.697   5.496  13.964  0.00  0.00    +0.000 NA
ATOM     12  N   UNL     1       7.355   5.576  15.310  0.00  0.00    +0.000 NA
ATOM     13  C   UNL     1       4.864   4.315  17.765  0.00  0.00    +0.000 C 
ENDBRANCH   1   2
BRANCH   1  14
ATOM     14  O   UNL     1       3.293   6.120  18.628  0.00  0.00    +0.000 OA
BRANCH  14  18
ATOM     15  C   UNL     1       1.122   9.658  18.994  0.00  0.00    +0.000 A 
ATOM     16  C   UNL     1       1.771   9.313  17.805  0.00  0.00    +0.000 A 
ATOM     17  C   UNL     1       2.488   8.117  17.724  0.00  0.00    +0.000 A 
ATOM     18  C   UNL     1       2.582   7.268  18.831  0.00  0.00    +0.000 A 
ATOM     19  C   UNL     1       1.931   7.608  20.014  0.00  0.00    +0.000 A 
ATOM     20  C   UNL     1       1.206   8.799  20.098  0.00  0.00    +0.000 A 
BRANCH  15  21
ATOM     21  C   UNL     1       0.419  10.966  19.071  0.00  0.00    +0.000 C 
ATOM     22  O   UNL     1      -0.636  11.211  18.510  0.00  0.00    +0.000 OA
BRANCH  21  23
ATOM     23  O   UNL     1       1.202  11.850  19.736  0.00  0.00    +0.000 OA
BRANCH  23  25
ATOM     24  C   UNL     1       2.541  13.010  18.142  0.00  0.00    +0.000 C 
ATOM     25  C   UNL     1       1.369  13.123  19.103  0.00  0.00    +0.000 C 
ENDBRANCH  23  25
ENDBRANCH  21  23
ENDBRANCH  15  21
ENDBRANCH  14  18
ENDBRANCH   1  14
TORSDOF 6
ENDMDL
MODEL 2
REMARK VINA RESULT:      -7.6      0.541      1.101
REMARK  Name = 
REMARK  8 active torsions:
REMARK  status: ('A' for Active; 'I' for Inactive)
REMARK    1  A    between atoms: C_1  and  C_2
REMARK    2  A    between atoms: C_2  and  O_3
REMARK    3  A    between atoms: O_3  and  C_4
REMARK    4  A    between atoms: C_4  and  C_6
REMARK    5  A    between atoms: C_9  and  O_10
REMARK    6  A    between atoms: O_10  and  C_11
REMARK    7  A    between atoms: C_11  and  C_12
REMARK    8  A    between atoms: C_19  and  C_20
REMARK                            x       y       z     vdW  Elec       q    Type
REMARK                         _______ _______ _______ _____ _____    ______ ____
ROOT
ATOM      1  C   UNL     1       3.880   5.488  19.683  0.00  0.00    +0.000 C 
ENDROOT
BRANCH   1   2
ATOM      2  C   UNL     1       4.980   4.540  19.210  0.00  0.00    +0.000 C 
ATOM      3  C   UNL     1       6.386   5.141  19.372  0.00  0.00    +0.000 C 
ATOM      4  C   UNL     1       6.666   5.800  18.023  0.00  0.00    +0.000 C 
ATOM      5  N   UNL     1       6.026   4.872  17.112  0.00  0.00    +0.000 N 
ATOM      6  C   UNL     1       6.354   4.786  15.784  0.00  0.00    +0.000 A 
ATOM      7  C   UNL     1       5.740   3.854  14.951  0.00  0.00    +0.000 A 
ATOM      8  C   UNL     1       6.085   3.755  13.606  0.00  0.00    +0.000 A 
ATOM      9  C   UNL     1       7.052   4.596  13.105  0.00  0.00    +0.000 A 
ATOM     10  C   UNL     1       7.466   4.537  11.670  0.00  0.00    +0.000 C 
ATOM     11  N   UNL     1       7.661   5.491  13.907  0.00  0.00    +0.000 NA
ATOM     12  N   UNL     1       7.304   5.580  15.249  0.00  0.00    +0.000 NA
ATOM     13  C   UNL     1       4.865   4.236  17.713  0.00  0.00    +0.000 C 
ENDBRANCH   1   2
BRANCH   1  14
ATOM     14  O   UNL     1       3.276   6.070  18.524  0.00  0.00    +0.000 OA
BRANCH  14  18
ATOM     15  C   UNL     1       1.069   9.497  19.389  0.00  0.00    +0.000 A 
ATOM     16  C   UNL     1       1.276   8.496  20.342  0.00  0.00    +0.000 A 
ATOM     17  C   UNL     1       2.023   7.362  20.011  0.00  0.00    +0.000 A 
ATOM     18  C   UNL     1       2.549   7.208  18.725  0.00  0.00    +0.000 A 
ATOM     19  C   UNL     1       2.348   8.208  17.776  0.00  0.00    +0.000 A 
ATOM     20  C   UNL     1       1.609   9.347  18.105  0.00  0.00    +0.000 A 
BRANCH  15  21
ATOM     21  C   UNL     1       0.219  10.662  19.750  0.00  0.00    +0.000 C 
ATOM     22  O   UNL     1      -0.785  10.589  20.439  0.00  0.00    +0.000 OA
BRANCH  21  23
ATOM     23  O   UNL     1       0.661  11.757  19.084  0.00  0.00    +0.000 OA
BRANCH  23  25
ATOM     24  C   UNL     1       2.547  13.134  18.614  0.00  0.00    +0.000 C 
ATOM     25  C   UNL     1       1.733  12.468  19.711  0.00  0.00    +0.000 C 
ENDBRANCH  23  25
ENDBRANCH  21  23
ENDBRANCH  15  21
ENDBRANCH  14  18
ENDBRANCH   1  14
TORSDOF 6
ENDMDL
MODEL 3
REMARK VINA RESULT:      -7.6      1.160      1.835
REMARK  Name = 
REMARK  8 active torsions:
REMARK  status: ('A' for Active; 'I' for Inactive)
REMARK    1  A    between atoms: C_1  and  C_2
REMARK    2  A    between atoms: C_2  and  O_3
REMARK    3  A    between atoms: O_3  and  C_4
REMARK    4  A    between atoms: C_4  and  C_6
REMARK    5  A    between atoms: C_9  and  O_10
REMARK    6  A    between atoms: O_10  and  C_11
REMARK    7  A    between atoms: C_11  and  C_12
REMARK    8  A    between atoms: C_19  and  C_20
REMARK                            x       y       z     vdW  Elec       q    Type
REMARK                         _______ _______ _______ _____ _____    ______ ____
ROOT
ATOM      1  C   UNL     1       3.615   5.212  19.647  0.00  0.00    +0.000 C 
ENDROOT
BRANCH   1   2
ATOM      2  C   UNL     1       4.780   4.332  19.197  0.00  0.00    +0.000 C 
ATOM      3  C   UNL     1       6.146   4.997  19.432  0.00  0.00    +0.000 C 
ATOM      4  C   UNL     1       6.446   5.705  18.111  0.00  0.00    +0.000 C 
ATOM      5  N   UNL     1       5.892   4.771  17.152  0.00  0.00    +0.000 N 
ATOM      6  C   UNL     1       6.276   4.737  15.838  0.00  0.00    +0.000 A 
ATOM      7  C   UNL     1       5.744   3.797  14.957  0.00  0.00    +0.000 A 
ATOM      8  C   UNL     1       6.147   3.752  13.625  0.00  0.00    +0.000 A 
ATOM      9  C   UNL     1       7.089   4.652  13.185  0.00  0.00    +0.000 A 
ATOM     10  C   UNL     1       7.563   4.652  11.768  0.00  0.00    +0.000 C 
ATOM     11  N   UNL     1       7.619   5.555  14.034  0.00  0.00    +0.000 NA
ATOM     12  N   UNL     1       7.205   5.590  15.362  0.00  0.00    +0.000 NA
ATOM     13  C   UNL     1       4.741   4.062  17.689  0.00  0.00    +0.000 C 
ENDBRANCH   1   2
BRANCH   1  14
ATOM     14  O   UNL     1       3.115   5.898  18.496  0.00  0.00    +0.000 OA
BRANCH  14  18
ATOM     15  C   UNL     1       1.164   9.454  19.451  0.00  0.00    +0.000 A 
ATOM     16  C   UNL     1       1.506   8.516  20.430  0.00  0.00    +0.000 A 
ATOM     17  C   UNL     1       2.160   7.336  20.067  0.00  0.00    +0.000 A 
ATOM     18  C   UNL     1       2.458   7.072  18.727  0.00  0.00    +0.000 A 
ATOM     19  C   UNL     1       2.124   8.008  17.752  0.00  0.00    +0.000 A 
ATOM     20  C   UNL     1       1.476   9.193  18.110  0.00  0.00    +0.000 A 
BRANCH  15  21
ATOM     21  C   UNL     1       0.412  10.670  19.858  0.00  0.00    +0.000 C 
ATOM     22  O   UNL     1      -0.063  11.476  19.075  0.00  0.00    +0.000 OA
BRANCH  21  23
ATOM     23  O   UNL     1       0.470  10.795  21.207  0.00  0.00    +0.000 OA
BRANCH  23  25
ATOM     24  C   UNL     1      -1.117  10.882  22.981  0.00  0.00    +0.000 C 
ATOM     25  C   UNL     1      -0.536  11.628  21.792  0.00  0.00    +0.000 C 
ENDBRANCH  23  25
ENDBRANCH  21  23
ENDBRANCH  15  21
ENDBRANCH  14  18
ENDBRANCH   1  14
TORSDOF 6
ENDMDL
MODEL 4
REMARK VINA RESULT:      -7.6      0.994      1.854
REMARK  Name = 
REMARK  8 active torsions:
REMARK  status: ('A' for Active; 'I' for Inactive)
REMARK    1  A    between atoms: C_1  and  C_2
REMARK    2  A    between atoms: C_2  and  O_3
REMARK    3  A    between atoms: O_3  and  C_4
REMARK    4  A    between atoms: C_4  and  C_6
REMARK    5  A    between atoms: C_9  and  O_10
REMARK    6  A    between atoms: O_10  and  C_11
REMARK    7  A    between atoms: C_11  and  C_12
REMARK    8  A    between atoms: C_19  and  C_20
REMARK                            x       y       z     vdW  Elec       q    Type
REMARK                         _______ _______ _______ _____ _____    ______ ____
ROOT
ATOM      1  C   UNL     1       3.723   5.763  19.656  0.00  0.00    +0.000 C 
ENDROOT
BRANCH   1   2
ATOM      2  C   UNL     1       4.779   4.747  19.225  0.00  0.00    +0.000 C 
ATOM      3  C   UNL     1       6.213   5.264  19.427  0.00  0.00    +0.000 C 
ATOM      4  C   UNL     1       6.574   5.893  18.083  0.00  0.00    +0.000 C 
ATOM      5  N   UNL     1       5.908   4.997  17.158  0.00  0.00    +0.000 N 
ATOM      6  C   UNL     1       6.272   4.880  15.843  0.00  0.00    +0.000 A 
ATOM      7  C   UNL     1       5.629   3.979  14.996  0.00  0.00    +0.000 A 
ATOM      8  C   UNL     1       6.009   3.849  13.664  0.00  0.00    +0.000 A 
ATOM      9  C   UNL     1       7.040   4.626  13.188  0.00  0.00    +0.000 A 
ATOM     10  C   UNL     1       7.495   4.530  11.767  0.00  0.00    +0.000 C 
ATOM     11  N   UNL     1       7.676   5.489  14.003  0.00  0.00    +0.000 NA
ATOM     12  N   UNL     1       7.283   5.611  15.332  0.00  0.00    +0.000 NA
ATOM     13  C   UNL     1       4.693   4.437  17.726  0.00  0.00    +0.000 C 
ENDBRANCH   1   2
BRANCH   1  14
ATOM     14  O   UNL     1       3.278   6.455  18.485  0.00  0.00    +0.000 OA
BRANCH  14  18
ATOM     15  C   UNL     1       0.889   9.754  19.364  0.00  0.00    +0.000 A 
ATOM     16  C   UNL     1       1.139   8.754  20.309  0.00  0.00    +0.000 A 
ATOM     17  C   UNL     1       1.946   7.665  19.973  0.00  0.00    +0.000 A 
ATOM     18  C   UNL     1       2.491   7.551  18.691  0.00  0.00    +0.000 A 
ATOM     19  C   UNL     1       2.247   8.550  17.751  0.00  0.00    +0.000 A 
ATOM     20  C   UNL     1       1.447   9.645  18.083  0.00  0.00    +0.000 A 
BRANCH  15  21
ATOM     21  C   UNL     1      -0.025  10.869  19.729  0.00  0.00    +0.000 C 
ATOM     22  O   UNL     1       0.278  11.786  20.474  0.00  0.00    +0.000 OA
BRANCH  21  23
ATOM     23  O   UNL     1      -1.255  10.618  19.217  0.00  0.00    +0.000 OA
BRANCH  23  25
ATOM     24  C   UNL     1      -3.181  11.408  18.059  0.00  0.00    +0.000 C 
ATOM     25  C   UNL     1      -1.666  11.478  18.150  0.00  0.00    +0.000 C 
ENDBRANCH  23  25
ENDBRANCH  21  23
ENDBRANCH  15  21
ENDBRANCH  14  18
ENDBRANCH   1  14
TORSDOF 6
ENDMDL
MODEL 5
REMARK VINA RESULT:      -7.5      1.176      1.694
REMARK  Name = 
REMARK  8 active torsions:
REMARK  status: ('A' for Active; 'I' for Inactive)
REMARK    1  A    between atoms: C_1  and  C_2
REMARK    2  A    between atoms: C_2  and  O_3
REMARK    3  A    between atoms: O_3  and  C_4
REMARK    4  A    between atoms: C_4  and  C_6
REMARK    5  A    between atoms: C_9  and  O_10
REMARK    6  A    between atoms: O_10  and  C_11
REMARK    7  A    between atoms: C_11  and  C_12
REMARK    8  A    between atoms: C_19  and  C_20
REMARK                            x       y       z     vdW  Elec       q    Type
REMARK                         _______ _______ _______ _____ _____    ______ ____
ROOT
ATOM      1  C   UNL     1       2.117   4.682  19.149  0.00  0.00    +0.000 C 
ENDROOT
BRANCH   1   2
ATOM      2  C   UNL     1       3.279   3.751  18.807  0.00  0.00    +0.000 C 
ATOM      3  C   UNL     1       4.574   4.128  19.545  0.00  0.00    +0.000 C 
ATOM      4  C   UNL     1       5.302   5.051  18.569  0.00  0.00    +0.000 C 
ATOM      5  N   UNL     1       4.965   4.445  17.296  0.00  0.00    +0.000 N 
ATOM      6  C   UNL     1       5.705   4.639  16.160  0.00  0.00    +0.000 A 
ATOM      7  C   UNL     1       5.366   4.008  14.964  0.00  0.00    +0.000 A 
ATOM      8  C   UNL     1       6.128   4.192  13.814  0.00  0.00    +0.000 A 
ATOM      9  C   UNL     1       7.234   5.009  13.873  0.00  0.00    +0.000 A 
ATOM     10  C   UNL     1       8.093   5.244  12.672  0.00  0.00    +0.000 C 
ATOM     11  N   UNL     1       7.577   5.611  15.029  0.00  0.00    +0.000 NA
ATOM     12  N   UNL     1       6.804   5.421  16.169  0.00  0.00    +0.000 NA
ATOM     13  C   UNL     1       3.650   3.825  17.322  0.00  0.00    +0.000 C 
ENDBRANCH   1   2
BRANCH   1  14
ATOM     14  O   UNL     1       2.614   5.700  20.022  0.00  0.00    +0.000 OA
BRANCH  14  18
ATOM     15  C   UNL     1       1.291   9.530  19.052  0.00  0.00    +0.000 A 
ATOM     16  C   UNL     1       1.942   8.718  18.118  0.00  0.00    +0.000 A 
ATOM     17  C   UNL     1       2.369   7.440  18.484  0.00  0.00    +0.000 A 
ATOM     18  C   UNL     1       2.172   6.970  19.786  0.00  0.00    +0.000 A 
ATOM     19  C   UNL     1       1.519   7.776  20.716  0.00  0.00    +0.000 A 
ATOM     20  C   UNL     1       1.083   9.052  20.352  0.00  0.00    +0.000 A 
BRANCH  15  21
ATOM     21  C   UNL     1       0.904  10.909  18.652  0.00  0.00    +0.000 C 
ATOM     22  O   UNL     1       1.655  11.870  18.691  0.00  0.00    +0.000 OA
BRANCH  21  23
ATOM     23  O   UNL     1      -0.424  10.935  18.382  0.00  0.00    +0.000 OA
BRANCH  23  25
ATOM     24  C   UNL     1      -1.529  11.905  20.256  0.00  0.00    +0.000 C 
ATOM     25  C   UNL     1      -1.117  12.112  18.808  0.00  0.00    +0.000 C 
ENDBRANCH  23  25
ENDBRANCH  21  23
ENDBRANCH  15  21
ENDBRANCH  14  18
ENDBRANCH   1  14
TORSDOF 6
ENDMDL
MODEL 6
REMARK VINA RESULT:      -7.4      1.277      2.007
REMARK  Name = 
REMARK  8 active torsions:
REMARK  status: ('A' for Active; 'I' for Inactive)
REMARK    1  A    between atoms: C_1  and  C_2
REMARK    2  A    between atoms: C_2  and  O_3
REMARK    3  A    between atoms: O_3  and  C_4
REMARK    4  A    between atoms: C_4  and  C_6
REMARK    5  A    between atoms: C_9  and  O_10
REMARK    6  A    between atoms: O_10  and  C_11
REMARK    7  A    between atoms: C_11  and  C_12
REMARK    8  A    between atoms: C_19  and  C_20
REMARK                            x       y       z     vdW  Elec       q    Type
REMARK                         _______ _______ _______ _____ _____    ______ ____
ROOT
ATOM      1  C   UNL     1       2.162   4.236  19.103  0.00  0.00    +0.000 C 
ENDROOT
BRANCH   1   2
ATOM      2  C   UNL     1       3.355   3.364  18.719  0.00  0.00    +0.000 C 
ATOM      3  C   UNL     1       4.636   3.750  19.475  0.00  0.00    +0.000 C 
ATOM      4  C   UNL     1       5.332   4.743  18.545  0.00  0.00    +0.000 C 
ATOM      5  N   UNL     1       5.015   4.188  17.244  0.00  0.00    +0.000 N 
ATOM      6  C   UNL     1       5.748   4.462  16.120  0.00  0.00    +0.000 A 
ATOM      7  C   UNL     1       5.431   3.878  14.895  0.00  0.00    +0.000 A 
ATOM      8  C   UNL     1       6.186   4.143  13.756  0.00  0.00    +0.000 A 
ATOM      9  C   UNL     1       7.262   4.994  13.855  0.00  0.00    +0.000 A 
ATOM     10  C   UNL     1       8.111   5.316  12.668  0.00  0.00    +0.000 C 
ATOM     11  N   UNL     1       7.584   5.551  15.039  0.00  0.00    +0.000 NA
ATOM     12  N   UNL     1       6.819   5.280  16.168  0.00  0.00    +0.000 NA
ATOM     13  C   UNL     1       3.723   3.522  17.239  0.00  0.00    +0.000 C 
ENDBRANCH   1   2
BRANCH   1  14
ATOM     14  O   UNL     1       2.649   5.316  19.905  0.00  0.00    +0.000 OA
BRANCH  14  18
ATOM     15  C   UNL     1       1.530   9.211  18.937  0.00  0.00    +0.000 A 
ATOM     16  C   UNL     1       1.255   8.657  20.191  0.00  0.00    +0.000 A 
ATOM     17  C   UNL     1       1.648   7.347  20.474  0.00  0.00    +0.000 A 
ATOM     18  C   UNL     1       2.296   6.573  19.507  0.00  0.00    +0.000 A 
ATOM     19  C   UNL     1       2.576   7.127  18.260  0.00  0.00    +0.000 A 
ATOM     20  C   UNL     1       2.192   8.439  17.974  0.00  0.00    +0.000 A 
BRANCH  15  21
ATOM     21  C   UNL     1       1.045  10.585  18.642  0.00  0.00    +0.000 C 
ATOM     22  O   UNL     1       1.775  11.534  18.406  0.00  0.00    +0.000 OA
BRANCH  21  23
ATOM     23  O   UNL     1      -0.299  10.626  18.814  0.00  0.00    +0.000 OA
BRANCH  23  25
ATOM     24  C   UNL     1      -2.330  11.823  19.160  0.00  0.00    +0.000 C 
ATOM     25  C   UNL     1      -0.903  11.912  18.645  0.00  0.00    +0.000 C 
ENDBRANCH  23  25
ENDBRANCH  21  23
ENDBRANCH  15  21
ENDBRANCH  14  18
ENDBRANCH   1  14
TORSDOF 6
ENDMDL
MODEL 7
REMARK VINA RESULT:      -7.4      0.994      1.158
REMARK  Name = 
REMARK  8 active torsions:
REMARK  status: ('A' for Active; 'I' for Inactive)
REMARK    1  A    between atoms: C_1  and  C_2
REMARK    2  A    between atoms: C_2  and  O_3
REMARK    3  A    between atoms: O_3  and  C_4
REMARK    4  A    between atoms: C_4  and  C_6
REMARK    5  A    between atoms: C_9  and  O_10
REMARK    6  A    between atoms: O_10  and  C_11
REMARK    7  A    between atoms: C_11  and  C_12
REMARK    8  A    between atoms: C_19  and  C_20
REMARK                            x       y       z     vdW  Elec       q    Type
REMARK                         _______ _______ _______ _____ _____    ______ ____
ROOT
ATOM      1  C   UNL     1       2.227   4.619  19.320  0.00  0.00    +0.000 C 
ENDROOT
BRANCH   1   2
ATOM      2  C   UNL     1       3.319   3.644  18.883  0.00  0.00    +0.000 C 
ATOM      3  C   UNL     1       4.657   3.898  19.595  0.00  0.00    +0.000 C 
ATOM      4  C   UNL     1       5.409   4.834  18.650  0.00  0.00    +0.000 C 
ATOM      5  N   UNL     1       4.995   4.329  17.357  0.00  0.00    +0.000 N 
ATOM      6  C   UNL     1       5.710   4.548  16.209  0.00  0.00    +0.000 A 
ATOM      7  C   UNL     1       5.295   4.013  14.991  0.00  0.00    +0.000 A 
ATOM      8  C   UNL     1       6.030   4.222  13.827  0.00  0.00    +0.000 A 
ATOM      9  C   UNL     1       7.185   4.967  13.895  0.00  0.00    +0.000 A 
ATOM     10  C   UNL     1       8.018   5.224  12.681  0.00  0.00    +0.000 C 
ATOM     11  N   UNL     1       7.600   5.475  15.072  0.00  0.00    +0.000 NA
ATOM     12  N   UNL     1       6.854   5.261  16.226  0.00  0.00    +0.000 NA
ATOM     13  C   UNL     1       3.646   3.787  17.392  0.00  0.00    +0.000 C 
ENDBRANCH   1   2
BRANCH   1  14
ATOM     14  O   UNL     1       2.861   5.716  19.984  0.00  0.00    +0.000 OA
BRANCH  14  18
ATOM     15  C   UNL     1       1.249   9.448  19.068  0.00  0.00    +0.000 A 
ATOM     16  C   UNL     1       1.989   8.717  18.134  0.00  0.00    +0.000 A 
ATOM     17  C   UNL     1       2.511   7.469  18.482  0.00  0.00    +0.000 A 
ATOM     18  C   UNL     1       2.321   6.951  19.766  0.00  0.00    +0.000 A 
ATOM     19  C   UNL     1       1.579   7.676  20.696  0.00  0.00    +0.000 A 
ATOM     20  C   UNL     1       1.048   8.921  20.351  0.00  0.00    +0.000 A 
BRANCH  15  21
ATOM     21  C   UNL     1       0.759  10.800  18.691  0.00  0.00    +0.000 C 
ATOM     22  O   UNL     1      -0.411  11.067  18.472  0.00  0.00    +0.000 OA
BRANCH  21  23
ATOM     23  O   UNL     1       1.822  11.619  18.503  0.00  0.00    +0.000 OA
BRANCH  23  25
ATOM     24  C   UNL     1       2.799  13.769  18.189  0.00  0.00    +0.000 C 
ATOM     25  C   UNL     1       1.550  13.019  18.619  0.00  0.00    +0.000 C 
ENDBRANCH  23  25
ENDBRANCH  21  23
ENDBRANCH  15  21
ENDBRANCH  14  18
ENDBRANCH   1  14
TORSDOF 6
ENDMDL
MODEL 8
REMARK VINA RESULT:      -7.4      1.266      1.870
REMARK  Name = 
REMARK  8 active torsions:
REMARK  status: ('A' for Active; 'I' for Inactive)
REMARK    1  A    between atoms: C_1  and  C_2
REMARK    2  A    between atoms: C_2  and  O_3
REMARK    3  A    between atoms: O_3  and  C_4
REMARK    4  A    between atoms: C_4  and  C_6
REMARK    5  A    between atoms: C_9  and  O_10
REMARK    6  A    between atoms: O_10  and  C_11
REMARK    7  A    between atoms: C_11  and  C_12
REMARK    8  A    between atoms: C_19  and  C_20
REMARK                            x       y       z     vdW  Elec       q    Type
REMARK                         _______ _______ _______ _____ _____    ______ ____
ROOT
ATOM      1  C   UNL     1       2.587   5.367  19.597  0.00  0.00    +0.000 C 
ENDROOT
BRANCH   1   2
ATOM      2  C   UNL     1       3.494   4.240  19.106  0.00  0.00    +0.000 C 
ATOM      3  C   UNL     1       4.904   4.311  19.713  0.00  0.00    +0.000 C 
ATOM      4  C   UNL     1       5.708   5.117  18.694  0.00  0.00    +0.000 C 
ATOM      5  N   UNL     1       5.131   4.658  17.446  0.00  0.00    +0.000 N 
ATOM      6  C   UNL     1       5.781   4.757  16.245  0.00  0.00    +0.000 A 
ATOM      7  C   UNL     1       5.205   4.269  15.073  0.00  0.00    +0.000 A 
ATOM      8  C   UNL     1       5.873   4.355  13.855  0.00  0.00    +0.000 A 
ATOM      9  C   UNL     1       7.124   4.928  13.821  0.00  0.00    +0.000 A 
ATOM     10  C   UNL     1       7.891   5.047  12.544  0.00  0.00    +0.000 C 
ATOM     11  N   UNL     1       7.693   5.389  14.952  0.00  0.00    +0.000 NA
ATOM     12  N   UNL     1       7.013   5.300  16.162  0.00  0.00    +0.000 NA
ATOM     13  C   UNL     1       3.726   4.315  17.593  0.00  0.00    +0.000 C 
ENDBRANCH   1   2
BRANCH   1  14
ATOM     14  O   UNL     1       3.059   6.590  19.024  0.00  0.00    +0.000 OA
BRANCH  14  18
ATOM     15  C   UNL     1       0.604   9.948  19.272  0.00  0.00    +0.000 A 
ATOM     16  C   UNL     1       1.231   9.581  18.077  0.00  0.00    +0.000 A 
ATOM     17  C   UNL     1       2.046   8.447  18.037  0.00  0.00    +0.000 A 
ATOM     18  C   UNL     1       2.260   7.684  19.189  0.00  0.00    +0.000 A 
ATOM     19  C   UNL     1       1.631   8.045  20.378  0.00  0.00    +0.000 A 
ATOM     20  C   UNL     1       0.809   9.173  20.422  0.00  0.00    +0.000 A 
BRANCH  15  21
ATOM     21  C   UNL     1      -0.207  11.193  19.301  0.00  0.00    +0.000 C 
ATOM     22  O   UNL     1      -0.264  11.951  20.255  0.00  0.00    +0.000 OA
BRANCH  21  23
ATOM     23  O   UNL     1      -0.953  11.261  18.171  0.00  0.00    +0.000 OA
BRANCH  23  25
ATOM     24  C   UNL     1      -2.525   9.858  17.060  0.00  0.00    +0.000 C 
ATOM     25  C   UNL     1      -2.280  10.735  18.277  0.00  0.00    +0.000 C 
ENDBRANCH  23  25
ENDBRANCH  21  23
ENDBRANCH  15  21
ENDBRANCH  14  18
ENDBRANCH   1  14
TORSDOF 6
ENDMDL
MODEL 9
REMARK VINA RESULT:      -7.3      3.971      9.046
REMARK  Name = 
REMARK  8 active torsions:
REMARK  status: ('A' for Active; 'I' for Inactive)
REMARK    1  A    between atoms: C_1  and  C_2
REMARK    2  A    between atoms: C_2  and  O_3
REMARK    3  A    between atoms: O_3  and  C_4
REMARK    4  A    between atoms: C_4  and  C_6
REMARK    5  A    between atoms: C_9  and  O_10
REMARK    6  A    between atoms: O_10  and  C_11
REMARK    7  A    between atoms: C_11  and  C_12
REMARK    8  A    between atoms: C_19  and  C_20
REMARK                            x       y       z     vdW  Elec       q    Type
REMARK                         _______ _______ _______ _____ _____    ______ ____
ROOT
ATOM      1  C   UNL     1       4.096   5.610  19.723  0.00  0.00    +0.000 C 
ENDROOT
BRANCH   1   2
ATOM      2  C   UNL     1       2.602   5.846  19.506  0.00  0.00    +0.000 C 
ATOM      3  C   UNL     1       2.315   6.714  18.271  0.00  0.00    +0.000 C 
ATOM      4  C   UNL     1       2.243   8.136  18.826  0.00  0.00    +0.000 C 
ATOM      5  N   UNL     1       1.615   7.911  20.112  0.00  0.00    +0.000 N 
ATOM      6  C   UNL     1       0.955   8.895  20.800  0.00  0.00    +0.000 A 
ATOM      7  C   UNL     1       0.333   8.626  22.018  0.00  0.00    +0.000 A 
ATOM      8  C   UNL     1      -0.352   9.621  22.710  0.00  0.00    +0.000 A 
ATOM      9  C   UNL     1      -0.412  10.885  22.169  0.00  0.00    +0.000 A 
ATOM     10  C   UNL     1      -1.134  11.995  22.863  0.00  0.00    +0.000 C 
ATOM     11  N   UNL     1       0.174  11.149  20.985  0.00  0.00    +0.000 NA
ATOM     12  N   UNL     1       0.858  10.145  20.307  0.00  0.00    +0.000 NA
ATOM     13  C   UNL     1       1.973   6.618  20.671  0.00  0.00    +0.000 C 
ENDBRANCH   1   2
BRANCH   1  14
ATOM     14  O   UNL     1       4.437   4.364  19.108  0.00  0.00    +0.000 OA
BRANCH  14  18
ATOM     15  C   UNL     1       6.328   4.615  15.404  0.00  0.00    +0.000 A 
ATOM     16  C   UNL     1       6.946   5.058  16.577  0.00  0.00    +0.000 A 
ATOM     17  C   UNL     1       6.277   4.956  17.799  0.00  0.00    +0.000 A 
ATOM     18  C   UNL     1       4.982   4.433  17.859  0.00  0.00    +0.000 A 
ATOM     19  C   UNL     1       4.367   3.985  16.692  0.00  0.00    +0.000 A 
ATOM     20  C   UNL     1       5.035   4.079  15.468  0.00  0.00    +0.000 A 
BRANCH  15  21
ATOM     21  C   UNL     1       7.039   4.795  14.111  0.00  0.00    +0.000 C 
ATOM     22  O   UNL     1       8.034   5.485  13.966  0.00  0.00    +0.000 OA
BRANCH  21  23
ATOM     23  O   UNL     1       6.327   4.190  13.127  0.00  0.00    +0.000 OA
BRANCH  23  25
ATOM     24  C   UNL     1       6.722   2.394  11.613  0.00  0.00    +0.000 C 
ATOM     25  C   UNL     1       7.072   3.832  11.959  0.00  0.00    +0.000 C 
ENDBRANCH  23  25
ENDBRANCH  21  23
ENDBRANCH  15  21
ENDBRANCH  14  18
ENDBRANCH   1  14
TORSDOF 6
ENDMDL
