MODEL 1
REMARK VINA RESULT:      -8.0      0.000      0.000
REMARK  Name = 
REMARK  5 active torsions:
REMARK  status: ('A' for Active; 'I' for Inactive)
REMARK    1  A    between atoms: C_1  and  O_2
REMARK    2  A    between atoms: O_2  and  C_3
REMARK    3  A    between atoms: C_5  and  O_6
REMARK    4  A    between atoms: O_6  and  C_7
REMARK    5  A    between atoms: C_8  and  N_9
REMARK                            x       y       z     vdW  Elec       q    Type
REMARK                         _______ _______ _______ _____ _____    ______ ____
ROOT
ATOM      1  N   UNL     1       4.864   3.703  17.060  0.00  0.00    +0.000 N 
ATOM      2  C   UNL     1       4.099   4.489  17.908  0.00  0.00    +0.000 A 
ATOM      3  N   UNL     1       3.728   5.710  17.627  0.00  0.00    +0.000 NA
ATOM      4  C   UNL     1       2.956   6.469  18.529  0.00  0.00    +0.000 A 
ATOM      5  C   UNL     1       2.627   7.783  18.188  0.00  0.00    +0.000 A 
ATOM      6  C   UNL     1       1.870   8.564  19.063  0.00  0.00    +0.000 A 
ATOM      7  C   UNL     1       1.431   8.035  20.277  0.00  0.00    +0.000 A 
ATOM      8  C   UNL     1       1.748   6.721  20.628  0.00  0.00    +0.000 A 
ATOM      9  C   UNL     1       2.507   5.945  19.755  0.00  0.00    +0.000 A 
ATOM     10  C   UNL     1       2.905   4.585  20.039  0.00  0.00    +0.000 A 
ATOM     11  N   UNL     1       2.660   3.801  21.067  0.00  0.00    +0.000 NA
ATOM     12  N   UNL     1       3.312   2.604  20.842  0.00  0.00    +0.000 NA
ATOM     13  C   UNL     1       3.931   2.698  19.687  0.00  0.00    +0.000 A 
ATOM     14  N   UNL     1       3.686   3.918  19.127  0.00  0.00    +0.000 N 
ATOM     15  H   UNL     1       4.918   2.722  17.255  0.00  0.00    +0.000 HD
ENDROOT
BRANCH   1  19
ATOM     16  C   UNL     1       7.024   4.700  13.510  0.00  0.00    +0.000 A 
ATOM     17  C   UNL     1       7.476   5.121  14.769  0.00  0.00    +0.000 A 
ATOM     18  C   UNL     1       6.785   4.843  15.970  0.00  0.00    +0.000 A 
ATOM     19  C   UNL     1       5.583   4.114  15.916  0.00  0.00    +0.000 A 
ATOM     20  C   UNL     1       5.138   3.710  14.637  0.00  0.00    +0.000 A 
ATOM     21  C   UNL     1       5.843   3.970  13.454  0.00  0.00    +0.000 A 
ATOM     22 CL   UNL     1       5.187   3.258  12.022  0.00  0.00    +0.000 Cl
BRANCH  16  24
ATOM     23  C   UNL     1       8.866   6.005  12.749  0.00  0.00    +0.000 C 
ATOM     24  O   UNL     1       7.877   5.017  12.489  0.00  0.00    +0.000 OA
ENDBRANCH  16  24
BRANCH  18  25
ATOM     25  O   UNL     1       7.466   5.364  17.038  0.00  0.00    +0.000 OA
ATOM     26  C   UNL     1       7.333   6.704  17.459  0.00  0.00    +0.000 C 
ENDBRANCH  18  25
ENDBRANCH   1  19
TORSDOF 3
ENDMDL
MODEL 2
REMARK VINA RESULT:      -7.0      5.048      8.424
REMARK  Name = 
REMARK  5 active torsions:
REMARK  status: ('A' for Active; 'I' for Inactive)
REMARK    1  A    between atoms: C_1  and  O_2
REMARK    2  A    between atoms: O_2  and  C_3
REMARK    3  A    between atoms: C_5  and  O_6
REMARK    4  A    between atoms: O_6  and  C_7
REMARK    5  A    between atoms: C_8  and  N_9
REMARK                            x       y       z     vdW  Elec       q    Type
REMARK                         _______ _______ _______ _____ _____    ______ ____
ROOT
ATOM      1  N   UNL     1       1.914   8.458  18.956  0.00  0.00    +0.000 N 
ATOM      2  C   UNL     1       2.369   7.165  19.162  0.00  0.00    +0.000 A 
ATOM      3  N   UNL     1       1.896   6.368  20.083  0.00  0.00    +0.000 NA
ATOM      4  C   UNL     1       2.400   5.062  20.254  0.00  0.00    +0.000 A 
ATOM      5  C   UNL     1       1.882   4.274  21.284  0.00  0.00    +0.000 A 
ATOM      6  C   UNL     1       2.365   2.979  21.485  0.00  0.00    +0.000 A 
ATOM      7  C   UNL     1       3.360   2.465  20.655  0.00  0.00    +0.000 A 
ATOM      8  C   UNL     1       3.884   3.240  19.618  0.00  0.00    +0.000 A 
ATOM      9  C   UNL     1       3.402   4.533  19.422  0.00  0.00    +0.000 A 
ATOM     10  C   UNL     1       3.897   5.418  18.392  0.00  0.00    +0.000 A 
ATOM     11  N   UNL     1       4.807   5.248  17.457  0.00  0.00    +0.000 NA
ATOM     12  N   UNL     1       4.913   6.434  16.759  0.00  0.00    +0.000 NA
ATOM     13  C   UNL     1       4.066   7.287  17.289  0.00  0.00    +0.000 A 
ATOM     14  N   UNL     1       3.381   6.688  18.307  0.00  0.00    +0.000 N 
ATOM     15  H   UNL     1       2.174   8.915  18.105  0.00  0.00    +0.000 HD
ENDROOT
BRANCH   1  19
ATOM     16  C   UNL     1      -0.614  10.579  21.673  0.00  0.00    +0.000 A 
ATOM     17  C   UNL     1      -0.735  10.760  20.287  0.00  0.00    +0.000 A 
ATOM     18  C   UNL     1       0.094  10.106  19.348  0.00  0.00    +0.000 A 
ATOM     19  C   UNL     1       1.094   9.231  19.809  0.00  0.00    +0.000 A 
ATOM     20  C   UNL     1       1.208   9.072  21.209  0.00  0.00    +0.000 A 
ATOM     21  C   UNL     1       0.366   9.707  22.131  0.00  0.00    +0.000 A 
ATOM     22 CL   UNL     1       0.593   9.255  23.784  0.00  0.00    +0.000 Cl
BRANCH  16  24
ATOM     23  C   UNL     1      -1.243  12.580  22.802  0.00  0.00    +0.000 C 
ATOM     24  O   UNL     1      -1.558  11.254  22.397  0.00  0.00    +0.000 OA
ENDBRANCH  16  24
BRANCH  18  25
ATOM     25  O   UNL     1      -0.262  10.463  18.075  0.00  0.00    +0.000 OA
ATOM     26  C   UNL     1      -1.470  10.061  17.469  0.00  0.00    +0.000 C 
ENDBRANCH  18  25
ENDBRANCH   1  19
TORSDOF 3
ENDMDL
MODEL 3
REMARK VINA RESULT:      -7.0      4.299      7.443
REMARK  Name = 
REMARK  5 active torsions:
REMARK  status: ('A' for Active; 'I' for Inactive)
REMARK    1  A    between atoms: C_1  and  O_2
REMARK    2  A    between atoms: O_2  and  C_3
REMARK    3  A    between atoms: C_5  and  O_6
REMARK    4  A    between atoms: O_6  and  C_7
REMARK    5  A    between atoms: C_8  and  N_9
REMARK                            x       y       z     vdW  Elec       q    Type
REMARK                         _______ _______ _______ _____ _____    ______ ____
ROOT
ATOM      1  N   UNL     1       1.736   7.279  20.525  0.00  0.00    +0.000 N 
ATOM      2  C   UNL     1       2.512   6.479  19.702  0.00  0.00    +0.000 A 
ATOM      3  N   UNL     1       3.127   6.917  18.635  0.00  0.00    +0.000 NA
ATOM      4  C   UNL     1       3.900   6.057  17.828  0.00  0.00    +0.000 A 
ATOM      5  C   UNL     1       4.498   6.577  16.677  0.00  0.00    +0.000 A 
ATOM      6  C   UNL     1       5.263   5.752  15.852  0.00  0.00    +0.000 A 
ATOM      7  C   UNL     1       5.441   4.406  16.175  0.00  0.00    +0.000 A 
ATOM      8  C   UNL     1       4.853   3.875  17.325  0.00  0.00    +0.000 A 
ATOM      9  C   UNL     1       4.087   4.700  18.145  0.00  0.00    +0.000 A 
ATOM     10  C   UNL     1       3.421   4.238  19.341  0.00  0.00    +0.000 A 
ATOM     11  N   UNL     1       3.389   3.057  19.921  0.00  0.00    +0.000 NA
ATOM     12  N   UNL     1       2.569   3.159  21.027  0.00  0.00    +0.000 NA
ATOM     13  C   UNL     1       2.130   4.396  21.087  0.00  0.00    +0.000 A 
ATOM     14  N   UNL     1       2.658   5.125  20.060  0.00  0.00    +0.000 N 
ATOM     15  H   UNL     1       1.484   6.918  21.424  0.00  0.00    +0.000 HD
ENDROOT
BRANCH   1  19
ATOM     16  C   UNL     1       0.525  11.293  19.697  0.00  0.00    +0.000 A 
ATOM     17  C   UNL     1      -0.039  10.577  20.762  0.00  0.00    +0.000 A 
ATOM     18  C   UNL     1       0.304   9.240  21.062  0.00  0.00    +0.000 A 
ATOM     19  C   UNL     1       1.253   8.580  20.260  0.00  0.00    +0.000 A 
ATOM     20  C   UNL     1       1.800   9.314  19.183  0.00  0.00    +0.000 A 
ATOM     21  C   UNL     1       1.471  10.648  18.909  0.00  0.00    +0.000 A 
ATOM     22 CL   UNL     1       2.368  11.392  17.633  0.00  0.00    +0.000 Cl
BRANCH  16  24
ATOM     23  C   UNL     1      -0.788  12.932  18.571  0.00  0.00    +0.000 C 
ATOM     24  O   UNL     1       0.102  12.592  19.627  0.00  0.00    +0.000 OA
ENDBRANCH  16  24
BRANCH  18  25
ATOM     25  O   UNL     1      -0.393   8.807  22.158  0.00  0.00    +0.000 OA
ATOM     26  C   UNL     1      -0.600   9.602  23.304  0.00  0.00    +0.000 C 
ENDBRANCH  18  25
ENDBRANCH   1  19
TORSDOF 3
ENDMDL
MODEL 4
REMARK VINA RESULT:      -6.8      4.642      7.786
REMARK  Name = 
REMARK  5 active torsions:
REMARK  status: ('A' for Active; 'I' for Inactive)
REMARK    1  A    between atoms: C_1  and  O_2
REMARK    2  A    between atoms: O_2  and  C_3
REMARK    3  A    between atoms: C_5  and  O_6
REMARK    4  A    between atoms: O_6  and  C_7
REMARK    5  A    between atoms: C_8  and  N_9
REMARK                            x       y       z     vdW  Elec       q    Type
REMARK                         _______ _______ _______ _____ _____    ______ ____
ROOT
ATOM      1  N   UNL     1       2.072   8.308  18.222  0.00  0.00    +0.000 N 
ATOM      2  C   UNL     1       2.478   7.055  18.652  0.00  0.00    +0.000 A 
ATOM      3  N   UNL     1       1.791   6.315  19.482  0.00  0.00    +0.000 NA
ATOM      4  C   UNL     1       2.253   5.049  19.893  0.00  0.00    +0.000 A 
ATOM      5  C   UNL     1       1.493   4.325  20.815  0.00  0.00    +0.000 A 
ATOM      6  C   UNL     1       1.926   3.071  21.249  0.00  0.00    +0.000 A 
ATOM      7  C   UNL     1       3.116   2.531  20.759  0.00  0.00    +0.000 A 
ATOM      8  C   UNL     1       3.884   3.242  19.834  0.00  0.00    +0.000 A 
ATOM      9  C   UNL     1       3.450   4.495  19.405  0.00  0.00    +0.000 A 
ATOM     10  C   UNL     1       4.185   5.315  18.469  0.00  0.00    +0.000 A 
ATOM     11  N   UNL     1       5.315   5.107  17.827  0.00  0.00    +0.000 NA
ATOM     12  N   UNL     1       5.583   6.237  17.080  0.00  0.00    +0.000 NA
ATOM     13  C   UNL     1       4.611   7.095  17.291  0.00  0.00    +0.000 A 
ATOM     14  N   UNL     1       3.690   6.552  18.140  0.00  0.00    +0.000 N 
ATOM     15  H   UNL     1       2.542   8.705  17.432  0.00  0.00    +0.000 HD
ENDROOT
BRANCH   1  19
ATOM     16  C   UNL     1      -1.003  10.913  19.644  0.00  0.00    +0.000 A 
ATOM     17  C   UNL     1      -0.052  10.376  20.523  0.00  0.00    +0.000 A 
ATOM     18  C   UNL     1       0.967   9.489  20.110  0.00  0.00    +0.000 A 
ATOM     19  C   UNL     1       1.042   9.113  18.756  0.00  0.00    +0.000 A 
ATOM     20  C   UNL     1       0.066   9.655  17.889  0.00  0.00    +0.000 A 
ATOM     21  C   UNL     1      -0.926  10.554  18.304  0.00  0.00    +0.000 A 
ATOM     22 CL   UNL     1      -1.921  11.200  17.047  0.00  0.00    +0.000 Cl
BRANCH  16  24
ATOM     23  C   UNL     1      -1.538  12.229  21.556  0.00  0.00    +0.000 C 
ATOM     24  O   UNL     1      -1.857  11.802  20.238  0.00  0.00    +0.000 OA
ENDBRANCH  16  24
BRANCH  18  25
ATOM     25  O   UNL     1       1.752   9.141  21.177  0.00  0.00    +0.000 OA
ATOM     26  C   UNL     1       1.277   9.103  22.505  0.00  0.00    +0.000 C 
ENDBRANCH  18  25
ENDBRANCH   1  19
TORSDOF 3
ENDMDL
MODEL 5
REMARK VINA RESULT:      -6.8      4.079      6.177
REMARK  Name = 
REMARK  5 active torsions:
REMARK  status: ('A' for Active; 'I' for Inactive)
REMARK    1  A    between atoms: C_1  and  O_2
REMARK    2  A    between atoms: O_2  and  C_3
REMARK    3  A    between atoms: C_5  and  O_6
REMARK    4  A    between atoms: O_6  and  C_7
REMARK    5  A    between atoms: C_8  and  N_9
REMARK                            x       y       z     vdW  Elec       q    Type
REMARK                         _______ _______ _______ _____ _____    ______ ____
ROOT
ATOM      1  N   UNL     1       1.629   7.199  20.846  0.00  0.00    +0.000 N 
ATOM      2  C   UNL     1       0.896   8.358  20.645  0.00  0.00    +0.000 A 
ATOM      3  N   UNL     1       0.457   8.745  19.477  0.00  0.00    +0.000 NA
ATOM      4  C   UNL     1      -0.279   9.938  19.327  0.00  0.00    +0.000 A 
ATOM      5  C   UNL     1      -0.685  10.319  18.045  0.00  0.00    +0.000 A 
ATOM      6  C   UNL     1      -1.408  11.498  17.861  0.00  0.00    +0.000 A 
ATOM      7  C   UNL     1      -1.736  12.299  18.956  0.00  0.00    +0.000 A 
ATOM      8  C   UNL     1      -1.341  11.928  20.242  0.00  0.00    +0.000 A 
ATOM      9  C   UNL     1      -0.616  10.752  20.423  0.00  0.00    +0.000 A 
ATOM     10  C   UNL     1      -0.144  10.297  21.711  0.00  0.00    +0.000 A 
ATOM     11  N   UNL     1      -0.282  10.801  22.919  0.00  0.00    +0.000 NA
ATOM     12  N   UNL     1       0.399   9.978  23.793  0.00  0.00    +0.000 NA
ATOM     13  C   UNL     1       0.930   9.002  23.092  0.00  0.00    +0.000 A 
ATOM     14  N   UNL     1       0.595   9.142  21.776  0.00  0.00    +0.000 N 
ATOM     15  H   UNL     1       1.737   6.872  21.786  0.00  0.00    +0.000 HD
ENDROOT
BRANCH   1  19
ATOM     16  C   UNL     1       3.430   4.922  17.710  0.00  0.00    +0.000 A 
ATOM     17  C   UNL     1       2.603   4.308  18.661  0.00  0.00    +0.000 A 
ATOM     18  C   UNL     1       2.007   5.008  19.733  0.00  0.00    +0.000 A 
ATOM     19  C   UNL     1       2.247   6.387  19.868  0.00  0.00    +0.000 A 
ATOM     20  C   UNL     1       3.093   6.985  18.908  0.00  0.00    +0.000 A 
ATOM     21  C   UNL     1       3.661   6.287  17.834  0.00  0.00    +0.000 A 
ATOM     22 CL   UNL     1       4.544   7.248  16.701  0.00  0.00    +0.000 Cl
BRANCH  16  24
ATOM     23  C   UNL     1       5.246   3.845  16.607  0.00  0.00    +0.000 C 
ATOM     24  O   UNL     1       3.848   4.075  16.720  0.00  0.00    +0.000 OA
ENDBRANCH  16  24
BRANCH  18  25
ATOM     25  O   UNL     1       1.246   4.156  20.488  0.00  0.00    +0.000 OA
ATOM     26  C   UNL     1       1.791   3.278  21.448  0.00  0.00    +0.000 C 
ENDBRANCH  18  25
ENDBRANCH   1  19
TORSDOF 3
ENDMDL
MODEL 6
REMARK VINA RESULT:      -6.8      4.130      6.458
REMARK  Name = 
REMARK  5 active torsions:
REMARK  status: ('A' for Active; 'I' for Inactive)
REMARK    1  A    between atoms: C_1  and  O_2
REMARK    2  A    between atoms: O_2  and  C_3
REMARK    3  A    between atoms: C_5  and  O_6
REMARK    4  A    between atoms: O_6  and  C_7
REMARK    5  A    between atoms: C_8  and  N_9
REMARK                            x       y       z     vdW  Elec       q    Type
REMARK                         _______ _______ _______ _____ _____    ______ ____
ROOT
ATOM      1  N   UNL     1       1.343   7.362  20.848  0.00  0.00    +0.000 N 
ATOM      2  C   UNL     1       1.207   8.725  20.641  0.00  0.00    +0.000 A 
ATOM      3  N   UNL     1       1.578   9.333  19.545  0.00  0.00    +0.000 NA
ATOM      4  C   UNL     1       1.423  10.726  19.389  0.00  0.00    +0.000 A 
ATOM      5  C   UNL     1       1.877  11.322  18.210  0.00  0.00    +0.000 A 
ATOM      6  C   UNL     1       1.746  12.700  18.027  0.00  0.00    +0.000 A 
ATOM      7  C   UNL     1       1.154  13.486  19.016  0.00  0.00    +0.000 A 
ATOM      8  C   UNL     1       0.691  12.902  20.197  0.00  0.00    +0.000 A 
ATOM      9  C   UNL     1       0.826  11.527  20.378  0.00  0.00    +0.000 A 
ATOM     10  C   UNL     1       0.400  10.836  21.574  0.00  0.00    +0.000 A 
ATOM     11  N   UNL     1      -0.187  11.269  22.670  0.00  0.00    +0.000 NA
ATOM     12  N   UNL     1      -0.341  10.186  23.513  0.00  0.00    +0.000 NA
ATOM     13  C   UNL     1       0.156   9.133  22.907  0.00  0.00    +0.000 A 
ATOM     14  N   UNL     1       0.613   9.483  21.669  0.00  0.00    +0.000 N 
ATOM     15  H   UNL     1       0.844   6.954  21.614  0.00  0.00    +0.000 HD
ENDROOT
BRANCH   1  19
ATOM     16  C   UNL     1       3.562   4.711  18.335  0.00  0.00    +0.000 A 
ATOM     17  C   UNL     1       2.767   4.216  19.378  0.00  0.00    +0.000 A 
ATOM     18  C   UNL     1       2.037   5.049  20.255  0.00  0.00    +0.000 A 
ATOM     19  C   UNL     1       2.103   6.444  20.089  0.00  0.00    +0.000 A 
ATOM     20  C   UNL     1       2.920   6.924  19.040  0.00  0.00    +0.000 A 
ATOM     21  C   UNL     1       3.621   6.089  18.160  0.00  0.00    +0.000 A 
ATOM     22 CL   UNL     1       4.439   6.887  16.864  0.00  0.00    +0.000 Cl
BRANCH  16  24
ATOM     23  C   UNL     1       3.648   2.405  17.744  0.00  0.00    +0.000 C 
ATOM     24  O   UNL     1       4.128   3.731  17.566  0.00  0.00    +0.000 OA
ENDBRANCH  16  24
BRANCH  18  25
ATOM     25  O   UNL     1       1.346   4.290  21.162  0.00  0.00    +0.000 OA
ATOM     26  C   UNL     1       1.436   2.884  21.220  0.00  0.00    +0.000 C 
ENDBRANCH  18  25
ENDBRANCH   1  19
TORSDOF 3
ENDMDL
MODEL 7
REMARK VINA RESULT:      -6.7      4.514      7.719
REMARK  Name = 
REMARK  5 active torsions:
REMARK  status: ('A' for Active; 'I' for Inactive)
REMARK    1  A    between atoms: C_1  and  O_2
REMARK    2  A    between atoms: O_2  and  C_3
REMARK    3  A    between atoms: C_5  and  O_6
REMARK    4  A    between atoms: O_6  and  C_7
REMARK    5  A    between atoms: C_8  and  N_9
REMARK                            x       y       z     vdW  Elec       q    Type
REMARK                         _______ _______ _______ _____ _____    ______ ____
ROOT
ATOM      1  N   UNL     1       2.442   8.358  18.000  0.00  0.00    +0.000 N 
ATOM      2  C   UNL     1       2.711   6.999  17.960  0.00  0.00    +0.000 A 
ATOM      3  N   UNL     1       1.830   6.077  18.246  0.00  0.00    +0.000 NA
ATOM      4  C   UNL     1       2.158   4.707  18.196  0.00  0.00    +0.000 A 
ATOM      5  C   UNL     1       1.184   3.771  18.554  0.00  0.00    +0.000 A 
ATOM      6  C   UNL     1       1.479   2.407  18.523  0.00  0.00    +0.000 A 
ATOM      7  C   UNL     1       2.744   1.971  18.127  0.00  0.00    +0.000 A 
ATOM      8  C   UNL     1       3.725   2.895  17.762  0.00  0.00    +0.000 A 
ATOM      9  C   UNL     1       3.429   4.256  17.797  0.00  0.00    +0.000 A 
ATOM     10  C   UNL     1       4.384   5.288  17.460  0.00  0.00    +0.000 A 
ATOM     11  N   UNL     1       5.632   5.221  17.051  0.00  0.00    +0.000 NA
ATOM     12  N   UNL     1       6.092   6.515  16.906  0.00  0.00    +0.000 NA
ATOM     13  C   UNL     1       5.112   7.326  17.232  0.00  0.00    +0.000 A 
ATOM     14  N   UNL     1       4.003   6.603  17.564  0.00  0.00    +0.000 N 
ATOM     15  H   UNL     1       3.097   8.976  17.564  0.00  0.00    +0.000 HD
ENDROOT
BRANCH   1  19
ATOM     16  C   UNL     1      -0.894  10.505  19.589  0.00  0.00    +0.000 A 
ATOM     17  C   UNL     1       0.033   9.886  20.439  0.00  0.00    +0.000 A 
ATOM     18  C   UNL     1       1.136   9.141  19.966  0.00  0.00    +0.000 A 
ATOM     19  C   UNL     1       1.325   9.001  18.579  0.00  0.00    +0.000 A 
ATOM     20  C   UNL     1       0.372   9.622  17.740  0.00  0.00    +0.000 A 
ATOM     21  C   UNL     1      -0.705  10.379  18.218  0.00  0.00    +0.000 A 
ATOM     22 CL   UNL     1      -1.660  11.165  17.011  0.00  0.00    +0.000 Cl
BRANCH  16  24
ATOM     23  C   UNL     1      -1.433  11.931  21.420  0.00  0.00    +0.000 C 
ATOM     24  O   UNL     1      -1.845  11.231  20.253  0.00  0.00    +0.000 OA
ENDBRANCH  16  24
BRANCH  18  25
ATOM     25  O   UNL     1       1.873   8.667  21.019  0.00  0.00    +0.000 OA
ATOM     26  C   UNL     1       1.582   8.974  22.365  0.00  0.00    +0.000 C 
ENDBRANCH  18  25
ENDBRANCH   1  19
TORSDOF 3
ENDMDL
MODEL 8
REMARK VINA RESULT:      -6.7      4.329      7.616
REMARK  Name = 
REMARK  5 active torsions:
REMARK  status: ('A' for Active; 'I' for Inactive)
REMARK    1  A    between atoms: C_1  and  O_2
REMARK    2  A    between atoms: O_2  and  C_3
REMARK    3  A    between atoms: C_5  and  O_6
REMARK    4  A    between atoms: O_6  and  C_7
REMARK    5  A    between atoms: C_8  and  N_9
REMARK                            x       y       z     vdW  Elec       q    Type
REMARK                         _______ _______ _______ _____ _____    ______ ____
ROOT
ATOM      1  N   UNL     1       2.817   8.187  18.002  0.00  0.00    +0.000 N 
ATOM      2  C   UNL     1       2.902   6.804  18.036  0.00  0.00    +0.000 A 
ATOM      3  N   UNL     1       2.048   6.041  18.665  0.00  0.00    +0.000 NA
ATOM      4  C   UNL     1       2.184   4.637  18.673  0.00  0.00    +0.000 A 
ATOM      5  C   UNL     1       1.263   3.879  19.399  0.00  0.00    +0.000 A 
ATOM      6  C   UNL     1       1.373   2.488  19.434  0.00  0.00    +0.000 A 
ATOM      7  C   UNL     1       2.399   1.848  18.738  0.00  0.00    +0.000 A 
ATOM      8  C   UNL     1       3.324   2.593  18.004  0.00  0.00    +0.000 A 
ATOM      9  C   UNL     1       3.213   3.982  17.974  0.00  0.00    +0.000 A 
ATOM     10  C   UNL     1       4.134   4.839  17.262  0.00  0.00    +0.000 A 
ATOM     11  N   UNL     1       5.183   4.565  16.517  0.00  0.00    +0.000 NA
ATOM     12  N   UNL     1       5.725   5.766  16.104  0.00  0.00    +0.000 NA
ATOM     13  C   UNL     1       4.990   6.731  16.609  0.00  0.00    +0.000 A 
ATOM     14  N   UNL     1       3.958   6.199  17.327  0.00  0.00    +0.000 N 
ATOM     15  H   UNL     1       3.377   8.673  17.329  0.00  0.00    +0.000 HD
ENDROOT
BRANCH   1  19
ATOM     16  C   UNL     1       0.190  10.534  20.421  0.00  0.00    +0.000 A 
ATOM     17  C   UNL     1       0.898  11.113  19.358  0.00  0.00    +0.000 A 
ATOM     18  C   UNL     1       1.800  10.390  18.546  0.00  0.00    +0.000 A 
ATOM     19  C   UNL     1       2.011   9.023  18.807  0.00  0.00    +0.000 A 
ATOM     20  C   UNL     1       1.298   8.462  19.890  0.00  0.00    +0.000 A 
ATOM     21  C   UNL     1       0.387   9.182  20.674  0.00  0.00    +0.000 A 
ATOM     22 CL   UNL     1      -0.478   8.260  21.852  0.00  0.00    +0.000 Cl
BRANCH  16  24
ATOM     23  C   UNL     1      -1.475  12.223  20.194  0.00  0.00    +0.000 C 
ATOM     24  O   UNL     1      -0.679  11.396  21.033  0.00  0.00    +0.000 OA
ENDBRANCH  16  24
BRANCH  18  25
ATOM     25  O   UNL     1       2.332  11.207  17.585  0.00  0.00    +0.000 OA
ATOM     26  C   UNL     1       2.716  12.542  17.833  0.00  0.00    +0.000 C 
ENDBRANCH  18  25
ENDBRANCH   1  19
TORSDOF 3
ENDMDL
MODEL 9
REMARK VINA RESULT:      -6.6      4.609      7.907
REMARK  Name = 
REMARK  5 active torsions:
REMARK  status: ('A' for Active; 'I' for Inactive)
REMARK    1  A    between atoms: C_1  and  O_2
REMARK    2  A    between atoms: O_2  and  C_3
REMARK    3  A    between atoms: C_5  and  O_6
REMARK    4  A    between atoms: O_6  and  C_7
REMARK    5  A    between atoms: C_8  and  N_9
REMARK                            x       y       z     vdW  Elec       q    Type
REMARK                         _______ _______ _______ _____ _____    ______ ____
ROOT
ATOM      1  N   UNL     1       2.377   8.344  18.495  0.00  0.00    +0.000 N 
ATOM      2  C   UNL     1       2.711   7.034  18.800  0.00  0.00    +0.000 A 
ATOM      3  N   UNL     1       2.191   6.366  19.796  0.00  0.00    +0.000 NA
ATOM      4  C   UNL     1       2.571   5.035  20.066  0.00  0.00    +0.000 A 
ATOM      5  C   UNL     1       2.010   4.390  21.171  0.00  0.00    +0.000 A 
ATOM      6  C   UNL     1       2.371   3.075  21.470  0.00  0.00    +0.000 A 
ATOM      7  C   UNL     1       3.286   2.397  20.665  0.00  0.00    +0.000 A 
ATOM      8  C   UNL     1       3.851   3.029  19.555  0.00  0.00    +0.000 A 
ATOM      9  C   UNL     1       3.491   4.342  19.260  0.00  0.00    +0.000 A 
ATOM     10  C   UNL     1       4.038   5.087  18.148  0.00  0.00    +0.000 A 
ATOM     11  N   UNL     1       4.899   4.750  17.211  0.00  0.00    +0.000 NA
ATOM     12  N   UNL     1       5.098   5.858  16.412  0.00  0.00    +0.000 NA
ATOM     13  C   UNL     1       4.354   6.832  16.886  0.00  0.00    +0.000 A 
ATOM     14  N   UNL     1       3.645   6.390  17.966  0.00  0.00    +0.000 N 
ATOM     15  H   UNL     1       2.655   8.701  17.602  0.00  0.00    +0.000 HD
ENDROOT
BRANCH   1  19
ATOM     16  C   UNL     1       0.019  10.949  20.928  0.00  0.00    +0.000 A 
ATOM     17  C   UNL     1       0.685  11.432  19.793  0.00  0.00    +0.000 A 
ATOM     18  C   UNL     1       1.500  10.621  18.971  0.00  0.00    +0.000 A 
ATOM     19  C   UNL     1       1.663   9.262  19.297  0.00  0.00    +0.000 A 
ATOM     20  C   UNL     1       0.994   8.798  20.452  0.00  0.00    +0.000 A 
ATOM     21  C   UNL     1       0.169   9.605  21.247  0.00  0.00    +0.000 A 
ATOM     22 CL   UNL     1      -0.662   8.793  22.525  0.00  0.00    +0.000 Cl
BRANCH  16  24
ATOM     23  C   UNL     1      -1.893  12.366  20.815  0.00  0.00    +0.000 C 
ATOM     24  O   UNL     1      -0.768  11.886  21.540  0.00  0.00    +0.000 OA
ENDBRANCH  16  24
BRANCH  18  25
ATOM     25  O   UNL     1       2.007  11.357  17.934  0.00  0.00    +0.000 OA
ATOM     26  C   UNL     1       2.560  12.645  18.099  0.00  0.00    +0.000 C 
ENDBRANCH  18  25
ENDBRANCH   1  19
TORSDOF 3
ENDMDL
