MODEL 1
REMARK VINA RESULT:      -6.1      0.000      0.000
REMARK  Name = 
REMARK  11 active torsions:
REMARK  status: ('A' for Active; 'I' for Inactive)
REMARK    1  A    between atoms: C_1  and  O_2
REMARK    2  A    between atoms: O_2  and  C_3
REMARK    3  A    between atoms: C_3  and  C_5
REMARK    4  A    between atoms: C_7  and  C_8
REMARK    5  A    between atoms: C_8  and  O_10
REMARK    6  A    between atoms: N_17  and  O_18
REMARK    7  A    between atoms: O_18  and  O_19
REMARK    8  A    between atoms: O_19  and  S_20
REMARK    9  A    between atoms: S_20  and  C_21
REMARK   10  A    between atoms: C_29  and  O_31
REMARK   11  A    between atoms: O_31  and  C_32
REMARK                            x       y       z     vdW  Elec       q    Type
REMARK                         _______ _______ _______ _____ _____    ______ ____
ROOT
ATOM      1  C   UNL     1       0.907  13.270  19.534  0.00  0.00    +0.000 C 
ATOM      2  C   UNL     1       0.510  12.248  18.453  0.00  0.00    +0.000 C 
ATOM      3  C   UNL     1      -0.376  11.212  19.186  0.00  0.00    +0.000 C 
ATOM      4  C   UNL     1      -1.599  10.851  18.385  0.00  0.00    +0.000 A 
ATOM      5  C   UNL     1      -1.781   9.886  17.411  0.00  0.00    +0.000 A 
ATOM      6  C   UNL     1      -3.036   9.802  16.805  0.00  0.00    +0.000 A 
ATOM      7  C   UNL     1      -4.071  10.678  17.176  0.00  0.00    +0.000 A 
ATOM      8  C   UNL     1      -3.866  11.655  18.154  0.00  0.00    +0.000 A 
ATOM      9  C   UNL     1      -2.624  11.737  18.748  0.00  0.00    +0.000 A 
ATOM     10  N   UNL     1      -2.165  12.686  19.688  0.00  0.00    +0.000 N 
ATOM     11  C   UNL     1      -1.005  12.051  20.325  0.00  0.00    +0.000 C 
ATOM     12  N   UNL     1      -0.004  13.023  20.647  0.00  0.00    +0.000 N 
ATOM     13  C   UNL     1       0.230  13.403  21.940  0.00  0.00    +0.000 C 
ATOM     14  O   UNL     1      -0.434  13.016  22.892  0.00  0.00    +0.000 OA
ENDROOT
BRANCH   1  15
ATOM     15  C   UNL     1       0.764  14.725  19.067  0.00  0.00    +0.000 C 
ATOM     16  O   UNL     1      -0.292  15.278  18.784  0.00  0.00    +0.000 OA
BRANCH  15  18
ATOM     17  C   UNL     1       2.912  14.809  18.166  0.00  0.00    +0.000 C 
ATOM     18  O   UNL     1       1.973  15.360  19.091  0.00  0.00    +0.000 OA
ENDBRANCH  15  18
ENDBRANCH   1  15
BRANCH   3  19
ATOM     19  C   UNL     1       0.386  10.050  19.774  0.00  0.00    +0.000 C 
ATOM     20  O   UNL     1       1.340   9.522  19.218  0.00  0.00    +0.000 OA
BRANCH  19  21
ATOM     21  O   UNL     1      -0.047   9.612  20.979  0.00  0.00    +0.000 OA
ATOM     22  H   UNL     1       0.173  10.170  21.753  0.00  0.00    +0.000 HD
ENDBRANCH  19  21
ENDBRANCH   3  19
BRANCH  13  23
ATOM     23  O   UNL     1       1.318  14.211  22.038  0.00  0.00    +0.000 OA
ATOM     24  C   UNL     1       1.065  15.543  22.487  0.00  0.00    +0.000 C 
ENDBRANCH  13  23
BRANCH  10  25
ATOM     25  O   UNL     1      -3.034  13.391  20.501  0.00  0.00    +0.000 OA
BRANCH  25  26
ATOM     26  O   UNL     1      -3.431  12.576  21.651  0.00  0.00    +0.000 OA
BRANCH  26  27
ATOM     27  S   UNL     1      -4.875  13.103  22.298  0.00  0.00    +0.000 S 
BRANCH  27  28
ATOM     28  C   UNL     1      -5.963  12.900  20.898  0.00  0.00    +0.000 A 
ATOM     29  C   UNL     1      -6.554  11.684  20.539  0.00  0.00    +0.000 A 
ATOM     30  C   UNL     1      -7.371  11.597  19.408  0.00  0.00    +0.000 A 
ATOM     31  C   UNL     1      -7.608  12.726  18.627  0.00  0.00    +0.000 A 
ATOM     32  C   UNL     1      -7.045  13.947  18.986  0.00  0.00    +0.000 A 
ATOM     33  C   UNL     1      -6.234  14.034  20.119  0.00  0.00    +0.000 A 
ENDBRANCH  27  28
ENDBRANCH  26  27
ENDBRANCH  25  26
ENDBRANCH  10  25
TORSDOF 9
ENDMDL
MODEL 2
REMARK VINA RESULT:      -5.9      7.056      9.572
REMARK  Name = 
REMARK  11 active torsions:
REMARK  status: ('A' for Active; 'I' for Inactive)
REMARK    1  A    between atoms: C_1  and  O_2
REMARK    2  A    between atoms: O_2  and  C_3
REMARK    3  A    between atoms: C_3  and  C_5
REMARK    4  A    between atoms: C_7  and  C_8
REMARK    5  A    between atoms: C_8  and  O_10
REMARK    6  A    between atoms: N_17  and  O_18
REMARK    7  A    between atoms: O_18  and  O_19
REMARK    8  A    between atoms: O_19  and  S_20
REMARK    9  A    between atoms: S_20  and  C_21
REMARK   10  A    between atoms: C_29  and  O_31
REMARK   11  A    between atoms: O_31  and  C_32
REMARK                            x       y       z     vdW  Elec       q    Type
REMARK                         _______ _______ _______ _____ _____    ______ ____
ROOT
ATOM      1  C   UNL     1       5.302   4.022  17.103  0.00  0.00    +0.000 C 
ATOM      2  C   UNL     1       4.104   3.064  17.236  0.00  0.00    +0.000 C 
ATOM      3  C   UNL     1       3.932   2.843  18.757  0.00  0.00    +0.000 C 
ATOM      4  C   UNL     1       2.487   2.912  19.176  0.00  0.00    +0.000 A 
ATOM      5  C   UNL     1       1.517   1.927  19.218  0.00  0.00    +0.000 A 
ATOM      6  C   UNL     1       0.233   2.296  19.622  0.00  0.00    +0.000 A 
ATOM      7  C   UNL     1      -0.055   3.627  19.967  0.00  0.00    +0.000 A 
ATOM      8  C   UNL     1       0.935   4.613  19.908  0.00  0.00    +0.000 A 
ATOM      9  C   UNL     1       2.201   4.245  19.505  0.00  0.00    +0.000 A 
ATOM     10  N   UNL     1       3.326   5.073  19.291  0.00  0.00    +0.000 N 
ATOM     11  C   UNL     1       4.476   4.164  19.353  0.00  0.00    +0.000 C 
ATOM     12  N   UNL     1       5.499   4.573  18.439  0.00  0.00    +0.000 N 
ATOM     13  C   UNL     1       6.665   5.139  18.880  0.00  0.00    +0.000 C 
ATOM     14  O   UNL     1       6.887   5.409  20.053  0.00  0.00    +0.000 OA
ENDROOT
BRANCH   1  15
ATOM     15  C   UNL     1       5.052   5.163  16.108  0.00  0.00    +0.000 C 
ATOM     16  O   UNL     1       4.707   6.300  16.406  0.00  0.00    +0.000 OA
BRANCH  15  18
ATOM     17  C   UNL     1       6.753   4.790  14.558  0.00  0.00    +0.000 C 
ATOM     18  O   UNL     1       5.352   4.768  14.835  0.00  0.00    +0.000 OA
ENDBRANCH  15  18
ENDBRANCH   1  15
BRANCH   3  19
ATOM     19  C   UNL     1       4.716   1.677  19.308  0.00  0.00    +0.000 C 
ATOM     20  O   UNL     1       5.349   1.729  20.355  0.00  0.00    +0.000 OA
BRANCH  19  21
ATOM     21  O   UNL     1       4.681   0.543  18.571  0.00  0.00    +0.000 OA
ATOM     22  H   UNL     1       5.541   0.112  18.388  0.00  0.00    +0.000 HD
ENDBRANCH  19  21
ENDBRANCH   3  19
BRANCH  13  23
ATOM     23  O   UNL     1       7.557   5.307  17.869  0.00  0.00    +0.000 OA
ATOM     24  C   UNL     1       7.876   6.660  17.539  0.00  0.00    +0.000 C 
ENDBRANCH  13  23
BRANCH  10  25
ATOM     25  O   UNL     1       3.453   6.307  19.903  0.00  0.00    +0.000 OA
BRANCH  25  26
ATOM     26  O   UNL     1       2.199   7.056  19.806  0.00  0.00    +0.000 OA
BRANCH  26  27
ATOM     27  S   UNL     1       2.236   8.139  18.538  0.00  0.00    +0.000 S 
BRANCH  27  28
ATOM     28  C   UNL     1       0.995   9.309  19.060  0.00  0.00    +0.000 A 
ATOM     29  C   UNL     1       0.774   9.669  20.393  0.00  0.00    +0.000 A 
ATOM     30  C   UNL     1      -0.241  10.571  20.728  0.00  0.00    +0.000 A 
ATOM     31  C   UNL     1      -1.043  11.123  19.732  0.00  0.00    +0.000 A 
ATOM     32  C   UNL     1      -0.819  10.791  18.399  0.00  0.00    +0.000 A 
ATOM     33  C   UNL     1       0.199   9.895  18.065  0.00  0.00    +0.000 A 
ENDBRANCH  27  28
ENDBRANCH  26  27
ENDBRANCH  25  26
ENDBRANCH  10  25
TORSDOF 9
ENDMDL
MODEL 3
REMARK VINA RESULT:      -5.9      7.045      9.615
REMARK  Name = 
REMARK  11 active torsions:
REMARK  status: ('A' for Active; 'I' for Inactive)
REMARK    1  A    between atoms: C_1  and  O_2
REMARK    2  A    between atoms: O_2  and  C_3
REMARK    3  A    between atoms: C_3  and  C_5
REMARK    4  A    between atoms: C_7  and  C_8
REMARK    5  A    between atoms: C_8  and  O_10
REMARK    6  A    between atoms: N_17  and  O_18
REMARK    7  A    between atoms: O_18  and  O_19
REMARK    8  A    between atoms: O_19  and  S_20
REMARK    9  A    between atoms: S_20  and  C_21
REMARK   10  A    between atoms: C_29  and  O_31
REMARK   11  A    between atoms: O_31  and  C_32
REMARK                            x       y       z     vdW  Elec       q    Type
REMARK                         _______ _______ _______ _____ _____    ______ ____
ROOT
ATOM      1  C   UNL     1       5.274   4.125  17.088  0.00  0.00    +0.000 C 
ATOM      2  C   UNL     1       4.082   3.154  17.186  0.00  0.00    +0.000 C 
ATOM      3  C   UNL     1       3.913   2.877  18.699  0.00  0.00    +0.000 C 
ATOM      4  C   UNL     1       2.468   2.921  19.120  0.00  0.00    +0.000 A 
ATOM      5  C   UNL     1       1.504   1.927  19.126  0.00  0.00    +0.000 A 
ATOM      6  C   UNL     1       0.218   2.273  19.544  0.00  0.00    +0.000 A 
ATOM      7  C   UNL     1      -0.080   3.588  19.937  0.00  0.00    +0.000 A 
ATOM      8  C   UNL     1       0.903   4.583  19.915  0.00  0.00    +0.000 A 
ATOM      9  C   UNL     1       2.172   4.239  19.498  0.00  0.00    +0.000 A 
ATOM     10  N   UNL     1       3.291   5.081  19.314  0.00  0.00    +0.000 N 
ATOM     11  C   UNL     1       4.448   4.179  19.343  0.00  0.00    +0.000 C 
ATOM     12  N   UNL     1       5.467   4.629  18.444  0.00  0.00    +0.000 N 
ATOM     13  C   UNL     1       6.629   5.187  18.905  0.00  0.00    +0.000 C 
ATOM     14  O   UNL     1       6.849   5.416  20.087  0.00  0.00    +0.000 OA
ENDROOT
BRANCH   1  15
ATOM     15  C   UNL     1       5.015   5.300  16.136  0.00  0.00    +0.000 C 
ATOM     16  O   UNL     1       4.599   6.404  16.468  0.00  0.00    +0.000 OA
BRANCH  15  18
ATOM     17  C   UNL     1       6.664   4.329  14.806  0.00  0.00    +0.000 C 
ATOM     18  O   UNL     1       5.396   4.983  14.863  0.00  0.00    +0.000 OA
ENDBRANCH  15  18
ENDBRANCH   1  15
BRANCH   3  19
ATOM     19  C   UNL     1       4.706   1.698  19.207  0.00  0.00    +0.000 C 
ATOM     20  O   UNL     1       5.349   1.720  20.249  0.00  0.00    +0.000 OA
BRANCH  19  21
ATOM     21  O   UNL     1       4.666   0.587  18.437  0.00  0.00    +0.000 OA
ATOM     22  H   UNL     1       4.793   0.715  17.474  0.00  0.00    +0.000 HD
ENDBRANCH  19  21
ENDBRANCH   3  19
BRANCH  13  23
ATOM     23  O   UNL     1       7.519   5.398  17.901  0.00  0.00    +0.000 OA
ATOM     24  C   UNL     1       7.824   6.764  17.616  0.00  0.00    +0.000 C 
ENDBRANCH  13  23
BRANCH  10  25
ATOM     25  O   UNL     1       3.409   6.294  19.970  0.00  0.00    +0.000 OA
BRANCH  25  26
ATOM     26  O   UNL     1       2.087   6.865  20.229  0.00  0.00    +0.000 OA
BRANCH  26  27
ATOM     27  S   UNL     1       1.877   8.303  19.411  0.00  0.00    +0.000 S 
BRANCH  27  28
ATOM     28  C   UNL     1       0.883   9.212  20.581  0.00  0.00    +0.000 A 
ATOM     29  C   UNL     1       0.107  10.326  20.246  0.00  0.00    +0.000 A 
ATOM     30  C   UNL     1      -0.622  11.006  21.226  0.00  0.00    +0.000 A 
ATOM     31  C   UNL     1      -0.582  10.577  22.551  0.00  0.00    +0.000 A 
ATOM     32  C   UNL     1       0.167   9.457  22.894  0.00  0.00    +0.000 A 
ATOM     33  C   UNL     1       0.890   8.774  21.913  0.00  0.00    +0.000 A 
ENDBRANCH  27  28
ENDBRANCH  26  27
ENDBRANCH  25  26
ENDBRANCH  10  25
TORSDOF 9
ENDMDL
MODEL 4
REMARK VINA RESULT:      -5.9      6.409      9.641
REMARK  Name = 
REMARK  11 active torsions:
REMARK  status: ('A' for Active; 'I' for Inactive)
REMARK    1  A    between atoms: C_1  and  O_2
REMARK    2  A    between atoms: O_2  and  C_3
REMARK    3  A    between atoms: C_3  and  C_5
REMARK    4  A    between atoms: C_7  and  C_8
REMARK    5  A    between atoms: C_8  and  O_10
REMARK    6  A    between atoms: N_17  and  O_18
REMARK    7  A    between atoms: O_18  and  O_19
REMARK    8  A    between atoms: O_19  and  S_20
REMARK    9  A    between atoms: S_20  and  C_21
REMARK   10  A    between atoms: C_29  and  O_31
REMARK   11  A    between atoms: O_31  and  C_32
REMARK                            x       y       z     vdW  Elec       q    Type
REMARK                         _______ _______ _______ _____ _____    ______ ____
ROOT
ATOM      1  C   UNL     1       3.063   3.807  19.655  0.00  0.00    +0.000 C 
ATOM      2  C   UNL     1       4.580   3.984  19.461  0.00  0.00    +0.000 C 
ATOM      3  C   UNL     1       4.755   4.350  17.968  0.00  0.00    +0.000 C 
ATOM      4  C   UNL     1       5.732   5.479  17.776  0.00  0.00    +0.000 A 
ATOM      5  C   UNL     1       7.108   5.461  17.633  0.00  0.00    +0.000 A 
ATOM      6  C   UNL     1       7.764   6.686  17.505  0.00  0.00    +0.000 A 
ATOM      7  C   UNL     1       7.043   7.892  17.527  0.00  0.00    +0.000 A 
ATOM      8  C   UNL     1       5.654   7.893  17.684  0.00  0.00    +0.000 A 
ATOM      9  C   UNL     1       5.009   6.681  17.814  0.00  0.00    +0.000 A 
ATOM     10  N   UNL     1       3.640   6.441  18.065  0.00  0.00    +0.000 N 
ATOM     11  C   UNL     1       3.418   5.055  17.635  0.00  0.00    +0.000 C 
ATOM     12  N   UNL     1       2.454   4.409  18.473  0.00  0.00    +0.000 N 
ATOM     13  C   UNL     1       1.190   4.134  18.026  0.00  0.00    +0.000 C 
ATOM     14  O   UNL     1       0.767   4.482  16.932  0.00  0.00    +0.000 OA
ENDROOT
BRANCH   1  15
ATOM     15  C   UNL     1       2.532   4.501  20.916  0.00  0.00    +0.000 C 
ATOM     16  O   UNL     1       2.051   5.627  20.956  0.00  0.00    +0.000 OA
BRANCH  15  18
ATOM     17  C   UNL     1       1.733   2.520  21.850  0.00  0.00    +0.000 C 
ATOM     18  O   UNL     1       2.585   3.658  21.990  0.00  0.00    +0.000 OA
ENDBRANCH  15  18
ENDBRANCH   1  15
BRANCH   3  19
ATOM     19  C   UNL     1       4.942   3.162  17.056  0.00  0.00    +0.000 C 
ATOM     20  O   UNL     1       5.553   3.220  15.996  0.00  0.00    +0.000 OA
BRANCH  19  21
ATOM     21  O   UNL     1       4.392   2.002  17.480  0.00  0.00    +0.000 OA
ATOM     22  H   UNL     1       4.890   1.182  17.283  0.00  0.00    +0.000 HD
ENDBRANCH  19  21
ENDBRANCH   3  19
BRANCH  13  23
ATOM     23  O   UNL     1       0.493   3.384  18.918  0.00  0.00    +0.000 OA
ATOM     24  C   UNL     1       0.501   1.974  18.687  0.00  0.00    +0.000 C 
ENDBRANCH  13  23
BRANCH  10  25
ATOM     25  O   UNL     1       2.664   7.371  17.752  0.00  0.00    +0.000 OA
BRANCH  25  26
ATOM     26  O   UNL     1       2.172   8.021  18.967  0.00  0.00    +0.000 OA
BRANCH  26  27
ATOM     27  S   UNL     1       1.315   9.406  18.609  0.00  0.00    +0.000 S 
BRANCH  27  28
ATOM     28  C   UNL     1       0.601   9.780  20.201  0.00  0.00    +0.000 A 
ATOM     29  C   UNL     1       0.407   8.832  21.211  0.00  0.00    +0.000 A 
ATOM     30  C   UNL     1      -0.188   9.195  22.423  0.00  0.00    +0.000 A 
ATOM     31  C   UNL     1      -0.593  10.511  22.637  0.00  0.00    +0.000 A 
ATOM     32  C   UNL     1      -0.384  11.469  21.650  0.00  0.00    +0.000 A 
ATOM     33  C   UNL     1       0.216  11.106  20.442  0.00  0.00    +0.000 A 
ENDBRANCH  27  28
ENDBRANCH  26  27
ENDBRANCH  25  26
ENDBRANCH  10  25
TORSDOF 9
ENDMDL
MODEL 5
REMARK VINA RESULT:      -5.8      3.211      6.545
REMARK  Name = 
REMARK  11 active torsions:
REMARK  status: ('A' for Active; 'I' for Inactive)
REMARK    1  A    between atoms: C_1  and  O_2
REMARK    2  A    between atoms: O_2  and  C_3
REMARK    3  A    between atoms: C_3  and  C_5
REMARK    4  A    between atoms: C_7  and  C_8
REMARK    5  A    between atoms: C_8  and  O_10
REMARK    6  A    between atoms: N_17  and  O_18
REMARK    7  A    between atoms: O_18  and  O_19
REMARK    8  A    between atoms: O_19  and  S_20
REMARK    9  A    between atoms: S_20  and  C_21
REMARK   10  A    between atoms: C_29  and  O_31
REMARK   11  A    between atoms: O_31  and  C_32
REMARK                            x       y       z     vdW  Elec       q    Type
REMARK                         _______ _______ _______ _____ _____    ______ ____
ROOT
ATOM      1  C   UNL     1       0.094  12.141  21.485  0.00  0.00    +0.000 C 
ATOM      2  C   UNL     1      -1.384  12.062  21.062  0.00  0.00    +0.000 C 
ATOM      3  C   UNL     1      -1.420  12.616  19.618  0.00  0.00    +0.000 C 
ATOM      4  C   UNL     1      -2.279  11.774  18.713  0.00  0.00    +0.000 A 
ATOM      5  C   UNL     1      -3.638  11.830  18.458  0.00  0.00    +0.000 A 
ATOM      6  C   UNL     1      -4.175  10.882  17.585  0.00  0.00    +0.000 A 
ATOM      7  C   UNL     1      -3.356   9.905  16.995  0.00  0.00    +0.000 A 
ATOM      8  C   UNL     1      -1.986   9.855  17.272  0.00  0.00    +0.000 A 
ATOM      9  C   UNL     1      -1.460  10.791  18.138  0.00  0.00    +0.000 A 
ATOM     10  N   UNL     1      -0.138  10.885  18.627  0.00  0.00    +0.000 N 
ATOM     11  C   UNL     1      -0.007  12.271  19.089  0.00  0.00    +0.000 C 
ATOM     12  N   UNL     1       0.835  12.346  20.244  0.00  0.00    +0.000 N 
ATOM     13  C   UNL     1       2.099  12.866  20.174  0.00  0.00    +0.000 C 
ATOM     14  O   UNL     1       2.628  13.223  19.129  0.00  0.00    +0.000 OA
ENDROOT
BRANCH   1  15
ATOM     15  C   UNL     1       0.591  10.864  22.175  0.00  0.00    +0.000 C 
ATOM     16  O   UNL     1       1.579  10.219  21.845  0.00  0.00    +0.000 OA
BRANCH  15  18
ATOM     17  C   UNL     1      -0.511   9.199  23.378  0.00  0.00    +0.000 C 
ATOM     18  O   UNL     1      -0.169  10.582  23.274  0.00  0.00    +0.000 OA
ENDBRANCH  15  18
ENDBRANCH   1  15
BRANCH   3  19
ATOM     19  C   UNL     1      -1.644  14.106  19.530  0.00  0.00    +0.000 C 
ATOM     20  O   UNL     1      -2.437  14.708  20.242  0.00  0.00    +0.000 OA
BRANCH  19  21
ATOM     21  O   UNL     1      -0.903  14.759  18.606  0.00  0.00    +0.000 OA
ATOM     22  H   UNL     1      -1.395  15.243  17.911  0.00  0.00    +0.000 HD
ENDBRANCH  19  21
ENDBRANCH   3  19
BRANCH  13  23
ATOM     23  O   UNL     1       2.663  12.987  21.403  0.00  0.00    +0.000 OA
ATOM     24  C   UNL     1       3.600  14.055  21.556  0.00  0.00    +0.000 C 
ENDBRANCH  13  23
BRANCH  10  25
ATOM     25  O   UNL     1       0.934  10.332  17.948  0.00  0.00    +0.000 OA
BRANCH  25  26
ATOM     26  O   UNL     1       1.550   9.271  18.745  0.00  0.00    +0.000 OA
BRANCH  26  27
ATOM     27  S   UNL     1       2.564   8.326  17.816  0.00  0.00    +0.000 S 
BRANCH  27  28
ATOM     28  C   UNL     1       2.347   6.736  18.596  0.00  0.00    +0.000 A 
ATOM     29  C   UNL     1       2.386   5.519  17.909  0.00  0.00    +0.000 A 
ATOM     30  C   UNL     1       2.176   4.313  18.585  0.00  0.00    +0.000 A 
ATOM     31  C   UNL     1       1.926   4.314  19.955  0.00  0.00    +0.000 A 
ATOM     32  C   UNL     1       1.907   5.516  20.655  0.00  0.00    +0.000 A 
ATOM     33  C   UNL     1       2.124   6.719  19.980  0.00  0.00    +0.000 A 
ENDBRANCH  27  28
ENDBRANCH  26  27
ENDBRANCH  25  26
ENDBRANCH  10  25
TORSDOF 9
ENDMDL
MODEL 6
REMARK VINA RESULT:      -5.8      1.607      2.247
REMARK  Name = 
REMARK  11 active torsions:
REMARK  status: ('A' for Active; 'I' for Inactive)
REMARK    1  A    between atoms: C_1  and  O_2
REMARK    2  A    between atoms: O_2  and  C_3
REMARK    3  A    between atoms: C_3  and  C_5
REMARK    4  A    between atoms: C_7  and  C_8
REMARK    5  A    between atoms: C_8  and  O_10
REMARK    6  A    between atoms: N_17  and  O_18
REMARK    7  A    between atoms: O_18  and  O_19
REMARK    8  A    between atoms: O_19  and  S_20
REMARK    9  A    between atoms: S_20  and  C_21
REMARK   10  A    between atoms: C_29  and  O_31
REMARK   11  A    between atoms: O_31  and  C_32
REMARK                            x       y       z     vdW  Elec       q    Type
REMARK                         _______ _______ _______ _____ _____    ______ ____
ROOT
ATOM      1  C   UNL     1       0.302  13.928  21.871  0.00  0.00    +0.000 C 
ATOM      2  C   UNL     1       0.569  12.862  20.791  0.00  0.00    +0.000 C 
ATOM      3  C   UNL     1      -0.461  11.741  21.070  0.00  0.00    +0.000 C 
ATOM      4  C   UNL     1      -1.110  11.246  19.805  0.00  0.00    +0.000 A 
ATOM      5  C   UNL     1      -0.712  10.261  18.919  0.00  0.00    +0.000 A 
ATOM      6  C   UNL     1      -1.508  10.039  17.794  0.00  0.00    +0.000 A 
ATOM      7  C   UNL     1      -2.669  10.800  17.575  0.00  0.00    +0.000 A 
ATOM      8  C   UNL     1      -3.050  11.800  18.475  0.00  0.00    +0.000 A 
ATOM      9  C   UNL     1      -2.260  12.018  19.584  0.00  0.00    +0.000 A 
ATOM     10  N   UNL     1      -2.397  13.017  20.573  0.00  0.00    +0.000 N 
ATOM     11  C   UNL     1      -1.633  12.515  21.721  0.00  0.00    +0.000 C 
ATOM     12  N   UNL     1      -1.004  13.591  22.425  0.00  0.00    +0.000 N 
ATOM     13  C   UNL     1      -1.456  14.002  23.650  0.00  0.00    +0.000 C 
ATOM     14  O   UNL     1      -2.457  13.551  24.190  0.00  0.00    +0.000 OA
ENDROOT
BRANCH   1  15
ATOM     15  C   UNL     1       0.269  15.356  21.310  0.00  0.00    +0.000 C 
ATOM     16  O   UNL     1       0.957  16.289  21.705  0.00  0.00    +0.000 OA
BRANCH  15  18
ATOM     17  C   UNL     1      -0.043  16.207  19.162  0.00  0.00    +0.000 C 
ATOM     18  O   UNL     1      -0.576  15.434  20.239  0.00  0.00    +0.000 OA
ENDBRANCH  15  18
ENDBRANCH   1  15
BRANCH   3  19
ATOM     19  C   UNL     1       0.027  10.672  22.016  0.00  0.00    +0.000 C 
ATOM     20  O   UNL     1       1.173  10.241  22.008  0.00  0.00    +0.000 OA
BRANCH  19  21
ATOM     21  O   UNL     1      -0.886  10.203  22.897  0.00  0.00    +0.000 OA
ATOM     22  H   UNL     1      -1.643   9.707  22.523  0.00  0.00    +0.000 HD
ENDBRANCH  19  21
ENDBRANCH   3  19
BRANCH  13  23
ATOM     23  O   UNL     1      -0.629  14.923  24.209  0.00  0.00    +0.000 OA
ATOM     24  C   UNL     1      -1.202  15.735  25.235  0.00  0.00    +0.000 C 
ENDBRANCH  13  23
BRANCH  10  25
ATOM     25  O   UNL     1      -3.611  13.629  20.831  0.00  0.00    +0.000 OA
BRANCH  25  26
ATOM     26  O   UNL     1      -4.407  12.815  21.751  0.00  0.00    +0.000 OA
BRANCH  26  27
ATOM     27  S   UNL     1      -6.020  13.236  21.693  0.00  0.00    +0.000 S 
BRANCH  27  28
ATOM     28  C   UNL     1      -6.360  13.019  19.955  0.00  0.00    +0.000 A 
ATOM     29  C   UNL     1      -6.471  14.073  19.044  0.00  0.00    +0.000 A 
ATOM     30  C   UNL     1      -6.771  13.824  17.701  0.00  0.00    +0.000 A 
ATOM     31  C   UNL     1      -6.962  12.518  17.257  0.00  0.00    +0.000 A 
ATOM     32  C   UNL     1      -6.831  11.457  18.148  0.00  0.00    +0.000 A 
ATOM     33  C   UNL     1      -6.525  11.706  19.488  0.00  0.00    +0.000 A 
ENDBRANCH  27  28
ENDBRANCH  26  27
ENDBRANCH  25  26
ENDBRANCH  10  25
TORSDOF 9
ENDMDL
MODEL 7
REMARK VINA RESULT:      -5.8      7.100      9.816
REMARK  Name = 
REMARK  11 active torsions:
REMARK  status: ('A' for Active; 'I' for Inactive)
REMARK    1  A    between atoms: C_1  and  O_2
REMARK    2  A    between atoms: O_2  and  C_3
REMARK    3  A    between atoms: C_3  and  C_5
REMARK    4  A    between atoms: C_7  and  C_8
REMARK    5  A    between atoms: C_8  and  O_10
REMARK    6  A    between atoms: N_17  and  O_18
REMARK    7  A    between atoms: O_18  and  O_19
REMARK    8  A    between atoms: O_19  and  S_20
REMARK    9  A    between atoms: S_20  and  C_21
REMARK   10  A    between atoms: C_29  and  O_31
REMARK   11  A    between atoms: O_31  and  C_32
REMARK                            x       y       z     vdW  Elec       q    Type
REMARK                         _______ _______ _______ _____ _____    ______ ____
ROOT
ATOM      1  C   UNL     1       5.298   3.996  17.086  0.00  0.00    +0.000 C 
ATOM      2  C   UNL     1       4.109   3.026  17.222  0.00  0.00    +0.000 C 
ATOM      3  C   UNL     1       3.926   2.827  18.745  0.00  0.00    +0.000 C 
ATOM      4  C   UNL     1       2.477   2.886  19.149  0.00  0.00    +0.000 A 
ATOM      5  C   UNL     1       1.517   1.890  19.197  0.00  0.00    +0.000 A 
ATOM      6  C   UNL     1       0.225   2.251  19.584  0.00  0.00    +0.000 A 
ATOM      7  C   UNL     1      -0.081   3.583  19.906  0.00  0.00    +0.000 A 
ATOM      8  C   UNL     1       0.898   4.580  19.842  0.00  0.00    +0.000 A 
ATOM      9  C   UNL     1       2.172   4.220  19.456  0.00  0.00    +0.000 A 
ATOM     10  N   UNL     1       3.290   5.057  19.240  0.00  0.00    +0.000 N 
ATOM     11  C   UNL     1       4.450   4.162  19.326  0.00  0.00    +0.000 C 
ATOM     12  N   UNL     1       5.476   4.570  18.415  0.00  0.00    +0.000 N 
ATOM     13  C   UNL     1       6.631   5.155  18.858  0.00  0.00    +0.000 C 
ATOM     14  O   UNL     1       6.839   5.446  20.029  0.00  0.00    +0.000 OA
ENDROOT
BRANCH   1  15
ATOM     15  C   UNL     1       5.044   5.119  16.072  0.00  0.00    +0.000 C 
ATOM     16  O   UNL     1       4.709   6.264  16.351  0.00  0.00    +0.000 OA
BRANCH  15  18
ATOM     17  C   UNL     1       6.709   4.384  14.614  0.00  0.00    +0.000 C 
ATOM     18  O   UNL     1       5.328   4.698  14.804  0.00  0.00    +0.000 OA
ENDBRANCH  15  18
ENDBRANCH   1  15
BRANCH   3  19
ATOM     19  C   UNL     1       4.718   1.679  19.321  0.00  0.00    +0.000 C 
ATOM     20  O   UNL     1       5.333   1.750  20.377  0.00  0.00    +0.000 OA
BRANCH  19  21
ATOM     21  O   UNL     1       4.711   0.537  18.596  0.00  0.00    +0.000 OA
ATOM     22  H   UNL     1       5.417  -0.113  18.793  0.00  0.00    +0.000 HD
ENDBRANCH  19  21
ENDBRANCH   3  19
BRANCH  13  23
ATOM     23  O   UNL     1       7.530   5.318  17.853  0.00  0.00    +0.000 OA
ATOM     24  C   UNL     1       7.827   6.669  17.496  0.00  0.00    +0.000 C 
ENDBRANCH  13  23
BRANCH  10  25
ATOM     25  O   UNL     1       3.397   6.302  19.834  0.00  0.00    +0.000 OA
BRANCH  25  26
ATOM     26  O   UNL     1       3.504   7.346  18.814  0.00  0.00    +0.000 OA
BRANCH  26  27
ATOM     27  S   UNL     1       2.025   7.658  18.108  0.00  0.00    +0.000 S 
BRANCH  27  28
ATOM     28  C   UNL     1       1.502   9.085  19.043  0.00  0.00    +0.000 A 
ATOM     29  C   UNL     1       1.456  10.382  18.524  0.00  0.00    +0.000 A 
ATOM     30  C   UNL     1       1.064  11.457  19.329  0.00  0.00    +0.000 A 
ATOM     31  C   UNL     1       0.712  11.242  20.660  0.00  0.00    +0.000 A 
ATOM     32  C   UNL     1       0.731   9.952  21.182  0.00  0.00    +0.000 A 
ATOM     33  C   UNL     1       1.116   8.879  20.375  0.00  0.00    +0.000 A 
ENDBRANCH  27  28
ENDBRANCH  26  27
ENDBRANCH  25  26
ENDBRANCH  10  25
TORSDOF 9
ENDMDL
MODEL 8
REMARK VINA RESULT:      -5.7      2.824      6.346
REMARK  Name = 
REMARK  11 active torsions:
REMARK  status: ('A' for Active; 'I' for Inactive)
REMARK    1  A    between atoms: C_1  and  O_2
REMARK    2  A    between atoms: O_2  and  C_3
REMARK    3  A    between atoms: C_3  and  C_5
REMARK    4  A    between atoms: C_7  and  C_8
REMARK    5  A    between atoms: C_8  and  O_10
REMARK    6  A    between atoms: N_17  and  O_18
REMARK    7  A    between atoms: O_18  and  O_19
REMARK    8  A    between atoms: O_19  and  S_20
REMARK    9  A    between atoms: S_20  and  C_21
REMARK   10  A    between atoms: C_29  and  O_31
REMARK   11  A    between atoms: O_31  and  C_32
REMARK                            x       y       z     vdW  Elec       q    Type
REMARK                         _______ _______ _______ _____ _____    ______ ____
ROOT
ATOM      1  C   UNL     1      -0.442  12.513  21.828  0.00  0.00    +0.000 C 
ATOM      2  C   UNL     1      -1.981  12.480  21.792  0.00  0.00    +0.000 C 
ATOM      3  C   UNL     1      -2.370  13.244  20.504  0.00  0.00    +0.000 C 
ATOM      4  C   UNL     1      -3.455  12.537  19.736  0.00  0.00    +0.000 A 
ATOM      5  C   UNL     1      -4.831  12.615  19.850  0.00  0.00    +0.000 A 
ATOM      6  C   UNL     1      -5.599  11.802  19.014  0.00  0.00    +0.000 A 
ATOM      7  C   UNL     1      -4.985  10.935  18.095  0.00  0.00    +0.000 A 
ATOM      8  C   UNL     1      -3.592  10.861  18.001  0.00  0.00    +0.000 A 
ATOM      9  C   UNL     1      -2.836  11.662  18.831  0.00  0.00    +0.000 A 
ATOM     10  N   UNL     1      -1.431  11.697  18.972  0.00  0.00    +0.000 N 
ATOM     11  C   UNL     1      -1.149  13.000  19.585  0.00  0.00    +0.000 C 
ATOM     12  N   UNL     1      -0.038  12.911  20.483  0.00  0.00    +0.000 N 
ATOM     13  C   UNL     1       1.180  13.451  20.168  0.00  0.00    +0.000 C 
ATOM     14  O   UNL     1       1.434  13.967  19.088  0.00  0.00    +0.000 OA
ENDROOT
BRANCH   1  15
ATOM     15  C   UNL     1       0.181  11.153  22.170  0.00  0.00    +0.000 C 
ATOM     16  O   UNL     1       1.083  10.608  21.544  0.00  0.00    +0.000 OA
BRANCH  15  18
ATOM     17  C   UNL     1      -0.359   9.230  23.373  0.00  0.00    +0.000 C 
ATOM     18  O   UNL     1      -0.347  10.658  23.329  0.00  0.00    +0.000 OA
ENDBRANCH  15  18
ENDBRANCH   1  15
BRANCH   3  19
ATOM     19  C   UNL     1      -2.568  14.728  20.699  0.00  0.00    +0.000 C 
ATOM     20  O   UNL     1      -3.212  15.203  21.626  0.00  0.00    +0.000 OA
BRANCH  19  21
ATOM     21  O   UNL     1      -1.981  15.526  19.778  0.00  0.00    +0.000 OA
ATOM     22  H   UNL     1      -1.610  15.084  18.987  0.00  0.00    +0.000 HD
ENDBRANCH  19  21
ENDBRANCH   3  19
BRANCH  13  23
ATOM     23  O   UNL     1       2.042  13.393  21.215  0.00  0.00    +0.000 OA
ATOM     24  C   UNL     1       2.682  14.621  21.564  0.00  0.00    +0.000 C 
ENDBRANCH  13  23
BRANCH  10  25
ATOM     25  O   UNL     1      -0.584  11.266  17.966  0.00  0.00    +0.000 OA
BRANCH  25  26
ATOM     26  O   UNL     1       0.106  10.041  18.371  0.00  0.00    +0.000 OA
BRANCH  26  27
ATOM     27  S   UNL     1       1.750  10.156  18.110  0.00  0.00    +0.000 S 
BRANCH  27  28
ATOM     28  C   UNL     1       2.261   8.481  18.453  0.00  0.00    +0.000 A 
ATOM     29  C   UNL     1       3.038   7.710  17.584  0.00  0.00    +0.000 A 
ATOM     30  C   UNL     1       3.373   6.392  17.909  0.00  0.00    +0.000 A 
ATOM     31  C   UNL     1       2.937   5.835  19.109  0.00  0.00    +0.000 A 
ATOM     32  C   UNL     1       2.184   6.600  19.994  0.00  0.00    +0.000 A 
ATOM     33  C   UNL     1       1.854   7.918  19.671  0.00  0.00    +0.000 A 
ENDBRANCH  27  28
ENDBRANCH  26  27
ENDBRANCH  25  26
ENDBRANCH  10  25
TORSDOF 9
ENDMDL
MODEL 9
REMARK VINA RESULT:      -5.7      2.047      2.704
REMARK  Name = 
REMARK  11 active torsions:
REMARK  status: ('A' for Active; 'I' for Inactive)
REMARK    1  A    between atoms: C_1  and  O_2
REMARK    2  A    between atoms: O_2  and  C_3
REMARK    3  A    between atoms: C_3  and  C_5
REMARK    4  A    between atoms: C_7  and  C_8
REMARK    5  A    between atoms: C_8  and  O_10
REMARK    6  A    between atoms: N_17  and  O_18
REMARK    7  A    between atoms: O_18  and  O_19
REMARK    8  A    between atoms: O_19  and  S_20
REMARK    9  A    between atoms: S_20  and  C_21
REMARK   10  A    between atoms: C_29  and  O_31
REMARK   11  A    between atoms: O_31  and  C_32
REMARK                            x       y       z     vdW  Elec       q    Type
REMARK                         _______ _______ _______ _____ _____    ______ ____
ROOT
ATOM      1  C   UNL     1       0.515  13.434  19.795  0.00  0.00    +0.000 C 
ATOM      2  C   UNL     1       0.169  12.410  18.698  0.00  0.00    +0.000 C 
ATOM      3  C   UNL     1      -0.716  11.353  19.400  0.00  0.00    +0.000 C 
ATOM      4  C   UNL     1      -1.909  10.973  18.563  0.00  0.00    +0.000 A 
ATOM      5  C   UNL     1      -2.044  10.009  17.579  0.00  0.00    +0.000 A 
ATOM      6  C   UNL     1      -3.280   9.905  16.938  0.00  0.00    +0.000 A 
ATOM      7  C   UNL     1      -4.342  10.757  17.284  0.00  0.00    +0.000 A 
ATOM      8  C   UNL     1      -4.184  11.733  18.273  0.00  0.00    +0.000 A 
ATOM      9  C   UNL     1      -2.961  11.836  18.902  0.00  0.00    +0.000 A 
ATOM     10  N   UNL     1      -2.547  12.788  19.859  0.00  0.00    +0.000 N 
ATOM     11  C   UNL     1      -1.393  12.173  20.525  0.00  0.00    +0.000 C 
ATOM     12  N   UNL     1      -0.422  13.163  20.880  0.00  0.00    +0.000 N 
ATOM     13  C   UNL     1      -0.231  13.540  22.181  0.00  0.00    +0.000 C 
ATOM     14  O   UNL     1      -0.914  13.134  23.113  0.00  0.00    +0.000 OA
ENDROOT
BRANCH   1  15
ATOM     15  C   UNL     1       0.357  14.888  19.331  0.00  0.00    +0.000 C 
ATOM     16  O   UNL     1      -0.691  15.524  19.337  0.00  0.00    +0.000 OA
BRANCH  15  18
ATOM     17  C   UNL     1       1.701  16.792  19.364  0.00  0.00    +0.000 C 
ATOM     18  O   UNL     1       1.567  15.421  18.989  0.00  0.00    +0.000 OA
ENDBRANCH  15  18
ENDBRANCH   1  15
BRANCH   3  19
ATOM     19  C   UNL     1       0.052  10.203  20.004  0.00  0.00    +0.000 C 
ATOM     20  O   UNL     1      -0.355   9.552  20.958  0.00  0.00    +0.000 OA
BRANCH  19  21
ATOM     21  O   UNL     1       1.238   9.917  19.421  0.00  0.00    +0.000 OA
ATOM     22  H   UNL     1       1.815   9.280  19.890  0.00  0.00    +0.000 HD
ENDBRANCH  19  21
ENDBRANCH   3  19
BRANCH  13  23
ATOM     23  O   UNL     1       0.837  14.369  22.314  0.00  0.00    +0.000 OA
ATOM     24  C   UNL     1       0.550  15.683  22.796  0.00  0.00    +0.000 C 
ENDBRANCH  13  23
BRANCH  10  25
ATOM     25  O   UNL     1      -3.453  13.471  20.651  0.00  0.00    +0.000 OA
BRANCH  25  26
ATOM     26  O   UNL     1      -3.913  12.621  21.750  0.00  0.00    +0.000 OA
BRANCH  26  27
ATOM     27  S   UNL     1      -5.426  13.080  22.281  0.00  0.00    +0.000 S 
BRANCH  27  28
ATOM     28  C   UNL     1      -5.010  14.477  23.309  0.00  0.00    +0.000 A 
ATOM     29  C   UNL     1      -3.852  14.554  24.089  0.00  0.00    +0.000 A 
ATOM     30  C   UNL     1      -3.610  15.671  24.896  0.00  0.00    +0.000 A 
ATOM     31  C   UNL     1      -4.524  16.722  24.927  0.00  0.00    +0.000 A 
ATOM     32  C   UNL     1      -5.668  16.669  24.137  0.00  0.00    +0.000 A 
ATOM     33  C   UNL     1      -5.906  15.556  23.328  0.00  0.00    +0.000 A 
ENDBRANCH  27  28
ENDBRANCH  26  27
ENDBRANCH  25  26
ENDBRANCH  10  25
TORSDOF 9
ENDMDL
