MODEL 1
REMARK VINA RESULT:      -7.5      0.000      0.000
REMARK  Name = 
REMARK  7 active torsions:
REMARK  status: ('A' for Active; 'I' for Inactive)
REMARK    1  A    between atoms: C_1  and  O_2
REMARK    2  A    between atoms: O_2  and  C_3
REMARK    3  A    between atoms: C_6  and  C_7
REMARK    4  A    between atoms: C_7  and  C_9
REMARK    5  A    between atoms: C_13  and  O_14
REMARK    6  A    between atoms: C_15  and  O_16
REMARK    7  A    between atoms: O_16  and  C_17
REMARK                            x       y       z     vdW  Elec       q    Type
REMARK                         _______ _______ _______ _____ _____    ______ ____
ROOT
ATOM      1  C   UNL     1       3.109   6.322  19.196  0.00  0.00    +0.000 A 
ATOM      2  C   UNL     1       4.120   5.477  19.616  0.00  0.00    +0.000 A 
ATOM      3  C   UNL     1       5.046   5.356  18.577  0.00  0.00    +0.000 A 
ATOM      4  C   UNL     1       6.247   4.640  18.452  0.00  0.00    +0.000 A 
ATOM      5  C   UNL     1       6.956   4.764  17.265  0.00  0.00    +0.000 A 
ATOM      6  C   UNL     1       6.511   5.577  16.211  0.00  0.00    +0.000 A 
ATOM      7  C   UNL     1       5.297   6.296  16.326  0.00  0.00    +0.000 A 
ATOM      8  C   UNL     1       4.584   6.151  17.535  0.00  0.00    +0.000 A 
ATOM      9  O   UNL     1       3.376   6.737  17.906  0.00  0.00    +0.000 OA
ENDROOT
BRANCH   1  10
ATOM     10  C   UNL     1       2.015   6.728  20.069  0.00  0.00    +0.000 C 
ATOM     11  O   UNL     1       1.359   5.821  20.611  0.00  0.00    +0.000 OA
BRANCH  10  15
ATOM     12  C   UNL     1       0.588  10.622  21.254  0.00  0.00    +0.000 A 
ATOM     13  C   UNL     1       0.756   9.596  22.169  0.00  0.00    +0.000 A 
ATOM     14  C   UNL     1       1.220   8.354  21.736  0.00  0.00    +0.000 A 
ATOM     15  C   UNL     1       1.513   8.095  20.375  0.00  0.00    +0.000 A 
ATOM     16  C   UNL     1       1.307   9.124  19.456  0.00  0.00    +0.000 A 
ATOM     17  C   UNL     1       0.851  10.385  19.901  0.00  0.00    +0.000 A 
BRANCH  12  19
ATOM     18  C   UNL     1      -0.949  11.661  22.719  0.00  0.00    +0.000 C 
ATOM     19  O   UNL     1       0.124  11.786  21.800  0.00  0.00    +0.000 OA
ENDBRANCH  12  19
ENDBRANCH  10  15
ENDBRANCH   1  10
BRANCH   5  20
ATOM     20  O   UNL     1       8.134   4.068  17.126  0.00  0.00    +0.000 OA
ATOM     21  H   UNL     1       8.763   4.601  16.618  0.00  0.00    +0.000 HD
ENDBRANCH   5  20
BRANCH   6  22
ATOM     22  O   UNL     1       7.352   5.558  15.130  0.00  0.00    +0.000 OA
ATOM     23  C   UNL     1       7.011   4.829  13.970  0.00  0.00    +0.000 C 
ENDBRANCH   6  22
TORSDOF 5
ENDMDL
MODEL 2
REMARK VINA RESULT:      -7.2      0.704      1.391
REMARK  Name = 
REMARK  7 active torsions:
REMARK  status: ('A' for Active; 'I' for Inactive)
REMARK    1  A    between atoms: C_1  and  O_2
REMARK    2  A    between atoms: O_2  and  C_3
REMARK    3  A    between atoms: C_6  and  C_7
REMARK    4  A    between atoms: C_7  and  C_9
REMARK    5  A    between atoms: C_13  and  O_14
REMARK    6  A    between atoms: C_15  and  O_16
REMARK    7  A    between atoms: O_16  and  C_17
REMARK                            x       y       z     vdW  Elec       q    Type
REMARK                         _______ _______ _______ _____ _____    ______ ____
ROOT
ATOM      1  C   UNL     1       3.166   6.322  19.162  0.00  0.00    +0.000 A 
ATOM      2  C   UNL     1       4.195   5.508  19.596  0.00  0.00    +0.000 A 
ATOM      3  C   UNL     1       5.109   5.362  18.549  0.00  0.00    +0.000 A 
ATOM      4  C   UNL     1       6.318   4.659  18.432  0.00  0.00    +0.000 A 
ATOM      5  C   UNL     1       7.008   4.751  17.232  0.00  0.00    +0.000 A 
ATOM      6  C   UNL     1       6.536   5.519  16.156  0.00  0.00    +0.000 A 
ATOM      7  C   UNL     1       5.314   6.224  16.263  0.00  0.00    +0.000 A 
ATOM      8  C   UNL     1       4.620   6.113  17.487  0.00  0.00    +0.000 A 
ATOM      9  O   UNL     1       3.408   6.694  17.854  0.00  0.00    +0.000 OA
ENDROOT
BRANCH   1  10
ATOM     10  C   UNL     1       2.078   6.744  20.035  0.00  0.00    +0.000 C 
ATOM     11  O   UNL     1       1.472   5.851  20.653  0.00  0.00    +0.000 OA
BRANCH  10  15
ATOM     12  C   UNL     1       0.492  10.739  20.394  0.00  0.00    +0.000 A 
ATOM     13  C   UNL     1       0.973  10.249  19.191  0.00  0.00    +0.000 A 
ATOM     14  C   UNL     1       1.476   8.949  19.127  0.00  0.00    +0.000 A 
ATOM     15  C   UNL     1       1.531   8.108  20.265  0.00  0.00    +0.000 A 
ATOM     16  C   UNL     1       1.076   8.623  21.479  0.00  0.00    +0.000 A 
ATOM     17  C   UNL     1       0.553   9.934  21.536  0.00  0.00    +0.000 A 
BRANCH  12  19
ATOM     18  C   UNL     1       0.136  12.661  19.066  0.00  0.00    +0.000 C 
ATOM     19  O   UNL     1       0.031  12.023  20.329  0.00  0.00    +0.000 OA
ENDBRANCH  12  19
ENDBRANCH  10  15
ENDBRANCH   1  10
BRANCH   5  20
ATOM     20  O   UNL     1       8.194   4.067  17.100  0.00  0.00    +0.000 OA
ATOM     21  H   UNL     1       8.920   4.619  17.426  0.00  0.00    +0.000 HD
ENDBRANCH   5  20
BRANCH   6  22
ATOM     22  O   UNL     1       7.362   5.473  15.063  0.00  0.00    +0.000 OA
ATOM     23  C   UNL     1       6.988   4.744  13.914  0.00  0.00    +0.000 C 
ENDBRANCH   6  22
TORSDOF 5
ENDMDL
MODEL 3
REMARK VINA RESULT:      -7.2      1.293      8.213
REMARK  Name = 
REMARK  7 active torsions:
REMARK  status: ('A' for Active; 'I' for Inactive)
REMARK    1  A    between atoms: C_1  and  O_2
REMARK    2  A    between atoms: O_2  and  C_3
REMARK    3  A    between atoms: C_6  and  C_7
REMARK    4  A    between atoms: C_7  and  C_9
REMARK    5  A    between atoms: C_13  and  O_14
REMARK    6  A    between atoms: C_15  and  O_16
REMARK    7  A    between atoms: O_16  and  C_17
REMARK                            x       y       z     vdW  Elec       q    Type
REMARK                         _______ _______ _______ _____ _____    ______ ____
ROOT
ATOM      1  C   UNL     1       2.865   6.441  19.001  0.00  0.00    +0.000 A 
ATOM      2  C   UNL     1       2.573   7.541  18.216  0.00  0.00    +0.000 A 
ATOM      3  C   UNL     1       1.817   8.434  18.980  0.00  0.00    +0.000 A 
ATOM      4  C   UNL     1       1.257   9.690  18.698  0.00  0.00    +0.000 A 
ATOM      5  C   UNL     1       0.572  10.338  19.716  0.00  0.00    +0.000 A 
ATOM      6  C   UNL     1       0.434   9.779  20.997  0.00  0.00    +0.000 A 
ATOM      7  C   UNL     1       0.988   8.510  21.286  0.00  0.00    +0.000 A 
ATOM      8  C   UNL     1       1.673   7.861  20.238  0.00  0.00    +0.000 A 
ATOM      9  O   UNL     1       2.304   6.619  20.251  0.00  0.00    +0.000 OA
ENDROOT
BRANCH   1  10
ATOM     10  C   UNL     1       3.710   5.348  18.536  0.00  0.00    +0.000 C 
ATOM     11  O   UNL     1       3.473   4.217  18.996  0.00  0.00    +0.000 OA
BRANCH  10  15
ATOM     12  C   UNL     1       6.918   5.335  15.653  0.00  0.00    +0.000 A 
ATOM     13  C   UNL     1       5.729   4.661  15.426  0.00  0.00    +0.000 A 
ATOM     14  C   UNL     1       4.721   4.696  16.390  0.00  0.00    +0.000 A 
ATOM     15  C   UNL     1       4.878   5.388  17.616  0.00  0.00    +0.000 A 
ATOM     16  C   UNL     1       6.093   6.034  17.849  0.00  0.00    +0.000 A 
ATOM     17  C   UNL     1       7.104   6.009  16.864  0.00  0.00    +0.000 A 
BRANCH  12  19
ATOM     18  C   UNL     1       7.305   4.843  13.374  0.00  0.00    +0.000 C 
ATOM     19  O   UNL     1       7.826   5.221  14.638  0.00  0.00    +0.000 OA
ENDBRANCH  12  19
ENDBRANCH  10  15
ENDBRANCH   1  10
BRANCH   5  20
ATOM     20  O   UNL     1       0.016  11.568  19.456  0.00  0.00    +0.000 OA
ATOM     21  H   UNL     1       0.475  12.244  19.976  0.00  0.00    +0.000 HD
ENDBRANCH   5  20
BRANCH   6  22
ATOM     22  O   UNL     1      -0.280  10.577  21.853  0.00  0.00    +0.000 OA
ATOM     23  C   UNL     1      -0.700  10.084  23.107  0.00  0.00    +0.000 C 
ENDBRANCH   6  22
TORSDOF 5
ENDMDL
MODEL 4
REMARK VINA RESULT:      -7.2      1.484      8.187
REMARK  Name = 
REMARK  7 active torsions:
REMARK  status: ('A' for Active; 'I' for Inactive)
REMARK    1  A    between atoms: C_1  and  O_2
REMARK    2  A    between atoms: O_2  and  C_3
REMARK    3  A    between atoms: C_6  and  C_7
REMARK    4  A    between atoms: C_7  and  C_9
REMARK    5  A    between atoms: C_13  and  O_14
REMARK    6  A    between atoms: C_15  and  O_16
REMARK    7  A    between atoms: O_16  and  C_17
REMARK                            x       y       z     vdW  Elec       q    Type
REMARK                         _______ _______ _______ _____ _____    ______ ____
ROOT
ATOM      1  C   UNL     1       2.939   6.745  18.980  0.00  0.00    +0.000 A 
ATOM      2  C   UNL     1       2.661   7.674  17.995  0.00  0.00    +0.000 A 
ATOM      3  C   UNL     1       1.789   8.627  18.527  0.00  0.00    +0.000 A 
ATOM      4  C   UNL     1       1.189   9.775  17.987  0.00  0.00    +0.000 A 
ATOM      5  C   UNL     1       0.377  10.535  18.817  0.00  0.00    +0.000 A 
ATOM      6  C   UNL     1       0.150  10.190  20.159  0.00  0.00    +0.000 A 
ATOM      7  C   UNL     1       0.744   9.029  20.709  0.00  0.00    +0.000 A 
ATOM      8  C   UNL     1       1.560   8.263  19.849  0.00  0.00    +0.000 A 
ATOM      9  O   UNL     1       2.254   7.088  20.129  0.00  0.00    +0.000 OA
ENDROOT
BRANCH   1  10
ATOM     10  C   UNL     1       3.883   5.651  18.782  0.00  0.00    +0.000 C 
ATOM     11  O   UNL     1       3.966   4.807  19.692  0.00  0.00    +0.000 OA
BRANCH  10  15
ATOM     12  C   UNL     1       6.816   5.158  15.659  0.00  0.00    +0.000 A 
ATOM     13  C   UNL     1       6.951   6.125  16.642  0.00  0.00    +0.000 A 
ATOM     14  C   UNL     1       5.974   6.245  17.630  0.00  0.00    +0.000 A 
ATOM     15  C   UNL     1       4.826   5.415  17.657  0.00  0.00    +0.000 A 
ATOM     16  C   UNL     1       4.683   4.468  16.643  0.00  0.00    +0.000 A 
ATOM     17  C   UNL     1       5.682   4.340  15.653  0.00  0.00    +0.000 A 
BRANCH  12  19
ATOM     18  C   UNL     1       7.454   4.972  13.391  0.00  0.00    +0.000 C 
ATOM     19  O   UNL     1       7.833   5.143  14.747  0.00  0.00    +0.000 OA
ENDBRANCH  12  19
ENDBRANCH  10  15
ENDBRANCH   1  10
BRANCH   5  20
ATOM     20  O   UNL     1      -0.219  11.662  18.303  0.00  0.00    +0.000 OA
ATOM     21  H   UNL     1       0.349  12.429  18.467  0.00  0.00    +0.000 HD
ENDBRANCH   5  20
BRANCH   6  22
ATOM     22  O   UNL     1      -0.683  11.067  20.803  0.00  0.00    +0.000 OA
ATOM     23  C   UNL     1      -0.541  11.304  22.187  0.00  0.00    +0.000 C 
ENDBRANCH   6  22
TORSDOF 5
ENDMDL
MODEL 5
REMARK VINA RESULT:      -7.1      1.772      8.290
REMARK  Name = 
REMARK  7 active torsions:
REMARK  status: ('A' for Active; 'I' for Inactive)
REMARK    1  A    between atoms: C_1  and  O_2
REMARK    2  A    between atoms: O_2  and  C_3
REMARK    3  A    between atoms: C_6  and  C_7
REMARK    4  A    between atoms: C_7  and  C_9
REMARK    5  A    between atoms: C_13  and  O_14
REMARK    6  A    between atoms: C_15  and  O_16
REMARK    7  A    between atoms: O_16  and  C_17
REMARK                            x       y       z     vdW  Elec       q    Type
REMARK                         _______ _______ _______ _____ _____    ______ ____
ROOT
ATOM      1  C   UNL     1       3.665   6.260  18.585  0.00  0.00    +0.000 A 
ATOM      2  C   UNL     1       3.352   7.268  17.692  0.00  0.00    +0.000 A 
ATOM      3  C   UNL     1       2.427   8.120  18.303  0.00  0.00    +0.000 A 
ATOM      4  C   UNL     1       1.777   9.286  17.870  0.00  0.00    +0.000 A 
ATOM      5  C   UNL     1       0.918   9.918  18.757  0.00  0.00    +0.000 A 
ATOM      6  C   UNL     1       0.694   9.429  20.055  0.00  0.00    +0.000 A 
ATOM      7  C   UNL     1       1.339   8.250  20.496  0.00  0.00    +0.000 A 
ATOM      8  C   UNL     1       2.202   7.615  19.578  0.00  0.00    +0.000 A 
ATOM      9  O   UNL     1       2.951   6.453  19.751  0.00  0.00    +0.000 OA
ENDROOT
BRANCH   1  10
ATOM     10  C   UNL     1       4.665   5.239  18.295  0.00  0.00    +0.000 C 
ATOM     11  O   UNL     1       5.003   4.499  19.235  0.00  0.00    +0.000 OA
BRANCH  10  15
ATOM     12  C   UNL     1       6.541   4.374  14.509  0.00  0.00    +0.000 A 
ATOM     13  C   UNL     1       5.260   3.939  14.806  0.00  0.00    +0.000 A 
ATOM     14  C   UNL     1       4.697   4.244  16.045  0.00  0.00    +0.000 A 
ATOM     15  C   UNL     1       5.403   4.978  17.030  0.00  0.00    +0.000 A 
ATOM     16  C   UNL     1       6.705   5.382  16.734  0.00  0.00    +0.000 A 
ATOM     17  C   UNL     1       7.265   5.083  15.472  0.00  0.00    +0.000 A 
BRANCH  12  19
ATOM     18  C   UNL     1       6.025   3.382  12.426  0.00  0.00    +0.000 C 
ATOM     19  O   UNL     1       6.981   4.008  13.268  0.00  0.00    +0.000 OA
ENDBRANCH  12  19
ENDBRANCH  10  15
ENDBRANCH   1  10
BRANCH   5  20
ATOM     20  O   UNL     1       0.272  11.060  18.348  0.00  0.00    +0.000 OA
ATOM     21  H   UNL     1       0.382  11.166  17.391  0.00  0.00    +0.000 HD
ENDBRANCH   5  20
BRANCH   6  22
ATOM     22  O   UNL     1      -0.190  10.196  20.768  0.00  0.00    +0.000 OA
ATOM     23  C   UNL     1      -0.202  10.148  22.179  0.00  0.00    +0.000 C 
ENDBRANCH   6  22
TORSDOF 5
ENDMDL
MODEL 6
REMARK VINA RESULT:      -7.1      1.371      8.116
REMARK  Name = 
REMARK  7 active torsions:
REMARK  status: ('A' for Active; 'I' for Inactive)
REMARK    1  A    between atoms: C_1  and  O_2
REMARK    2  A    between atoms: O_2  and  C_3
REMARK    3  A    between atoms: C_6  and  C_7
REMARK    4  A    between atoms: C_7  and  C_9
REMARK    5  A    between atoms: C_13  and  O_14
REMARK    6  A    between atoms: C_15  and  O_16
REMARK    7  A    between atoms: O_16  and  C_17
REMARK                            x       y       z     vdW  Elec       q    Type
REMARK                         _______ _______ _______ _____ _____    ______ ____
ROOT
ATOM      1  C   UNL     1       2.651   6.863  19.367  0.00  0.00    +0.000 A 
ATOM      2  C   UNL     1       2.526   7.758  18.322  0.00  0.00    +0.000 A 
ATOM      3  C   UNL     1       1.684   8.795  18.734  0.00  0.00    +0.000 A 
ATOM      4  C   UNL     1       1.218   9.953  18.094  0.00  0.00    +0.000 A 
ATOM      5  C   UNL     1       0.396  10.808  18.816  0.00  0.00    +0.000 A 
ATOM      6  C   UNL     1       0.033  10.547  20.147  0.00  0.00    +0.000 A 
ATOM      7  C   UNL     1       0.493   9.377  20.797  0.00  0.00    +0.000 A 
ATOM      8  C   UNL     1       1.319   8.515  20.046  0.00  0.00    +0.000 A 
ATOM      9  O   UNL     1       1.900   7.310  20.436  0.00  0.00    +0.000 OA
ENDROOT
BRANCH   1  10
ATOM     10  C   UNL     1       3.526   5.698  19.301  0.00  0.00    +0.000 C 
ATOM     11  O   UNL     1       3.320   4.790  20.125  0.00  0.00    +0.000 OA
BRANCH  10  15
ATOM     12  C   UNL     1       6.720   5.006  16.486  0.00  0.00    +0.000 A 
ATOM     13  C   UNL     1       5.394   5.055  16.089  0.00  0.00    +0.000 A 
ATOM     14  C   UNL     1       4.397   5.282  17.038  0.00  0.00    +0.000 A 
ATOM     15  C   UNL     1       4.693   5.448  18.413  0.00  0.00    +0.000 A 
ATOM     16  C   UNL     1       6.029   5.361  18.808  0.00  0.00    +0.000 A 
ATOM     17  C   UNL     1       7.036   5.147  17.841  0.00  0.00    +0.000 A 
BRANCH  12  19
ATOM     18  C   UNL     1       7.044   4.725  14.162  0.00  0.00    +0.000 C 
ATOM     19  O   UNL     1       7.600   4.774  15.467  0.00  0.00    +0.000 OA
ENDBRANCH  12  19
ENDBRANCH  10  15
ENDBRANCH   1  10
BRANCH   5  20
ATOM     20  O   UNL     1      -0.071  11.946  18.203  0.00  0.00    +0.000 OA
ATOM     21  H   UNL     1      -0.678  11.700  17.489  0.00  0.00    +0.000 HD
ENDBRANCH   5  20
BRANCH   6  22
ATOM     22  O   UNL     1      -0.785  11.511  20.676  0.00  0.00    +0.000 OA
ATOM     23  C   UNL     1      -0.401  12.215  21.838  0.00  0.00    +0.000 C 
ENDBRANCH   6  22
TORSDOF 5
ENDMDL
MODEL 7
REMARK VINA RESULT:      -7.1      1.558      2.382
REMARK  Name = 
REMARK  7 active torsions:
REMARK  status: ('A' for Active; 'I' for Inactive)
REMARK    1  A    between atoms: C_1  and  O_2
REMARK    2  A    between atoms: O_2  and  C_3
REMARK    3  A    between atoms: C_6  and  C_7
REMARK    4  A    between atoms: C_7  and  C_9
REMARK    5  A    between atoms: C_13  and  O_14
REMARK    6  A    between atoms: C_15  and  O_16
REMARK    7  A    between atoms: O_16  and  C_17
REMARK                            x       y       z     vdW  Elec       q    Type
REMARK                         _______ _______ _______ _____ _____    ______ ____
ROOT
ATOM      1  C   UNL     1       2.204   8.086  18.530  0.00  0.00    +0.000 A 
ATOM      2  C   UNL     1       2.347   7.034  19.416  0.00  0.00    +0.000 A 
ATOM      3  C   UNL     1       3.383   6.216  18.957  0.00  0.00    +0.000 A 
ATOM      4  C   UNL     1       3.951   5.032  19.453  0.00  0.00    +0.000 A 
ATOM      5  C   UNL     1       5.012   4.477  18.751  0.00  0.00    +0.000 A 
ATOM      6  C   UNL     1       5.523   5.066  17.583  0.00  0.00    +0.000 A 
ATOM      7  C   UNL     1       4.952   6.255  17.073  0.00  0.00    +0.000 A 
ATOM      8  C   UNL     1       3.868   6.800  17.793  0.00  0.00    +0.000 A 
ATOM      9  O   UNL     1       3.129   7.948  17.514  0.00  0.00    +0.000 OA
ENDROOT
BRANCH   1  10
ATOM     10  C   UNL     1       1.259   9.174  18.752  0.00  0.00    +0.000 C 
ATOM     11  O   UNL     1       0.924   9.841  17.757  0.00  0.00    +0.000 OA
BRANCH  10  15
ATOM     12  C   UNL     1      -0.471  10.856  22.326  0.00  0.00    +0.000 A 
ATOM     13  C   UNL     1       0.033  11.655  21.312  0.00  0.00    +0.000 A 
ATOM     14  C   UNL     1       0.583  11.062  20.176  0.00  0.00    +0.000 A 
ATOM     15  C   UNL     1       0.662   9.656  20.026  0.00  0.00    +0.000 A 
ATOM     16  C   UNL     1       0.183   8.861  21.068  0.00  0.00    +0.000 A 
ATOM     17  C   UNL     1      -0.387   9.465  22.210  0.00  0.00    +0.000 A 
BRANCH  12  19
ATOM     18  C   UNL     1      -2.359  11.873  23.321  0.00  0.00    +0.000 C 
ATOM     19  O   UNL     1      -0.978  11.554  23.386  0.00  0.00    +0.000 OA
ENDBRANCH  12  19
ENDBRANCH  10  15
ENDBRANCH   1  10
BRANCH   5  20
ATOM     20  O   UNL     1       5.578   3.316  19.222  0.00  0.00    +0.000 OA
ATOM     21  H   UNL     1       5.411   2.599  18.592  0.00  0.00    +0.000 HD
ENDBRANCH   5  20
BRANCH   6  22
ATOM     22  O   UNL     1       6.567   4.360  17.043  0.00  0.00    +0.000 OA
ATOM     23  C   UNL     1       7.006   4.628  15.728  0.00  0.00    +0.000 C 
ENDBRANCH   6  22
TORSDOF 5
ENDMDL
MODEL 8
REMARK VINA RESULT:      -7.1      1.729      2.578
REMARK  Name = 
REMARK  7 active torsions:
REMARK  status: ('A' for Active; 'I' for Inactive)
REMARK    1  A    between atoms: C_1  and  O_2
REMARK    2  A    between atoms: O_2  and  C_3
REMARK    3  A    between atoms: C_6  and  C_7
REMARK    4  A    between atoms: C_7  and  C_9
REMARK    5  A    between atoms: C_13  and  O_14
REMARK    6  A    between atoms: C_15  and  O_16
REMARK    7  A    between atoms: O_16  and  C_17
REMARK                            x       y       z     vdW  Elec       q    Type
REMARK                         _______ _______ _______ _____ _____    ______ ____
ROOT
ATOM      1  C   UNL     1       3.960   5.563  18.157  0.00  0.00    +0.000 A 
ATOM      2  C   UNL     1       5.158   6.192  17.875  0.00  0.00    +0.000 A 
ATOM      3  C   UNL     1       5.681   5.630  16.708  0.00  0.00    +0.000 A 
ATOM      4  C   UNL     1       6.852   5.878  15.974  0.00  0.00    +0.000 A 
ATOM      5  C   UNL     1       7.062   5.141  14.817  0.00  0.00    +0.000 A 
ATOM      6  C   UNL     1       6.144   4.176  14.371  0.00  0.00    +0.000 A 
ATOM      7  C   UNL     1       4.966   3.914  15.109  0.00  0.00    +0.000 A 
ATOM      8  C   UNL     1       4.773   4.665  16.288  0.00  0.00    +0.000 A 
ATOM      9  O   UNL     1       3.715   4.607  17.191  0.00  0.00    +0.000 OA
ENDROOT
BRANCH   1  10
ATOM     10  C   UNL     1       3.107   5.964  19.270  0.00  0.00    +0.000 C 
ATOM     11  O   UNL     1       2.960   5.142  20.192  0.00  0.00    +0.000 OA
BRANCH  10  15
ATOM     12  C   UNL     1       0.843   9.628  19.489  0.00  0.00    +0.000 A 
ATOM     13  C   UNL     1       1.472   9.226  18.322  0.00  0.00    +0.000 A 
ATOM     14  C   UNL     1       2.193   8.033  18.303  0.00  0.00    +0.000 A 
ATOM     15  C   UNL     1       2.322   7.214  19.451  0.00  0.00    +0.000 A 
ATOM     16  C   UNL     1       1.713   7.645  20.630  0.00  0.00    +0.000 A 
ATOM     17  C   UNL     1       0.971   8.846  20.642  0.00  0.00    +0.000 A 
BRANCH  12  19
ATOM     18  C   UNL     1      -0.914  10.838  18.471  0.00  0.00    +0.000 C 
ATOM     19  O   UNL     1       0.173  10.814  19.382  0.00  0.00    +0.000 OA
ENDBRANCH  12  19
ENDBRANCH  10  15
ENDBRANCH   1  10
BRANCH   5  20
ATOM     20  O   UNL     1       8.204   5.371  14.088  0.00  0.00    +0.000 OA
ATOM     21  H   UNL     1       8.399   6.320  14.088  0.00  0.00    +0.000 HD
ENDBRANCH   5  20
BRANCH   6  22
ATOM     22  O   UNL     1       6.539   3.560  13.212  0.00  0.00    +0.000 OA
ATOM     23  C   UNL     1       5.601   3.281  12.195  0.00  0.00    +0.000 C 
ENDBRANCH   6  22
TORSDOF 5
ENDMDL
MODEL 9
REMARK VINA RESULT:      -7.1      2.141      2.988
REMARK  Name = 
REMARK  7 active torsions:
REMARK  status: ('A' for Active; 'I' for Inactive)
REMARK    1  A    between atoms: C_1  and  O_2
REMARK    2  A    between atoms: O_2  and  C_3
REMARK    3  A    between atoms: C_6  and  C_7
REMARK    4  A    between atoms: C_7  and  C_9
REMARK    5  A    between atoms: C_13  and  O_14
REMARK    6  A    between atoms: C_15  and  O_16
REMARK    7  A    between atoms: O_16  and  C_17
REMARK                            x       y       z     vdW  Elec       q    Type
REMARK                         _______ _______ _______ _____ _____    ______ ____
ROOT
ATOM      1  C   UNL     1       2.468   7.706  18.225  0.00  0.00    +0.000 A 
ATOM      2  C   UNL     1       3.611   7.531  17.467  0.00  0.00    +0.000 A 
ATOM      3  C   UNL     1       3.876   6.161  17.388  0.00  0.00    +0.000 A 
ATOM      4  C   UNL     1       4.890   5.423  16.757  0.00  0.00    +0.000 A 
ATOM      5  C   UNL     1       4.843   4.040  16.854  0.00  0.00    +0.000 A 
ATOM      6  C   UNL     1       3.821   3.375  17.552  0.00  0.00    +0.000 A 
ATOM      7  C   UNL     1       2.800   4.112  18.198  0.00  0.00    +0.000 A 
ATOM      8  C   UNL     1       2.868   5.518  18.096  0.00  0.00    +0.000 A 
ATOM      9  O   UNL     1       2.004   6.470  18.633  0.00  0.00    +0.000 OA
ENDROOT
BRANCH   1  10
ATOM     10  C   UNL     1       1.864   9.015  18.442  0.00  0.00    +0.000 C 
ATOM     11  O   UNL     1       2.102   9.893  17.594  0.00  0.00    +0.000 OA
BRANCH  10  15
ATOM     12  C   UNL     1      -0.387  10.204  21.923  0.00  0.00    +0.000 A 
ATOM     13  C   UNL     1       0.485   9.128  21.949  0.00  0.00    +0.000 A 
ATOM     14  C   UNL     1       1.190   8.783  20.796  0.00  0.00    +0.000 A 
ATOM     15  C   UNL     1       1.032   9.490  19.579  0.00  0.00    +0.000 A 
ATOM     16  C   UNL     1       0.125  10.550  19.554  0.00  0.00    +0.000 A 
ATOM     17  C   UNL     1      -0.575  10.906  20.728  0.00  0.00    +0.000 A 
BRANCH  12  19
ATOM     18  C   UNL     1      -1.901  11.550  23.141  0.00  0.00    +0.000 C 
ATOM     19  O   UNL     1      -1.020  10.438  23.111  0.00  0.00    +0.000 OA
ENDBRANCH  12  19
ENDBRANCH  10  15
ENDBRANCH   1  10
BRANCH   5  20
ATOM     20  O   UNL     1       5.829   3.303  16.243  0.00  0.00    +0.000 OA
ATOM     21  H   UNL     1       6.570   3.187  16.857  0.00  0.00    +0.000 HD
ENDBRANCH   5  20
BRANCH   6  22
ATOM     22  O   UNL     1       3.960   2.012  17.531  0.00  0.00    +0.000 OA
ATOM     23  C   UNL     1       3.520   1.232  18.622  0.00  0.00    +0.000 C 
ENDBRANCH   6  22
TORSDOF 5
ENDMDL
