MODEL 1
REMARK VINA RESULT:      -7.7      0.000      0.000
REMARK  Name = 
REMARK  4 active torsions:
REMARK  status: ('A' for Active; 'I' for Inactive)
REMARK    1  A    between atoms: C_2  and  C_3
REMARK    2  A    between atoms: C_4  and  N_5
REMARK    3  A    between atoms: C_6  and  C_8
REMARK    4  A    between atoms: C_8  and  C_9
REMARK                            x       y       z     vdW  Elec       q    Type
REMARK                         _______ _______ _______ _____ _____    ______ ____
ROOT
ATOM      1  N   UNL     1       6.163   7.415  16.868  0.00  0.00    +0.000 N 
ATOM      2  C   UNL     1       7.318   7.440  17.637  0.00  0.00    +0.000 C 
ATOM      3  O   UNL     1       7.562   6.644  18.543  0.00  0.00    +0.000 OA
ATOM      4  H   UNL     1       5.812   8.305  16.537  0.00  0.00    +0.000 HD
ENDROOT
BRANCH   1   6
ATOM      5  C   UNL     1       5.117   5.107  16.725  0.00  0.00    +0.000 A 
ATOM      6  C   UNL     1       5.218   6.429  17.108  0.00  0.00    +0.000 A 
ATOM      7  S   UNL     1       3.896   6.937  18.054  0.00  0.00    +0.000 S 
ATOM      8  C   UNL     1       3.270   5.351  18.126  0.00  0.00    +0.000 A 
ATOM      9  C   UNL     1       3.989   4.465  17.343  0.00  0.00    +0.000 A 
ATOM     10  C   UNL     1       3.590   3.022  17.208  0.00  0.00    +0.000 C 
ATOM     11  C   UNL     1       2.151   2.774  17.685  0.00  0.00    +0.000 C 
ATOM     12  C   UNL     1       1.863   3.486  19.012  0.00  0.00    +0.000 C 
ATOM     13  C   UNL     1       2.032   5.010  18.899  0.00  0.00    +0.000 C 
BRANCH   5  15
ATOM     14  N   UNL     1       6.627   3.875  15.020  0.00  0.00    +0.000 NA
ATOM     15  C   UNL     1       5.976   4.476  15.771  0.00  0.00    +0.000 C 
ENDBRANCH   5  15
ENDBRANCH   1   6
BRANCH   2  16
ATOM     16  C   UNL     1       8.259   8.580  17.284  0.00  0.00    +0.000 C 
BRANCH  16  17
ATOM     17  C   UNL     1       8.144   9.747  18.276  0.00  0.00    +0.000 C 
ATOM     18  C   UNL     1       9.260   9.767  19.341  0.00  0.00    +0.000 C 
ATOM     19  C   UNL     1       9.947  11.027  18.994  0.00  0.00    +0.000 A 
ATOM     20  C   UNL     1      11.098  11.567  19.543  0.00  0.00    +0.000 A 
ATOM     21  C   UNL     1      11.538  12.800  19.076  0.00  0.00    +0.000 A 
ATOM     22  C   UNL     1      10.817  13.486  18.083  0.00  0.00    +0.000 A 
ATOM     23  C   UNL     1       9.657  12.925  17.538  0.00  0.00    +0.000 A 
ATOM     24  C   UNL     1       9.252  11.686  17.998  0.00  0.00    +0.000 A 
ATOM     25  O   UNL     1       8.160  11.004  17.532  0.00  0.00    +0.000 OA
ENDBRANCH  16  17
ENDBRANCH   2  16
TORSDOF 4
ENDMDL
MODEL 2
REMARK VINA RESULT:      -7.7      1.231      2.138
REMARK  Name = 
REMARK  4 active torsions:
REMARK  status: ('A' for Active; 'I' for Inactive)
REMARK    1  A    between atoms: C_2  and  C_3
REMARK    2  A    between atoms: C_4  and  N_5
REMARK    3  A    between atoms: C_6  and  C_8
REMARK    4  A    between atoms: C_8  and  C_9
REMARK                            x       y       z     vdW  Elec       q    Type
REMARK                         _______ _______ _______ _____ _____    ______ ____
ROOT
ATOM      1  N   UNL     1       6.210   7.350  17.040  0.00  0.00    +0.000 N 
ATOM      2  C   UNL     1       7.361   7.401  17.814  0.00  0.00    +0.000 C 
ATOM      3  O   UNL     1       7.590   6.650  18.762  0.00  0.00    +0.000 OA
ATOM      4  H   UNL     1       5.872   8.226  16.662  0.00  0.00    +0.000 HD
ENDROOT
BRANCH   1   6
ATOM      5  C   UNL     1       3.900   6.456  17.591  0.00  0.00    +0.000 A 
ATOM      6  C   UNL     1       5.253   6.388  17.324  0.00  0.00    +0.000 A 
ATOM      7  S   UNL     1       5.850   4.795  17.376  0.00  0.00    +0.000 S 
ATOM      8  C   UNL     1       4.278   4.156  17.563  0.00  0.00    +0.000 A 
ATOM      9  C   UNL     1       3.321   5.145  17.705  0.00  0.00    +0.000 A 
ATOM     10  C   UNL     1       1.872   4.819  17.937  0.00  0.00    +0.000 C 
ATOM     11  C   UNL     1       1.671   3.361  18.377  0.00  0.00    +0.000 C 
ATOM     12  C   UNL     1       2.507   2.393  17.529  0.00  0.00    +0.000 C 
ATOM     13  C   UNL     1       4.013   2.683  17.638  0.00  0.00    +0.000 C 
BRANCH   5  15
ATOM     14  N   UNL     1       2.511   8.610  17.957  0.00  0.00    +0.000 NA
ATOM     15  C   UNL     1       3.180   7.672  17.808  0.00  0.00    +0.000 C 
ENDBRANCH   5  15
ENDBRANCH   1   6
BRANCH   2  16
ATOM     16  C   UNL     1       8.317   8.512  17.411  0.00  0.00    +0.000 C 
BRANCH  16  17
ATOM     17  C   UNL     1       8.191   9.738  18.327  0.00  0.00    +0.000 C 
ATOM     18  C   UNL     1       9.276   9.808  19.421  0.00  0.00    +0.000 C 
ATOM     19  C   UNL     1       9.992  11.036  19.019  0.00  0.00    +0.000 A 
ATOM     20  C   UNL     1      11.135  11.593  19.568  0.00  0.00    +0.000 A 
ATOM     21  C   UNL     1      11.607  12.789  19.041  0.00  0.00    +0.000 A 
ATOM     22  C   UNL     1      10.925  13.423  17.987  0.00  0.00    +0.000 A 
ATOM     23  C   UNL     1       9.773  12.845  17.443  0.00  0.00    +0.000 A 
ATOM     24  C   UNL     1       9.336  11.642  17.965  0.00  0.00    +0.000 A 
ATOM     25  O   UNL     1       8.248  10.948  17.509  0.00  0.00    +0.000 OA
ENDBRANCH  16  17
ENDBRANCH   2  16
TORSDOF 4
ENDMDL
MODEL 3
REMARK VINA RESULT:      -7.1      5.143      7.462
REMARK  Name = 
REMARK  4 active torsions:
REMARK  status: ('A' for Active; 'I' for Inactive)
REMARK    1  A    between atoms: C_2  and  C_3
REMARK    2  A    between atoms: C_4  and  N_5
REMARK    3  A    between atoms: C_6  and  C_8
REMARK    4  A    between atoms: C_8  and  C_9
REMARK                            x       y       z     vdW  Elec       q    Type
REMARK                         _______ _______ _______ _____ _____    ______ ____
ROOT
ATOM      1  N   UNL     1       3.138   6.118  20.085  0.00  0.00    +0.000 N 
ATOM      2  C   UNL     1       2.386   7.262  19.853  0.00  0.00    +0.000 C 
ATOM      3  O   UNL     1       2.335   7.848  18.772  0.00  0.00    +0.000 OA
ATOM      4  H   UNL     1       3.520   6.000  21.015  0.00  0.00    +0.000 HD
ENDROOT
BRANCH   1   6
ATOM      5  C   UNL     1       3.514   4.902  17.890  0.00  0.00    +0.000 A 
ATOM      6  C   UNL     1       3.871   5.574  19.042  0.00  0.00    +0.000 A 
ATOM      7  S   UNL     1       5.557   5.744  19.203  0.00  0.00    +0.000 S 
ATOM      8  C   UNL     1       5.824   5.096  17.647  0.00  0.00    +0.000 A 
ATOM      9  C   UNL     1       4.657   4.644  17.057  0.00  0.00    +0.000 A 
ATOM     10  C   UNL     1       4.654   3.985  15.705  0.00  0.00    +0.000 C 
ATOM     11  C   UNL     1       6.060   3.536  15.280  0.00  0.00    +0.000 C 
ATOM     12  C   UNL     1       7.109   4.621  15.556  0.00  0.00    +0.000 C 
ATOM     13  C   UNL     1       7.194   4.975  17.050  0.00  0.00    +0.000 C 
BRANCH   5  15
ATOM     14  N   UNL     1       1.149   3.982  17.378  0.00  0.00    +0.000 NA
ATOM     15  C   UNL     1       2.190   4.447  17.598  0.00  0.00    +0.000 C 
ENDBRANCH   5  15
ENDBRANCH   1   6
BRANCH   2  16
ATOM     16  C   UNL     1       1.649   7.765  21.083  0.00  0.00    +0.000 C 
BRANCH  16  17
ATOM     17  C   UNL     1       0.386   8.556  20.711  0.00  0.00    +0.000 C 
ATOM     18  C   UNL     1      -0.609   8.719  21.879  0.00  0.00    +0.000 C 
ATOM     19  C   UNL     1      -0.575  10.184  22.066  0.00  0.00    +0.000 A 
ATOM     20  C   UNL     1      -1.205  10.950  23.032  0.00  0.00    +0.000 A 
ATOM     21  C   UNL     1      -1.056  12.331  22.982  0.00  0.00    +0.000 A 
ATOM     22  C   UNL     1      -0.299  12.931  21.960  0.00  0.00    +0.000 A 
ATOM     23  C   UNL     1       0.331  12.141  20.993  0.00  0.00    +0.000 A 
ATOM     24  C   UNL     1       0.193  10.768  21.077  0.00  0.00    +0.000 A 
ATOM     25  O   UNL     1       0.780   9.875  20.223  0.00  0.00    +0.000 OA
ENDBRANCH  16  17
ENDBRANCH   2  16
TORSDOF 4
ENDMDL
MODEL 4
REMARK VINA RESULT:      -7.1      4.026      6.633
REMARK  Name = 
REMARK  4 active torsions:
REMARK  status: ('A' for Active; 'I' for Inactive)
REMARK    1  A    between atoms: C_2  and  C_3
REMARK    2  A    between atoms: C_4  and  N_5
REMARK    3  A    between atoms: C_6  and  C_8
REMARK    4  A    between atoms: C_8  and  C_9
REMARK                            x       y       z     vdW  Elec       q    Type
REMARK                         _______ _______ _______ _____ _____    ______ ____
ROOT
ATOM      1  N   UNL     1       2.933   6.198  20.110  0.00  0.00    +0.000 N 
ATOM      2  C   UNL     1       2.533   5.078  19.394  0.00  0.00    +0.000 C 
ATOM      3  O   UNL     1       1.569   5.054  18.629  0.00  0.00    +0.000 OA
ATOM      4  H   UNL     1       3.351   6.038  21.018  0.00  0.00    +0.000 HD
ENDROOT
BRANCH   1   6
ATOM      5  C   UNL     1       2.055   8.244  18.892  0.00  0.00    +0.000 A 
ATOM      6  C   UNL     1       2.224   7.380  19.955  0.00  0.00    +0.000 A 
ATOM      7  S   UNL     1       1.404   7.897  21.354  0.00  0.00    +0.000 S 
ATOM      8  C   UNL     1       0.656   9.176  20.507  0.00  0.00    +0.000 A 
ATOM      9  C   UNL     1       1.113   9.285  19.206  0.00  0.00    +0.000 A 
ATOM     10  C   UNL     1       0.635  10.372  18.285  0.00  0.00    +0.000 C 
ATOM     11  C   UNL     1      -0.061  11.510  19.047  0.00  0.00    +0.000 C 
ATOM     12  C   UNL     1      -1.036  10.971  20.103  0.00  0.00    +0.000 C 
ATOM     13  C   UNL     1      -0.326  10.105  21.156  0.00  0.00    +0.000 C 
BRANCH   5  15
ATOM     14  N   UNL     1       3.292   8.054  16.626  0.00  0.00    +0.000 NA
ATOM     15  C   UNL     1       2.783   8.165  17.664  0.00  0.00    +0.000 C 
ENDBRANCH   5  15
ENDBRANCH   1   6
BRANCH   2  16
ATOM     16  C   UNL     1       3.380   3.846  19.670  0.00  0.00    +0.000 C 
BRANCH  16  17
ATOM     17  C   UNL     1       4.563   3.733  18.697  0.00  0.00    +0.000 C 
ATOM     18  C   UNL     1       4.485   4.716  17.511  0.00  0.00    +0.000 C 
ATOM     19  C   UNL     1       5.668   5.559  17.775  0.00  0.00    +0.000 A 
ATOM     20  C   UNL     1       6.099   6.686  17.097  0.00  0.00    +0.000 A 
ATOM     21  C   UNL     1       7.279   7.296  17.509  0.00  0.00    +0.000 A 
ATOM     22  C   UNL     1       8.022   6.763  18.577  0.00  0.00    +0.000 A 
ATOM     23  C   UNL     1       7.571   5.625  19.252  0.00  0.00    +0.000 A 
ATOM     24  C   UNL     1       6.382   5.050  18.843  0.00  0.00    +0.000 A 
ATOM     25  O   UNL     1       5.805   3.957  19.432  0.00  0.00    +0.000 OA
ENDBRANCH  16  17
ENDBRANCH   2  16
TORSDOF 4
ENDMDL
MODEL 5
REMARK VINA RESULT:      -7.1      5.108      7.665
REMARK  Name = 
REMARK  4 active torsions:
REMARK  status: ('A' for Active; 'I' for Inactive)
REMARK    1  A    between atoms: C_2  and  C_3
REMARK    2  A    between atoms: C_4  and  N_5
REMARK    3  A    between atoms: C_6  and  C_8
REMARK    4  A    between atoms: C_8  and  C_9
REMARK                            x       y       z     vdW  Elec       q    Type
REMARK                         _______ _______ _______ _____ _____    ______ ____
ROOT
ATOM      1  N   UNL     1       2.944   6.007  20.057  0.00  0.00    +0.000 N 
ATOM      2  C   UNL     1       2.160   7.123  19.798  0.00  0.00    +0.000 C 
ATOM      3  O   UNL     1       2.137   7.717  18.720  0.00  0.00    +0.000 OA
ATOM      4  H   UNL     1       3.286   5.896  21.003  0.00  0.00    +0.000 HD
ENDROOT
BRANCH   1   6
ATOM      5  C   UNL     1       3.475   4.822  17.876  0.00  0.00    +0.000 A 
ATOM      6  C   UNL     1       3.748   5.504  19.045  0.00  0.00    +0.000 A 
ATOM      7  S   UNL     1       5.415   5.751  19.282  0.00  0.00    +0.000 S 
ATOM      8  C   UNL     1       5.782   5.124  17.738  0.00  0.00    +0.000 A 
ATOM      9  C   UNL     1       4.665   4.621  17.095  0.00  0.00    +0.000 A 
ATOM     10  C   UNL     1       4.753   3.970  15.742  0.00  0.00    +0.000 C 
ATOM     11  C   UNL     1       6.196   3.590  15.379  0.00  0.00    +0.000 C 
ATOM     12  C   UNL     1       7.180   4.720  15.706  0.00  0.00    +0.000 C 
ATOM     13  C   UNL     1       7.181   5.070  17.203  0.00  0.00    +0.000 C 
BRANCH   5  15
ATOM     14  N   UNL     1       1.115   3.903  17.336  0.00  0.00    +0.000 NA
ATOM     15  C   UNL     1       2.188   4.308  17.524  0.00  0.00    +0.000 C 
ENDBRANCH   5  15
ENDBRANCH   1   6
BRANCH   2  16
ATOM     16  C   UNL     1       1.344   7.583  20.994  0.00  0.00    +0.000 C 
BRANCH  16  17
ATOM     17  C   UNL     1       1.518   9.085  21.264  0.00  0.00    +0.000 C 
ATOM     18  C   UNL     1       0.918   9.986  20.165  0.00  0.00    +0.000 C 
ATOM     19  C   UNL     1      -0.149  10.670  20.924  0.00  0.00    +0.000 A 
ATOM     20  C   UNL     1      -1.107  11.558  20.464  0.00  0.00    +0.000 A 
ATOM     21  C   UNL     1      -1.991  12.111  21.383  0.00  0.00    +0.000 A 
ATOM     22  C   UNL     1      -1.897  11.787  22.748  0.00  0.00    +0.000 A 
ATOM     23  C   UNL     1      -0.924  10.887  23.194  0.00  0.00    +0.000 A 
ATOM     24  C   UNL     1      -0.072  10.329  22.260  0.00  0.00    +0.000 A 
ATOM     25  O   UNL     1       0.902   9.410  22.548  0.00  0.00    +0.000 OA
ENDBRANCH  16  17
ENDBRANCH   2  16
TORSDOF 4
ENDMDL
MODEL 6
REMARK VINA RESULT:      -7.0      1.661      2.247
REMARK  Name = 
REMARK  4 active torsions:
REMARK  status: ('A' for Active; 'I' for Inactive)
REMARK    1  A    between atoms: C_2  and  C_3
REMARK    2  A    between atoms: C_4  and  N_5
REMARK    3  A    between atoms: C_6  and  C_8
REMARK    4  A    between atoms: C_8  and  C_9
REMARK                            x       y       z     vdW  Elec       q    Type
REMARK                         _______ _______ _______ _____ _____    ______ ____
ROOT
ATOM      1  N   UNL     1       6.320   6.734  18.256  0.00  0.00    +0.000 N 
ATOM      2  C   UNL     1       6.935   6.984  17.037  0.00  0.00    +0.000 C 
ATOM      3  O   UNL     1       6.595   6.467  15.973  0.00  0.00    +0.000 OA
ATOM      4  H   UNL     1       6.905   6.767  19.081  0.00  0.00    +0.000 HD
ENDROOT
BRANCH   1   6
ATOM      5  C   UNL     1       3.890   6.026  18.071  0.00  0.00    +0.000 A 
ATOM      6  C   UNL     1       5.242   5.863  18.297  0.00  0.00    +0.000 A 
ATOM      7  S   UNL     1       5.643   4.266  18.729  0.00  0.00    +0.000 S 
ATOM      8  C   UNL     1       4.051   3.729  18.432  0.00  0.00    +0.000 A 
ATOM      9  C   UNL     1       3.193   4.770  18.124  0.00  0.00    +0.000 A 
ATOM     10  C   UNL     1       1.727   4.544  17.875  0.00  0.00    +0.000 C 
ATOM     11  C   UNL     1       1.262   3.169  18.379  0.00  0.00    +0.000 C 
ATOM     12  C   UNL     1       2.246   2.059  17.986  0.00  0.00    +0.000 C 
ATOM     13  C   UNL     1       3.646   2.293  18.575  0.00  0.00    +0.000 C 
BRANCH   5  15
ATOM     14  N   UNL     1       2.822   8.359  17.721  0.00  0.00    +0.000 NA
ATOM     15  C   UNL     1       3.249   7.292  17.889  0.00  0.00    +0.000 C 
ENDBRANCH   5  15
ENDBRANCH   1   6
BRANCH   2  16
ATOM     16  C   UNL     1       8.114   7.938  17.135  0.00  0.00    +0.000 C 
BRANCH  16  17
ATOM     17  C   UNL     1       7.880   9.033  18.186  0.00  0.00    +0.000 C 
ATOM     18  C   UNL     1       9.058   9.214  19.165  0.00  0.00    +0.000 C 
ATOM     19  C   UNL     1       9.487  10.586  18.827  0.00  0.00    +0.000 A 
ATOM     20  C   UNL     1      10.568  11.301  19.313  0.00  0.00    +0.000 A 
ATOM     21  C   UNL     1      10.750  12.607  18.873  0.00  0.00    +0.000 A 
ATOM     22  C   UNL     1       9.843  13.188  17.970  0.00  0.00    +0.000 A 
ATOM     23  C   UNL     1       8.757  12.450  17.487  0.00  0.00    +0.000 A 
ATOM     24  C   UNL     1       8.610  11.145  17.917  0.00  0.00    +0.000 A 
ATOM     25  O   UNL     1       7.618  10.298  17.503  0.00  0.00    +0.000 OA
ENDBRANCH  16  17
ENDBRANCH   2  16
TORSDOF 4
ENDMDL
MODEL 7
REMARK VINA RESULT:      -6.9      4.816      7.718
REMARK  Name = 
REMARK  4 active torsions:
REMARK  status: ('A' for Active; 'I' for Inactive)
REMARK    1  A    between atoms: C_2  and  C_3
REMARK    2  A    between atoms: C_4  and  N_5
REMARK    3  A    between atoms: C_6  and  C_8
REMARK    4  A    between atoms: C_8  and  C_9
REMARK                            x       y       z     vdW  Elec       q    Type
REMARK                         _______ _______ _______ _____ _____    ______ ____
ROOT
ATOM      1  N   UNL     1       2.221   7.288  20.815  0.00  0.00    +0.000 N 
ATOM      2  C   UNL     1       1.573   6.069  20.668  0.00  0.00    +0.000 C 
ATOM      3  O   UNL     1       0.357   5.947  20.516  0.00  0.00    +0.000 OA
ATOM      4  H   UNL     1       3.046   7.301  21.401  0.00  0.00    +0.000 HD
ENDROOT
BRANCH   1   6
ATOM      5  C   UNL     1       1.067   9.278  19.744  0.00  0.00    +0.000 A 
ATOM      6  C   UNL     1       1.473   8.455  20.774  0.00  0.00    +0.000 A 
ATOM      7  S   UNL     1       0.954   9.011  22.297  0.00  0.00    +0.000 S 
ATOM      8  C   UNL     1       0.020  10.249  21.585  0.00  0.00    +0.000 A 
ATOM      9  C   UNL     1       0.192  10.317  20.214  0.00  0.00    +0.000 A 
ATOM     10  C   UNL     1      -0.491  11.365  19.379  0.00  0.00    +0.000 C 
ATOM     11  C   UNL     1      -1.033  12.520  20.234  0.00  0.00    +0.000 C 
ATOM     12  C   UNL     1      -1.754  12.007  21.487  0.00  0.00    +0.000 C 
ATOM     13  C   UNL     1      -0.822  11.189  22.396  0.00  0.00    +0.000 C 
BRANCH   5  15
ATOM     14  N   UNL     1       1.983   9.109  17.327  0.00  0.00    +0.000 NA
ATOM     15  C   UNL     1       1.523   9.164  18.393  0.00  0.00    +0.000 C 
ENDBRANCH   5  15
ENDBRANCH   1   6
BRANCH   2  16
ATOM     16  C   UNL     1       2.504   4.871  20.752  0.00  0.00    +0.000 C 
BRANCH  16  17
ATOM     17  C   UNL     1       3.060   4.479  19.375  0.00  0.00    +0.000 C 
ATOM     18  C   UNL     1       2.894   5.577  18.304  0.00  0.00    +0.000 C 
ATOM     19  C   UNL     1       4.306   5.901  18.023  0.00  0.00    +0.000 A 
ATOM     20  C   UNL     1       4.822   6.883  17.194  0.00  0.00    +0.000 A 
ATOM     21  C   UNL     1       6.202   6.973  17.054  0.00  0.00    +0.000 A 
ATOM     22  C   UNL     1       7.048   6.072  17.726  0.00  0.00    +0.000 A 
ATOM     23  C   UNL     1       6.510   5.088  18.560  0.00  0.00    +0.000 A 
ATOM     24  C   UNL     1       5.136   5.033  18.705  0.00  0.00    +0.000 A 
ATOM     25  O   UNL     1       4.475   4.146  19.513  0.00  0.00    +0.000 OA
ENDBRANCH  16  17
ENDBRANCH   2  16
TORSDOF 4
ENDMDL
MODEL 8
REMARK VINA RESULT:      -6.9      6.759     10.061
REMARK  Name = 
REMARK  4 active torsions:
REMARK  status: ('A' for Active; 'I' for Inactive)
REMARK    1  A    between atoms: C_2  and  C_3
REMARK    2  A    between atoms: C_4  and  N_5
REMARK    3  A    between atoms: C_6  and  C_8
REMARK    4  A    between atoms: C_8  and  C_9
REMARK                            x       y       z     vdW  Elec       q    Type
REMARK                         _______ _______ _______ _____ _____    ______ ____
ROOT
ATOM      1  N   UNL     1      -0.308   9.907  19.384  0.00  0.00    +0.000 N 
ATOM      2  C   UNL     1       0.936  10.110  18.802  0.00  0.00    +0.000 C 
ATOM      3  O   UNL     1       1.610  11.130  18.949  0.00  0.00    +0.000 OA
ATOM      4  H   UNL     1      -0.973   9.348  18.864  0.00  0.00    +0.000 HD
ENDROOT
BRANCH   1   6
ATOM      5  C   UNL     1      -0.696  11.183  21.544  0.00  0.00    +0.000 A 
ATOM      6  C   UNL     1      -0.836  10.896  20.201  0.00  0.00    +0.000 A 
ATOM      7  S   UNL     1      -1.886  11.976  19.408  0.00  0.00    +0.000 S 
ATOM      8  C   UNL     1      -2.016  12.954  20.801  0.00  0.00    +0.000 A 
ATOM      9  C   UNL     1      -1.367  12.405  21.892  0.00  0.00    +0.000 A 
ATOM     10  C   UNL     1      -1.389  13.065  23.243  0.00  0.00    +0.000 C 
ATOM     11  C   UNL     1      -2.491  14.130  23.347  0.00  0.00    +0.000 C 
ATOM     12  C   UNL     1      -2.533  15.025  22.101  0.00  0.00    +0.000 C 
ATOM     13  C   UNL     1      -2.817  14.221  20.822  0.00  0.00    +0.000 C 
BRANCH   5  15
ATOM     14  N   UNL     1       0.408   9.641  23.307  0.00  0.00    +0.000 NA
ATOM     15  C   UNL     1      -0.038  10.331  22.486  0.00  0.00    +0.000 C 
ENDBRANCH   5  15
ENDBRANCH   1   6
BRANCH   2  16
ATOM     16  C   UNL     1       1.388   8.960  17.917  0.00  0.00    +0.000 C 
BRANCH  16  17
ATOM     17  C   UNL     1       2.446   8.086  18.607  0.00  0.00    +0.000 C 
ATOM     18  C   UNL     1       2.029   7.604  20.013  0.00  0.00    +0.000 C 
ATOM     19  C   UNL     1       1.957   6.146  19.792  0.00  0.00    +0.000 A 
ATOM     20  C   UNL     1       1.551   5.155  20.670  0.00  0.00    +0.000 A 
ATOM     21  C   UNL     1       1.608   3.833  20.247  0.00  0.00    +0.000 A 
ATOM     22  C   UNL     1       2.086   3.514  18.963  0.00  0.00    +0.000 A 
ATOM     23  C   UNL     1       2.491   4.527  18.089  0.00  0.00    +0.000 A 
ATOM     24  C   UNL     1       2.401   5.838  18.521  0.00  0.00    +0.000 A 
ATOM     25  O   UNL     1       2.728   6.929  17.762  0.00  0.00    +0.000 OA
ENDBRANCH  16  17
ENDBRANCH   2  16
TORSDOF 4
ENDMDL
MODEL 9
REMARK VINA RESULT:      -6.9      5.983      9.354
REMARK  Name = 
REMARK  4 active torsions:
REMARK  status: ('A' for Active; 'I' for Inactive)
REMARK    1  A    between atoms: C_2  and  C_3
REMARK    2  A    between atoms: C_4  and  N_5
REMARK    3  A    between atoms: C_6  and  C_8
REMARK    4  A    between atoms: C_8  and  C_9
REMARK                            x       y       z     vdW  Elec       q    Type
REMARK                         _______ _______ _______ _____ _____    ______ ____
ROOT
ATOM      1  N   UNL     1       1.185   8.802  19.399  0.00  0.00    +0.000 N 
ATOM      2  C   UNL     1       2.033   8.895  18.304  0.00  0.00    +0.000 C 
ATOM      3  O   UNL     1       2.143   9.897  17.598  0.00  0.00    +0.000 OA
ATOM      4  H   UNL     1       0.786   7.893  19.596  0.00  0.00    +0.000 HD
ENDROOT
BRANCH   1   6
ATOM      5  C   UNL     1      -0.714  10.474  19.196  0.00  0.00    +0.000 A 
ATOM      6  C   UNL     1       0.416   9.903  19.746  0.00  0.00    +0.000 A 
ATOM      7  S   UNL     1       0.971  10.744  21.118  0.00  0.00    +0.000 S 
ATOM      8  C   UNL     1      -0.397  11.766  21.110  0.00  0.00    +0.000 A 
ATOM      9  C   UNL     1      -1.208  11.552  20.010  0.00  0.00    +0.000 A 
ATOM     10  C   UNL     1      -2.444  12.372  19.763  0.00  0.00    +0.000 C 
ATOM     11  C   UNL     1      -2.460  13.657  20.604  0.00  0.00    +0.000 C 
ATOM     12  C   UNL     1      -2.045  13.389  22.057  0.00  0.00    +0.000 C 
ATOM     13  C   UNL     1      -0.620  12.818  22.154  0.00  0.00    +0.000 C 
BRANCH   5  15
ATOM     14  N   UNL     1      -1.821   9.835  16.945  0.00  0.00    +0.000 NA
ATOM     15  C   UNL     1      -1.276  10.098  17.936  0.00  0.00    +0.000 C 
ENDBRANCH   5  15
ENDBRANCH   1   6
BRANCH   2  16
ATOM     16  C   UNL     1       2.802   7.615  18.021  0.00  0.00    +0.000 C 
BRANCH  16  17
ATOM     17  C   UNL     1       2.233   6.419  18.799  0.00  0.00    +0.000 C 
ATOM     18  C   UNL     1       1.590   5.344  17.899  0.00  0.00    +0.000 C 
ATOM     19  C   UNL     1       2.492   4.202  18.149  0.00  0.00    +0.000 A 
ATOM     20  C   UNL     1       2.489   2.949  17.561  0.00  0.00    +0.000 A 
ATOM     21  C   UNL     1       3.421   2.013  17.993  0.00  0.00    +0.000 A 
ATOM     22  C   UNL     1       4.331   2.331  19.016  0.00  0.00    +0.000 A 
ATOM     23  C   UNL     1       4.321   3.603  19.599  0.00  0.00    +0.000 A 
ATOM     24  C   UNL     1       3.403   4.527  19.136  0.00  0.00    +0.000 A 
ATOM     25  O   UNL     1       3.303   5.815  19.588  0.00  0.00    +0.000 OA
ENDBRANCH  16  17
ENDBRANCH   2  16
TORSDOF 4
ENDMDL
