MODEL 1
REMARK VINA RESULT:      -8.3      0.000      0.000
REMARK  Name = 
REMARK  7 active torsions:
REMARK  status: ('A' for Active; 'I' for Inactive)
REMARK    1  A    between atoms: C_1  and  C_2
REMARK    2  A    between atoms: C_7  and  O_8
REMARK    3  A    between atoms: O_8  and  C_9
REMARK    4  A    between atoms: C_9  and  C_10
REMARK    5  A    between atoms: C_10  and  C_11
REMARK    6  A    between atoms: N_16  and  S_17
REMARK    7  A    between atoms: S_17  and  C_20
REMARK                            x       y       z     vdW  Elec       q    Type
REMARK                         _______ _______ _______ _____ _____    ______ ____
ROOT
ATOM      1  C   UNL     1       7.329   6.484  18.269  0.00  0.00    +0.000 C 
ATOM      2  O   UNL     1       7.980   6.201  19.279  0.00  0.00    +0.000 OA
ATOM      3  N   UNL     1       6.199   5.773  17.910  0.00  0.00    +0.000 N 
ATOM      4  C   UNL     1       5.359   6.092  16.749  0.00  0.00    +0.000 C 
ATOM      5  C   UNL     1       4.552   4.891  16.231  0.00  0.00    +0.000 C 
ATOM      6  N   UNL     1       3.840   4.159  17.317  0.00  0.00    +0.000 NA
ATOM      7  C   UNL     1       4.823   3.744  18.373  0.00  0.00    +0.000 C 
ATOM      8  C   UNL     1       5.565   4.951  18.955  0.00  0.00    +0.000 C 
ENDROOT
BRANCH   6   9
ATOM      9  S   UNL     1       2.411   4.863  17.926  0.00  0.00    +0.000 S 
ATOM     10  O   UNL     1       2.681   6.249  18.244  0.00  0.00    +0.000 OA
ATOM     11  O   UNL     1       1.339   4.522  17.014  0.00  0.00    +0.000 OA
BRANCH   9  12
ATOM     12  C   UNL     1       2.099   4.010  19.437  0.00  0.00    +0.000 A 
ATOM     13  C   UNL     1       2.344   4.641  20.664  0.00  0.00    +0.000 A 
ATOM     14  C   UNL     1       2.216   3.918  21.851  0.00  0.00    +0.000 A 
ATOM     15  C   UNL     1       1.850   2.571  21.813  0.00  0.00    +0.000 A 
ATOM     16  C   UNL     1       1.597   1.951  20.587  0.00  0.00    +0.000 A 
ATOM     17  C   UNL     1       1.727   2.674  19.402  0.00  0.00    +0.000 A 
ATOM     18  F   UNL     1       1.475   2.048  18.244  0.00  0.00    +0.000 F 
ENDBRANCH   9  12
ENDBRANCH   6   9
BRANCH   1  19
ATOM     19  C   UNL     1       7.758   7.661  17.415  0.00  0.00    +0.000 C 
BRANCH  19  20
ATOM     20  C   UNL     1       8.455   8.652  18.332  0.00  0.00    +0.000 C 
BRANCH  20  21
ATOM     21  O   UNL     1       8.119   9.972  17.925  0.00  0.00    +0.000 OA
BRANCH  21  28
ATOM     22  C   UNL     1       7.851  12.962  17.093  0.00  0.00    +0.000 C 
ATOM     23  C   UNL     1       8.815  12.364  18.076  0.00  0.00    +0.000 A 
ATOM     24  C   UNL     1       9.666  13.261  18.750  0.00  0.00    +0.000 A 
ATOM     25  C   UNL     1      10.572  12.825  19.714  0.00  0.00    +0.000 A 
ATOM     26  C   UNL     1      10.655  11.474  20.019  0.00  0.00    +0.000 A 
ATOM     27  C   UNL     1       9.820  10.569  19.365  0.00  0.00    +0.000 A 
ATOM     28  C   UNL     1       8.900  10.995  18.394  0.00  0.00    +0.000 A 
ENDBRANCH  21  28
ENDBRANCH  20  21
ENDBRANCH  19  20
ENDBRANCH   1  19
TORSDOF 6
ENDMDL
MODEL 2
REMARK VINA RESULT:      -8.0      0.996      1.372
REMARK  Name = 
REMARK  7 active torsions:
REMARK  status: ('A' for Active; 'I' for Inactive)
REMARK    1  A    between atoms: C_1  and  C_2
REMARK    2  A    between atoms: C_7  and  O_8
REMARK    3  A    between atoms: O_8  and  C_9
REMARK    4  A    between atoms: C_9  and  C_10
REMARK    5  A    between atoms: C_10  and  C_11
REMARK    6  A    between atoms: N_16  and  S_17
REMARK    7  A    between atoms: S_17  and  C_20
REMARK                            x       y       z     vdW  Elec       q    Type
REMARK                         _______ _______ _______ _____ _____    ______ ____
ROOT
ATOM      1  C   UNL     1       7.682   6.868  18.252  0.00  0.00    +0.000 C 
ATOM      2  O   UNL     1       8.408   6.512  19.184  0.00  0.00    +0.000 OA
ATOM      3  N   UNL     1       6.486   6.231  17.978  0.00  0.00    +0.000 N 
ATOM      4  C   UNL     1       5.559   6.638  16.915  0.00  0.00    +0.000 C 
ATOM      5  C   UNL     1       4.642   5.502  16.437  0.00  0.00    +0.000 C 
ATOM      6  N   UNL     1       3.995   4.767  17.560  0.00  0.00    +0.000 NA
ATOM      7  C   UNL     1       5.049   4.260  18.502  0.00  0.00    +0.000 C 
ATOM      8  C   UNL     1       5.908   5.404  19.051  0.00  0.00    +0.000 C 
ENDROOT
BRANCH   6   9
ATOM      9  S   UNL     1       2.671   5.520  18.327  0.00  0.00    +0.000 S 
ATOM     10  O   UNL     1       3.143   6.719  18.986  0.00  0.00    +0.000 OA
ATOM     11  O   UNL     1       1.598   5.597  17.358  0.00  0.00    +0.000 OA
BRANCH   9  12
ATOM     12  C   UNL     1       2.165   4.379  19.572  0.00  0.00    +0.000 A 
ATOM     13  C   UNL     1       2.430   4.648  20.922  0.00  0.00    +0.000 A 
ATOM     14  C   UNL     1       2.141   3.685  21.889  0.00  0.00    +0.000 A 
ATOM     15  C   UNL     1       1.595   2.456  21.510  0.00  0.00    +0.000 A 
ATOM     16  C   UNL     1       1.324   2.198  20.164  0.00  0.00    +0.000 A 
ATOM     17  C   UNL     1       1.615   3.161  19.199  0.00  0.00    +0.000 A 
ATOM     18  F   UNL     1       1.340   2.881  17.917  0.00  0.00    +0.000 F 
ENDBRANCH   9  12
ENDBRANCH   6   9
BRANCH   1  19
ATOM     19  C   UNL     1       8.093   8.053  17.401  0.00  0.00    +0.000 C 
BRANCH  19  20
ATOM     20  C   UNL     1       7.916   9.300  18.251  0.00  0.00    +0.000 C 
BRANCH  20  21
ATOM     21  O   UNL     1       9.104   9.517  19.004  0.00  0.00    +0.000 OA
BRANCH  21  28
ATOM     22  C   UNL     1       9.036  11.396  21.488  0.00  0.00    +0.000 C 
ATOM     23  C   UNL     1       9.622  11.680  20.135  0.00  0.00    +0.000 A 
ATOM     24  C   UNL     1      10.271  12.920  19.978  0.00  0.00    +0.000 A 
ATOM     25  C   UNL     1      10.887  13.276  18.780  0.00  0.00    +0.000 A 
ATOM     26  C   UNL     1      10.859  12.400  17.705  0.00  0.00    +0.000 A 
ATOM     27  C   UNL     1      10.223  11.166  17.840  0.00  0.00    +0.000 A 
ATOM     28  C   UNL     1       9.601  10.793  19.042  0.00  0.00    +0.000 A 
ENDBRANCH  21  28
ENDBRANCH  20  21
ENDBRANCH  19  20
ENDBRANCH   1  19
TORSDOF 6
ENDMDL
MODEL 3
REMARK VINA RESULT:      -8.0      1.283      1.834
REMARK  Name = 
REMARK  7 active torsions:
REMARK  status: ('A' for Active; 'I' for Inactive)
REMARK    1  A    between atoms: C_1  and  C_2
REMARK    2  A    between atoms: C_7  and  O_8
REMARK    3  A    between atoms: O_8  and  C_9
REMARK    4  A    between atoms: C_9  and  C_10
REMARK    5  A    between atoms: C_10  and  C_11
REMARK    6  A    between atoms: N_16  and  S_17
REMARK    7  A    between atoms: S_17  and  C_20
REMARK                            x       y       z     vdW  Elec       q    Type
REMARK                         _______ _______ _______ _____ _____    ______ ____
ROOT
ATOM      1  C   UNL     1       7.413   6.670  18.314  0.00  0.00    +0.000 C 
ATOM      2  O   UNL     1       8.114   6.241  19.236  0.00  0.00    +0.000 OA
ATOM      3  N   UNL     1       6.285   5.996  17.885  0.00  0.00    +0.000 N 
ATOM      4  C   UNL     1       5.388   6.480  16.828  0.00  0.00    +0.000 C 
ATOM      5  C   UNL     1       4.587   5.359  16.147  0.00  0.00    +0.000 C 
ATOM      6  N   UNL     1       3.939   4.435  17.121  0.00  0.00    +0.000 NA
ATOM      7  C   UNL     1       4.976   3.879  18.053  0.00  0.00    +0.000 C 
ATOM      8  C   UNL     1       5.715   4.993  18.800  0.00  0.00    +0.000 C 
ENDROOT
BRANCH   6   9
ATOM      9  S   UNL     1       2.522   4.985  17.895  0.00  0.00    +0.000 S 
ATOM     10  O   UNL     1       2.728   6.356  18.310  0.00  0.00    +0.000 OA
ATOM     11  O   UNL     1       1.404   4.644  17.041  0.00  0.00    +0.000 OA
BRANCH   9  12
ATOM     12  C   UNL     1       2.389   3.992  19.346  0.00  0.00    +0.000 A 
ATOM     13  C   UNL     1       2.131   2.619  19.237  0.00  0.00    +0.000 A 
ATOM     14  C   UNL     1       1.902   1.864  20.388  0.00  0.00    +0.000 A 
ATOM     15  C   UNL     1       1.925   2.480  21.642  0.00  0.00    +0.000 A 
ATOM     16  C   UNL     1       2.193   3.846  21.744  0.00  0.00    +0.000 A 
ATOM     17  C   UNL     1       2.420   4.599  20.593  0.00  0.00    +0.000 A 
ATOM     18  F   UNL     1       2.676   5.908  20.728  0.00  0.00    +0.000 F 
ENDBRANCH   9  12
ENDBRANCH   6   9
BRANCH   1  19
ATOM     19  C   UNL     1       7.778   7.985  17.655  0.00  0.00    +0.000 C 
BRANCH  19  20
ATOM     20  C   UNL     1       8.696   8.729  18.611  0.00  0.00    +0.000 C 
BRANCH  20  21
ATOM     21  O   UNL     1       8.566  10.126  18.381  0.00  0.00    +0.000 OA
BRANCH  21  28
ATOM     22  C   UNL     1       9.056  11.089  21.303  0.00  0.00    +0.000 C 
ATOM     23  C   UNL     1       9.888  11.378  20.087  0.00  0.00    +0.000 A 
ATOM     24  C   UNL     1      11.063  12.127  20.292  0.00  0.00    +0.000 A 
ATOM     25  C   UNL     1      11.934  12.422  19.245  0.00  0.00    +0.000 A 
ATOM     26  C   UNL     1      11.642  11.982  17.963  0.00  0.00    +0.000 A 
ATOM     27  C   UNL     1      10.484  11.237  17.739  0.00  0.00    +0.000 A 
ATOM     28  C   UNL     1       9.599  10.930  18.785  0.00  0.00    +0.000 A 
ENDBRANCH  21  28
ENDBRANCH  20  21
ENDBRANCH  19  20
ENDBRANCH   1  19
TORSDOF 6
ENDMDL
MODEL 4
REMARK VINA RESULT:      -7.8      0.925      1.300
REMARK  Name = 
REMARK  7 active torsions:
REMARK  status: ('A' for Active; 'I' for Inactive)
REMARK    1  A    between atoms: C_1  and  C_2
REMARK    2  A    between atoms: C_7  and  O_8
REMARK    3  A    between atoms: O_8  and  C_9
REMARK    4  A    between atoms: C_9  and  C_10
REMARK    5  A    between atoms: C_10  and  C_11
REMARK    6  A    between atoms: N_16  and  S_17
REMARK    7  A    between atoms: S_17  and  C_20
REMARK                            x       y       z     vdW  Elec       q    Type
REMARK                         _______ _______ _______ _____ _____    ______ ____
ROOT
ATOM      1  C   UNL     1       7.409   6.586  18.217  0.00  0.00    +0.000 C 
ATOM      2  O   UNL     1       8.074   6.304  19.219  0.00  0.00    +0.000 OA
ATOM      3  N   UNL     1       6.313   5.834  17.836  0.00  0.00    +0.000 N 
ATOM      4  C   UNL     1       5.458   6.148  16.685  0.00  0.00    +0.000 C 
ATOM      5  C   UNL     1       4.707   4.927  16.132  0.00  0.00    +0.000 C 
ATOM      6  N   UNL     1       4.031   4.131  17.195  0.00  0.00    +0.000 NA
ATOM      7  C   UNL     1       5.034   3.730  18.238  0.00  0.00    +0.000 C 
ATOM      8  C   UNL     1       5.719   4.953  18.856  0.00  0.00    +0.000 C 
ENDROOT
BRANCH   6   9
ATOM      9  S   UNL     1       2.571   4.748  17.824  0.00  0.00    +0.000 S 
ATOM     10  O   UNL     1       2.752   6.156  18.105  0.00  0.00    +0.000 OA
ATOM     11  O   UNL     1       1.505   4.313  16.947  0.00  0.00    +0.000 OA
BRANCH   9  12
ATOM     12  C   UNL     1       2.355   3.911  19.360  0.00  0.00    +0.000 A 
ATOM     13  C   UNL     1       1.934   2.574  19.379  0.00  0.00    +0.000 A 
ATOM     14  C   UNL     1       1.643   1.958  20.597  0.00  0.00    +0.000 A 
ATOM     15  C   UNL     1       1.767   2.674  21.789  0.00  0.00    +0.000 A 
ATOM     16  C   UNL     1       2.196   4.003  21.764  0.00  0.00    +0.000 A 
ATOM     17  C   UNL     1       2.485   4.618  20.547  0.00  0.00    +0.000 A 
ATOM     18  F   UNL     1       2.896   5.893  20.560  0.00  0.00    +0.000 F 
ENDBRANCH   9  12
ENDBRANCH   6   9
BRANCH   1  19
ATOM     19  C   UNL     1       7.782   7.806  17.399  0.00  0.00    +0.000 C 
BRANCH  19  20
ATOM     20  C   UNL     1       8.370   8.829  18.358  0.00  0.00    +0.000 C 
BRANCH  20  21
ATOM     21  O   UNL     1       8.546  10.060  17.668  0.00  0.00    +0.000 OA
BRANCH  21  28
ATOM     22  C   UNL     1       7.864  13.061  17.185  0.00  0.00    +0.000 C 
ATOM     23  C   UNL     1       8.781  12.481  18.224  0.00  0.00    +0.000 A 
ATOM     24  C   UNL     1       9.362  13.390  19.128  0.00  0.00    +0.000 A 
ATOM     25  C   UNL     1      10.197  12.963  20.159  0.00  0.00    +0.000 A 
ATOM     26  C   UNL     1      10.477  11.612  20.302  0.00  0.00    +0.000 A 
ATOM     27  C   UNL     1       9.910  10.694  19.418  0.00  0.00    +0.000 A 
ATOM     28  C   UNL     1       9.065  11.110  18.376  0.00  0.00    +0.000 A 
ENDBRANCH  21  28
ENDBRANCH  20  21
ENDBRANCH  19  20
ENDBRANCH   1  19
TORSDOF 6
ENDMDL
MODEL 5
REMARK VINA RESULT:      -7.6      1.674      2.347
REMARK  Name = 
REMARK  7 active torsions:
REMARK  status: ('A' for Active; 'I' for Inactive)
REMARK    1  A    between atoms: C_1  and  C_2
REMARK    2  A    between atoms: C_7  and  O_8
REMARK    3  A    between atoms: O_8  and  C_9
REMARK    4  A    between atoms: C_9  and  C_10
REMARK    5  A    between atoms: C_10  and  C_11
REMARK    6  A    between atoms: N_16  and  S_17
REMARK    7  A    between atoms: S_17  and  C_20
REMARK                            x       y       z     vdW  Elec       q    Type
REMARK                         _______ _______ _______ _____ _____    ______ ____
ROOT
ATOM      1  C   UNL     1       7.495   7.109  17.204  0.00  0.00    +0.000 C 
ATOM      2  O   UNL     1       8.167   7.046  16.169  0.00  0.00    +0.000 OA
ATOM      3  N   UNL     1       6.330   6.380  17.359  0.00  0.00    +0.000 N 
ATOM      4  C   UNL     1       5.516   6.376  18.580  0.00  0.00    +0.000 C 
ATOM      5  C   UNL     1       4.049   5.990  18.335  0.00  0.00    +0.000 C 
ATOM      6  N   UNL     1       3.904   4.762  17.503  0.00  0.00    +0.000 NA
ATOM      7  C   UNL     1       4.647   4.940  16.210  0.00  0.00    +0.000 C 
ATOM      8  C   UNL     1       6.130   5.237  16.451  0.00  0.00    +0.000 C 
ENDROOT
BRANCH   6   9
ATOM      9  S   UNL     1       4.177   3.263  18.268  0.00  0.00    +0.000 S 
ATOM     10  O   UNL     1       3.897   2.206  17.320  0.00  0.00    +0.000 OA
ATOM     11  O   UNL     1       5.470   3.337  18.915  0.00  0.00    +0.000 OA
BRANCH   9  12
ATOM     12  C   UNL     1       2.963   3.183  19.544  0.00  0.00    +0.000 A 
ATOM     13  C   UNL     1       3.333   2.817  20.846  0.00  0.00    +0.000 A 
ATOM     14  C   UNL     1       2.351   2.633  21.819  0.00  0.00    +0.000 A 
ATOM     15  C   UNL     1       1.004   2.809  21.494  0.00  0.00    +0.000 A 
ATOM     16  C   UNL     1       0.642   3.184  20.198  0.00  0.00    +0.000 A 
ATOM     17  C   UNL     1       1.625   3.365  19.225  0.00  0.00    +0.000 A 
ATOM     18  F   UNL     1       1.242   3.727  17.993  0.00  0.00    +0.000 F 
ENDBRANCH   9  12
ENDBRANCH   6   9
BRANCH   1  19
ATOM     19  C   UNL     1       7.971   7.983  18.346  0.00  0.00    +0.000 C 
BRANCH  19  20
ATOM     20  C   UNL     1       8.056   9.406  17.819  0.00  0.00    +0.000 C 
BRANCH  20  21
ATOM     21  O   UNL     1       9.325   9.949  18.163  0.00  0.00    +0.000 OA
BRANCH  21  28
ATOM     22  C   UNL     1      11.810  11.506  19.212  0.00  0.00    +0.000 C 
ATOM     23  C   UNL     1      10.526  12.074  18.682  0.00  0.00    +0.000 A 
ATOM     24  C   UNL     1      10.447  13.477  18.591  0.00  0.00    +0.000 A 
ATOM     25  C   UNL     1       9.320  14.115  18.077  0.00  0.00    +0.000 A 
ATOM     26  C   UNL     1       8.238  13.359  17.649  0.00  0.00    +0.000 A 
ATOM     27  C   UNL     1       8.296  11.968  17.728  0.00  0.00    +0.000 A 
ATOM     28  C   UNL     1       9.426  11.312  18.241  0.00  0.00    +0.000 A 
ENDBRANCH  21  28
ENDBRANCH  20  21
ENDBRANCH  19  20
ENDBRANCH   1  19
TORSDOF 6
ENDMDL
MODEL 6
REMARK VINA RESULT:      -7.6      5.573      7.778
REMARK  Name = 
REMARK  7 active torsions:
REMARK  status: ('A' for Active; 'I' for Inactive)
REMARK    1  A    between atoms: C_1  and  C_2
REMARK    2  A    between atoms: C_7  and  O_8
REMARK    3  A    between atoms: O_8  and  C_9
REMARK    4  A    between atoms: C_9  and  C_10
REMARK    5  A    between atoms: C_10  and  C_11
REMARK    6  A    between atoms: N_16  and  S_17
REMARK    7  A    between atoms: S_17  and  C_20
REMARK                            x       y       z     vdW  Elec       q    Type
REMARK                         _______ _______ _______ _____ _____    ______ ____
ROOT
ATOM      1  C   UNL     1       1.458   9.204  19.181  0.00  0.00    +0.000 C 
ATOM      2  O   UNL     1       1.097   9.419  20.342  0.00  0.00    +0.000 OA
ATOM      3  N   UNL     1       2.216   8.096  18.850  0.00  0.00    +0.000 N 
ATOM      4  C   UNL     1       2.634   7.762  17.482  0.00  0.00    +0.000 C 
ATOM      5  C   UNL     1       3.886   6.874  17.427  0.00  0.00    +0.000 C 
ATOM      6  N   UNL     1       3.807   5.701  18.344  0.00  0.00    +0.000 NA
ATOM      7  C   UNL     1       3.532   6.173  19.742  0.00  0.00    +0.000 C 
ATOM      8  C   UNL     1       2.234   6.984  19.816  0.00  0.00    +0.000 C 
ENDROOT
BRANCH   6   9
ATOM      9  S   UNL     1       2.845   4.384  17.845  0.00  0.00    +0.000 S 
ATOM     10  O   UNL     1       1.590   4.898  17.339  0.00  0.00    +0.000 OA
ATOM     11  O   UNL     1       3.672   3.536  17.013  0.00  0.00    +0.000 OA
BRANCH   9  12
ATOM     12  C   UNL     1       2.508   3.489  19.326  0.00  0.00    +0.000 A 
ATOM     13  C   UNL     1       1.216   3.488  19.869  0.00  0.00    +0.000 A 
ATOM     14  C   UNL     1       0.985   2.884  21.105  0.00  0.00    +0.000 A 
ATOM     15  C   UNL     1       2.040   2.288  21.799  0.00  0.00    +0.000 A 
ATOM     16  C   UNL     1       3.323   2.282  21.248  0.00  0.00    +0.000 A 
ATOM     17  C   UNL     1       3.553   2.888  20.013  0.00  0.00    +0.000 A 
ATOM     18  F   UNL     1       4.796   2.863  19.513  0.00  0.00    +0.000 F 
ENDBRANCH   9  12
ENDBRANCH   6   9
BRANCH   1  19
ATOM     19  C   UNL     1       1.036  10.159  18.083  0.00  0.00    +0.000 C 
BRANCH  19  20
ATOM     20  C   UNL     1      -0.350  10.670  18.439  0.00  0.00    +0.000 C 
BRANCH  20  21
ATOM     21  O   UNL     1      -1.309  10.015  17.617  0.00  0.00    +0.000 OA
BRANCH  21  28
ATOM     22  C   UNL     1      -2.904  10.086  14.943  0.00  0.00    +0.000 C 
ATOM     23  C   UNL     1      -3.293  10.688  16.262  0.00  0.00    +0.000 A 
ATOM     24  C   UNL     1      -4.554  11.313  16.323  0.00  0.00    +0.000 A 
ATOM     25  C   UNL     1      -5.037  11.871  17.504  0.00  0.00    +0.000 A 
ATOM     26  C   UNL     1      -4.263  11.825  18.654  0.00  0.00    +0.000 A 
ATOM     27  C   UNL     1      -3.012  11.208  18.617  0.00  0.00    +0.000 A 
ATOM     28  C   UNL     1      -2.513  10.640  17.434  0.00  0.00    +0.000 A 
ENDBRANCH  21  28
ENDBRANCH  20  21
ENDBRANCH  19  20
ENDBRANCH   1  19
TORSDOF 6
ENDMDL
MODEL 7
REMARK VINA RESULT:      -7.5      4.872      7.411
REMARK  Name = 
REMARK  7 active torsions:
REMARK  status: ('A' for Active; 'I' for Inactive)
REMARK    1  A    between atoms: C_1  and  C_2
REMARK    2  A    between atoms: C_7  and  O_8
REMARK    3  A    between atoms: O_8  and  C_9
REMARK    4  A    between atoms: C_9  and  C_10
REMARK    5  A    between atoms: C_10  and  C_11
REMARK    6  A    between atoms: N_16  and  S_17
REMARK    7  A    between atoms: S_17  and  C_20
REMARK                            x       y       z     vdW  Elec       q    Type
REMARK                         _______ _______ _______ _____ _____    ______ ____
ROOT
ATOM      1  C   UNL     1       2.603   4.465  19.364  0.00  0.00    +0.000 C 
ATOM      2  O   UNL     1       1.566   3.891  19.017  0.00  0.00    +0.000 OA
ATOM      3  N   UNL     1       3.754   4.412  18.600  0.00  0.00    +0.000 N 
ATOM      4  C   UNL     1       5.000   5.111  18.937  0.00  0.00    +0.000 C 
ATOM      5  C   UNL     1       6.247   4.473  18.305  0.00  0.00    +0.000 C 
ATOM      6  N   UNL     1       6.081   4.191  16.851  0.00  0.00    +0.000 NA
ATOM      7  C   UNL     1       4.863   3.338  16.640  0.00  0.00    +0.000 C 
ATOM      8  C   UNL     1       3.603   4.013  17.190  0.00  0.00    +0.000 C 
ENDROOT
BRANCH   6   9
ATOM      9  S   UNL     1       6.207   5.512  15.780  0.00  0.00    +0.000 S 
ATOM     10  O   UNL     1       4.989   6.290  15.865  0.00  0.00    +0.000 OA
ATOM     11  O   UNL     1       7.490   6.140  16.018  0.00  0.00    +0.000 OA
BRANCH   9  12
ATOM     12  C   UNL     1       6.275   4.784  14.176  0.00  0.00    +0.000 A 
ATOM     13  C   UNL     1       5.251   3.928  13.747  0.00  0.00    +0.000 A 
ATOM     14  C   UNL     1       5.374   3.257  12.530  0.00  0.00    +0.000 A 
ATOM     15  C   UNL     1       6.516   3.435  11.746  0.00  0.00    +0.000 A 
ATOM     16  C   UNL     1       7.528   4.298  12.174  0.00  0.00    +0.000 A 
ATOM     17  C   UNL     1       7.405   4.966  13.391  0.00  0.00    +0.000 A 
ATOM     18  F   UNL     1       8.394   5.787  13.770  0.00  0.00    +0.000 F 
ENDBRANCH   9  12
ENDBRANCH   6   9
BRANCH   1  19
ATOM     19  C   UNL     1       2.610   5.273  20.647  0.00  0.00    +0.000 C 
BRANCH  19  20
ATOM     20  C   UNL     1       1.405   6.198  20.602  0.00  0.00    +0.000 C 
BRANCH  20  21
ATOM     21  O   UNL     1       1.838   7.530  20.847  0.00  0.00    +0.000 OA
BRANCH  21  28
ATOM     22  C   UNL     1       2.738   8.067  17.913  0.00  0.00    +0.000 C 
ATOM     23  C   UNL     1       1.684   8.792  18.700  0.00  0.00    +0.000 A 
ATOM     24  C   UNL     1       0.973   9.800  18.020  0.00  0.00    +0.000 A 
ATOM     25  C   UNL     1      -0.055  10.512  18.635  0.00  0.00    +0.000 A 
ATOM     26  C   UNL     1      -0.388  10.237  19.954  0.00  0.00    +0.000 A 
ATOM     27  C   UNL     1       0.302   9.241  20.644  0.00  0.00    +0.000 A 
ATOM     28  C   UNL     1       1.338   8.514  20.036  0.00  0.00    +0.000 A 
ENDBRANCH  21  28
ENDBRANCH  20  21
ENDBRANCH  19  20
ENDBRANCH   1  19
TORSDOF 6
ENDMDL
MODEL 8
REMARK VINA RESULT:      -7.5      7.759      9.792
REMARK  Name = 
REMARK  7 active torsions:
REMARK  status: ('A' for Active; 'I' for Inactive)
REMARK    1  A    between atoms: C_1  and  C_2
REMARK    2  A    between atoms: C_7  and  O_8
REMARK    3  A    between atoms: O_8  and  C_9
REMARK    4  A    between atoms: C_9  and  C_10
REMARK    5  A    between atoms: C_10  and  C_11
REMARK    6  A    between atoms: N_16  and  S_17
REMARK    7  A    between atoms: S_17  and  C_20
REMARK                            x       y       z     vdW  Elec       q    Type
REMARK                         _______ _______ _______ _____ _____    ______ ____
ROOT
ATOM      1  C   UNL     1       1.544  10.593  18.440  0.00  0.00    +0.000 C 
ATOM      2  O   UNL     1       2.465  11.268  17.971  0.00  0.00    +0.000 OA
ATOM      3  N   UNL     1       0.710  11.087  19.426  0.00  0.00    +0.000 N 
ATOM      4  C   UNL     1      -0.429  10.350  19.988  0.00  0.00    +0.000 C 
ATOM      5  C   UNL     1      -0.826  10.820  21.396  0.00  0.00    +0.000 C 
ATOM      6  N   UNL     1      -0.947  12.302  21.500  0.00  0.00    +0.000 NA
ATOM      7  C   UNL     1       0.332  12.945  21.048  0.00  0.00    +0.000 C 
ATOM      8  C   UNL     1       0.683  12.548  19.611  0.00  0.00    +0.000 C 
ENDROOT
BRANCH   6   9
ATOM      9  S   UNL     1      -2.357  13.017  20.858  0.00  0.00    +0.000 S 
ATOM     10  O   UNL     1      -2.071  14.402  20.554  0.00  0.00    +0.000 OA
ATOM     11  O   UNL     1      -2.857  12.133  19.826  0.00  0.00    +0.000 OA
BRANCH   9  12
ATOM     12  C   UNL     1      -3.520  12.981  22.182  0.00  0.00    +0.000 A 
ATOM     13  C   UNL     1      -3.117  12.575  23.462  0.00  0.00    +0.000 A 
ATOM     14  C   UNL     1      -4.068  12.427  24.472  0.00  0.00    +0.000 A 
ATOM     15  C   UNL     1      -5.416  12.679  24.205  0.00  0.00    +0.000 A 
ATOM     16  C   UNL     1      -5.810  13.093  22.931  0.00  0.00    +0.000 A 
ATOM     17  C   UNL     1      -4.859  13.238  21.921  0.00  0.00    +0.000 A 
ATOM     18  F   UNL     1      -5.271  13.638  20.711  0.00  0.00    +0.000 F 
ENDBRANCH   9  12
ENDBRANCH   6   9
BRANCH   1  19
ATOM     19  C   UNL     1       1.298   9.198  17.902  0.00  0.00    +0.000 C 
BRANCH  19  20
ATOM     20  C   UNL     1       2.618   8.448  17.975  0.00  0.00    +0.000 C 
BRANCH  20  21
ATOM     21  O   UNL     1       2.370   7.122  18.424  0.00  0.00    +0.000 OA
BRANCH  21  28
ATOM     22  C   UNL     1       1.558   4.116  18.312  0.00  0.00    +0.000 C 
ATOM     23  C   UNL     1       2.807   4.752  17.775  0.00  0.00    +0.000 A 
ATOM     24  C   UNL     1       3.698   3.907  17.086  0.00  0.00    +0.000 A 
ATOM     25  C   UNL     1       4.869   4.393  16.509  0.00  0.00    +0.000 A 
ATOM     26  C   UNL     1       5.182   5.740  16.617  0.00  0.00    +0.000 A 
ATOM     27  C   UNL     1       4.311   6.596  17.293  0.00  0.00    +0.000 A 
ATOM     28  C   UNL     1       3.127   6.120  17.877  0.00  0.00    +0.000 A 
ENDBRANCH  21  28
ENDBRANCH  20  21
ENDBRANCH  19  20
ENDBRANCH   1  19
TORSDOF 6
ENDMDL
MODEL 9
REMARK VINA RESULT:      -7.4      5.414      7.824
REMARK  Name = 
REMARK  7 active torsions:
REMARK  status: ('A' for Active; 'I' for Inactive)
REMARK    1  A    between atoms: C_1  and  C_2
REMARK    2  A    between atoms: C_7  and  O_8
REMARK    3  A    between atoms: O_8  and  C_9
REMARK    4  A    between atoms: C_9  and  C_10
REMARK    5  A    between atoms: C_10  and  C_11
REMARK    6  A    between atoms: N_16  and  S_17
REMARK    7  A    between atoms: S_17  and  C_20
REMARK                            x       y       z     vdW  Elec       q    Type
REMARK                         _______ _______ _______ _____ _____    ______ ____
ROOT
ATOM      1  C   UNL     1       1.512   8.307  20.278  0.00  0.00    +0.000 C 
ATOM      2  O   UNL     1       1.406   9.273  19.517  0.00  0.00    +0.000 OA
ATOM      3  N   UNL     1       2.007   7.091  19.845  0.00  0.00    +0.000 N 
ATOM      4  C   UNL     1       2.200   5.923  20.712  0.00  0.00    +0.000 C 
ATOM      5  C   UNL     1       2.198   4.589  19.950  0.00  0.00    +0.000 C 
ATOM      6  N   UNL     1       3.079   4.607  18.747  0.00  0.00    +0.000 NA
ATOM      7  C   UNL     1       2.688   5.750  17.854  0.00  0.00    +0.000 C 
ATOM      8  C   UNL     1       2.775   7.091  18.588  0.00  0.00    +0.000 C 
ENDROOT
BRANCH   6   9
ATOM      9  S   UNL     1       4.758   4.463  19.007  0.00  0.00    +0.000 S 
ATOM     10  O   UNL     1       5.198   5.588  19.804  0.00  0.00    +0.000 OA
ATOM     11  O   UNL     1       5.010   3.110  19.457  0.00  0.00    +0.000 OA
BRANCH   9  12
ATOM     12  C   UNL     1       5.475   4.619  17.404  0.00  0.00    +0.000 A 
ATOM     13  C   UNL     1       5.181   3.678  16.408  0.00  0.00    +0.000 A 
ATOM     14  C   UNL     1       5.849   3.735  15.183  0.00  0.00    +0.000 A 
ATOM     15  C   UNL     1       6.810   4.724  14.957  0.00  0.00    +0.000 A 
ATOM     16  C   UNL     1       7.090   5.664  15.951  0.00  0.00    +0.000 A 
ATOM     17  C   UNL     1       6.424   5.605  17.174  0.00  0.00    +0.000 A 
ATOM     18  F   UNL     1       6.716   6.524  18.104  0.00  0.00    +0.000 F 
ENDBRANCH   9  12
ENDBRANCH   6   9
BRANCH   1  19
ATOM     19  C   UNL     1       1.118   8.462  21.733  0.00  0.00    +0.000 C 
BRANCH  19  20
ATOM     20  C   UNL     1      -0.140   9.314  21.771  0.00  0.00    +0.000 C 
BRANCH  20  21
ATOM     21  O   UNL     1       0.035  10.353  22.726  0.00  0.00    +0.000 OA
BRANCH  21  28
ATOM     22  C   UNL     1       0.834  12.726  20.872  0.00  0.00    +0.000 C 
ATOM     23  C   UNL     1      -0.402  12.592  21.715  0.00  0.00    +0.000 A 
ATOM     24  C   UNL     1      -1.345  13.633  21.619  0.00  0.00    +0.000 A 
ATOM     25  C   UNL     1      -2.547  13.598  22.323  0.00  0.00    +0.000 A 
ATOM     26  C   UNL     1      -2.828  12.521  23.151  0.00  0.00    +0.000 A 
ATOM     27  C   UNL     1      -1.908  11.478  23.258  0.00  0.00    +0.000 A 
ATOM     28  C   UNL     1      -0.695  11.499  22.552  0.00  0.00    +0.000 A 
ENDBRANCH  21  28
ENDBRANCH  20  21
ENDBRANCH  19  20
ENDBRANCH   1  19
TORSDOF 6
ENDMDL
