MODEL 1
REMARK VINA RESULT:      -7.1      0.000      0.000
REMARK  Name = 
REMARK  6 active torsions:
REMARK  status: ('A' for Active; 'I' for Inactive)
REMARK    1  A    between atoms: C_1  and  C_2
REMARK    2  A    between atoms: C_7  and  C_8
REMARK    3  A    between atoms: C_9  and  O_10
REMARK    4  A    between atoms: O_10  and  C_11
REMARK    5  A    between atoms: C_14  and  C_15
REMARK    6  A    between atoms: C_18  and  O_19
REMARK                            x       y       z     vdW  Elec       q    Type
REMARK                         _______ _______ _______ _____ _____    ______ ____
ROOT
ATOM      1  C   UNL     1       9.638  10.297  18.881  0.00  0.00    +0.000 C 
ATOM      2  C   UNL     1       8.477   9.568  18.263  0.00  0.00    +0.000 C 
ATOM      3  O   UNL     1       7.649  10.177  17.593  0.00  0.00    +0.000 OA
ATOM      4  N   UNL     1       8.498   8.223  18.538  0.00  0.00    +0.000 N 
ATOM      5  C   UNL     1       7.618   7.288  18.015  0.00  0.00    +0.000 A 
ATOM      6  N   UNL     1       6.756   7.618  17.050  0.00  0.00    +0.000 NA
ATOM      7  C   UNL     1       5.912   6.670  16.602  0.00  0.00    +0.000 A 
ATOM      8  C   UNL     1       5.037   7.074  15.452  0.00  0.00    +0.000 C 
ATOM      9  C   UNL     1       5.880   5.390  17.124  0.00  0.00    +0.000 A 
ATOM     10  C   UNL     1       6.879   5.134  18.048  0.00  0.00    +0.000 A 
ATOM     11  N   UNL     1       7.737   6.056  18.517  0.00  0.00    +0.000 NA
ATOM     12  H   UNL     1       9.149   7.835  19.201  0.00  0.00    +0.000 HD
ENDROOT
BRANCH  10  13
ATOM     13  O   UNL     1       7.129   3.892  18.562  0.00  0.00    +0.000 OA
ATOM     14  H   UNL     1       6.311   3.371  18.523  0.00  0.00    +0.000 HD
ENDBRANCH  10  13
BRANCH   9  15
ATOM     15  O   UNL     1       4.951   4.526  16.609  0.00  0.00    +0.000 OA
BRANCH  15  16
ATOM     16  C   UNL     1       3.846   4.170  17.342  0.00  0.00    +0.000 A 
ATOM     17  C   UNL     1       2.843   5.051  17.751  0.00  0.00    +0.000 A 
ATOM     18  C   UNL     1       1.889   4.626  18.678  0.00  0.00    +0.000 A 
ATOM     19  C   UNL     1       1.901   3.310  19.154  0.00  0.00    +0.000 A 
ATOM     20  C   UNL     1       0.955   2.873  20.232  0.00  0.00    +0.000 C 
ATOM     21  C   UNL     1       2.815   2.397  18.617  0.00  0.00    +0.000 A 
ATOM     22  C   UNL     1       3.786   2.828  17.713  0.00  0.00    +0.000 A 
ENDBRANCH  15  16
ENDBRANCH   9  15
TORSDOF 3
ENDMDL
MODEL 2
REMARK VINA RESULT:      -7.0      0.440      1.162
REMARK  Name = 
REMARK  6 active torsions:
REMARK  status: ('A' for Active; 'I' for Inactive)
REMARK    1  A    between atoms: C_1  and  C_2
REMARK    2  A    between atoms: C_7  and  C_8
REMARK    3  A    between atoms: C_9  and  O_10
REMARK    4  A    between atoms: O_10  and  C_11
REMARK    5  A    between atoms: C_14  and  C_15
REMARK    6  A    between atoms: C_18  and  O_19
REMARK                            x       y       z     vdW  Elec       q    Type
REMARK                         _______ _______ _______ _____ _____    ______ ____
ROOT
ATOM      1  C   UNL     1       9.495  10.350  18.862  0.00  0.00    +0.000 C 
ATOM      2  C   UNL     1       8.370   9.582  18.225  0.00  0.00    +0.000 C 
ATOM      3  O   UNL     1       7.514  10.167  17.570  0.00  0.00    +0.000 OA
ATOM      4  N   UNL     1       8.454   8.233  18.467  0.00  0.00    +0.000 N 
ATOM      5  C   UNL     1       7.620   7.271  17.922  0.00  0.00    +0.000 A 
ATOM      6  N   UNL     1       6.743   7.582  16.964  0.00  0.00    +0.000 NA
ATOM      7  C   UNL     1       5.944   6.607  16.492  0.00  0.00    +0.000 A 
ATOM      8  C   UNL     1       5.050   6.997  15.352  0.00  0.00    +0.000 C 
ATOM      9  C   UNL     1       5.972   5.315  16.983  0.00  0.00    +0.000 A 
ATOM     10  C   UNL     1       6.983   5.084  17.901  0.00  0.00    +0.000 A 
ATOM     11  N   UNL     1       7.797   6.034  18.393  0.00  0.00    +0.000 NA
ATOM     12  H   UNL     1       9.123   7.860  19.122  0.00  0.00    +0.000 HD
ENDROOT
BRANCH  10  13
ATOM     13  O   UNL     1       7.291   3.843  18.386  0.00  0.00    +0.000 OA
ATOM     14  H   UNL     1       6.642   3.208  18.043  0.00  0.00    +0.000 HD
ENDBRANCH  10  13
BRANCH   9  15
ATOM     15  O   UNL     1       5.085   4.421  16.447  0.00  0.00    +0.000 OA
BRANCH  15  16
ATOM     16  C   UNL     1       4.067   3.903  17.210  0.00  0.00    +0.000 A 
ATOM     17  C   UNL     1       3.878   2.545  17.473  0.00  0.00    +0.000 A 
ATOM     18  C   UNL     1       2.690   2.118  18.070  0.00  0.00    +0.000 A 
ATOM     19  C   UNL     1       1.715   3.047  18.451  0.00  0.00    +0.000 A 
ATOM     20  C   UNL     1       0.390   2.594  18.987  0.00  0.00    +0.000 C 
ATOM     21  C   UNL     1       1.986   4.413  18.324  0.00  0.00    +0.000 A 
ATOM     22  C   UNL     1       3.160   4.839  17.703  0.00  0.00    +0.000 A 
ENDBRANCH  15  16
ENDBRANCH   9  15
TORSDOF 3
ENDMDL
MODEL 3
REMARK VINA RESULT:      -6.9      2.826      4.111
REMARK  Name = 
REMARK  6 active torsions:
REMARK  status: ('A' for Active; 'I' for Inactive)
REMARK    1  A    between atoms: C_1  and  C_2
REMARK    2  A    between atoms: C_7  and  C_8
REMARK    3  A    between atoms: C_9  and  O_10
REMARK    4  A    between atoms: O_10  and  C_11
REMARK    5  A    between atoms: C_14  and  C_15
REMARK    6  A    between atoms: C_18  and  O_19
REMARK                            x       y       z     vdW  Elec       q    Type
REMARK                         _______ _______ _______ _____ _____    ______ ____
ROOT
ATOM      1  C   UNL     1       7.808   5.323  11.347  0.00  0.00    +0.000 C 
ATOM      2  C   UNL     1       7.896   5.420  12.845  0.00  0.00    +0.000 C 
ATOM      3  O   UNL     1       8.762   6.112  13.371  0.00  0.00    +0.000 OA
ATOM      4  N   UNL     1       6.926   4.680  13.475  0.00  0.00    +0.000 N 
ATOM      5  C   UNL     1       6.698   4.663  14.842  0.00  0.00    +0.000 A 
ATOM      6  N   UNL     1       7.324   5.516  15.656  0.00  0.00    +0.000 NA
ATOM      7  C   UNL     1       7.077   5.433  16.976  0.00  0.00    +0.000 A 
ATOM      8  C   UNL     1       7.735   6.480  17.825  0.00  0.00    +0.000 C 
ATOM      9  C   UNL     1       6.234   4.481  17.520  0.00  0.00    +0.000 A 
ATOM     10  C   UNL     1       5.568   3.716  16.578  0.00  0.00    +0.000 A 
ATOM     11  N   UNL     1       5.791   3.774  15.254  0.00  0.00    +0.000 NA
ATOM     12  H   UNL     1       6.337   4.044  12.962  0.00  0.00    +0.000 HD
ENDROOT
BRANCH  10  13
ATOM     13  O   UNL     1       4.571   2.834  16.893  0.00  0.00    +0.000 OA
ATOM     14  H   UNL     1       4.566   2.125  16.231  0.00  0.00    +0.000 HD
ENDBRANCH  10  13
BRANCH   9  15
ATOM     15  O   UNL     1       6.092   4.475  18.882  0.00  0.00    +0.000 OA
BRANCH  15  16
ATOM     16  C   UNL     1       4.867   4.237  19.455  0.00  0.00    +0.000 A 
ATOM     17  C   UNL     1       4.422   2.990  19.898  0.00  0.00    +0.000 A 
ATOM     18  C   UNL     1       3.083   2.823  20.255  0.00  0.00    +0.000 A 
ATOM     19  C   UNL     1       2.200   3.909  20.222  0.00  0.00    +0.000 A 
ATOM     20  C   UNL     1       0.737   3.719  20.492  0.00  0.00    +0.000 C 
ATOM     21  C   UNL     1       2.695   5.183  19.926  0.00  0.00    +0.000 A 
ATOM     22  C   UNL     1       4.026   5.345  19.543  0.00  0.00    +0.000 A 
ENDBRANCH  15  16
ENDBRANCH   9  15
TORSDOF 3
ENDMDL
MODEL 4
REMARK VINA RESULT:      -6.8      3.468      5.888
REMARK  Name = 
REMARK  6 active torsions:
REMARK  status: ('A' for Active; 'I' for Inactive)
REMARK    1  A    between atoms: C_1  and  C_2
REMARK    2  A    between atoms: C_7  and  C_8
REMARK    3  A    between atoms: C_9  and  O_10
REMARK    4  A    between atoms: O_10  and  C_11
REMARK    5  A    between atoms: C_14  and  C_15
REMARK    6  A    between atoms: C_18  and  O_19
REMARK                            x       y       z     vdW  Elec       q    Type
REMARK                         _______ _______ _______ _____ _____    ______ ____
ROOT
ATOM      1  C   UNL     1       2.261   4.827  21.214  0.00  0.00    +0.000 C 
ATOM      2  C   UNL     1       2.807   5.142  19.848  0.00  0.00    +0.000 C 
ATOM      3  O   UNL     1       2.103   5.701  19.013  0.00  0.00    +0.000 OA
ATOM      4  N   UNL     1       4.114   4.746  19.703  0.00  0.00    +0.000 N 
ATOM      5  C   UNL     1       4.906   5.000  18.595  0.00  0.00    +0.000 A 
ATOM      6  N   UNL     1       4.489   5.813  17.622  0.00  0.00    +0.000 NA
ATOM      7  C   UNL     1       5.296   6.001  16.560  0.00  0.00    +0.000 A 
ATOM      8  C   UNL     1       4.814   6.999  15.550  0.00  0.00    +0.000 C 
ATOM      9  C   UNL     1       6.513   5.359  16.425  0.00  0.00    +0.000 A 
ATOM     10  C   UNL     1       6.885   4.619  17.534  0.00  0.00    +0.000 A 
ATOM     11  N   UNL     1       6.104   4.412  18.609  0.00  0.00    +0.000 NA
ATOM     12  H   UNL     1       4.570   4.182  20.402  0.00  0.00    +0.000 HD
ENDROOT
BRANCH  10  13
ATOM     13  O   UNL     1       8.117   4.041  17.675  0.00  0.00    +0.000 OA
ATOM     14  H   UNL     1       8.786   4.743  17.694  0.00  0.00    +0.000 HD
ENDBRANCH  10  13
BRANCH   9  15
ATOM     15  O   UNL     1       7.226   5.604  15.282  0.00  0.00    +0.000 OA
BRANCH  15  16
ATOM     16  C   UNL     1       6.996   4.870  14.144  0.00  0.00    +0.000 A 
ATOM     17  C   UNL     1       6.073   3.827  14.041  0.00  0.00    +0.000 A 
ATOM     18  C   UNL     1       6.083   3.009  12.909  0.00  0.00    +0.000 A 
ATOM     19  C   UNL     1       6.974   3.261  11.860  0.00  0.00    +0.000 A 
ATOM     20  C   UNL     1       7.072   2.324  10.693  0.00  0.00    +0.000 C 
ATOM     21  C   UNL     1       7.783   4.401  11.910  0.00  0.00    +0.000 A 
ATOM     22  C   UNL     1       7.794   5.202  13.051  0.00  0.00    +0.000 A 
ENDBRANCH  15  16
ENDBRANCH   9  15
TORSDOF 3
ENDMDL
MODEL 5
REMARK VINA RESULT:      -6.8      3.288      6.290
REMARK  Name = 
REMARK  6 active torsions:
REMARK  status: ('A' for Active; 'I' for Inactive)
REMARK    1  A    between atoms: C_1  and  C_2
REMARK    2  A    between atoms: C_7  and  C_8
REMARK    3  A    between atoms: C_9  and  O_10
REMARK    4  A    between atoms: O_10  and  C_11
REMARK    5  A    between atoms: C_14  and  C_15
REMARK    6  A    between atoms: C_18  and  O_19
REMARK                            x       y       z     vdW  Elec       q    Type
REMARK                         _______ _______ _______ _____ _____    ______ ____
ROOT
ATOM      1  C   UNL     1       1.243   2.479  22.161  0.00  0.00    +0.000 C 
ATOM      2  C   UNL     1       1.624   3.308  20.965  0.00  0.00    +0.000 C 
ATOM      3  O   UNL     1       0.780   3.982  20.384  0.00  0.00    +0.000 OA
ATOM      4  N   UNL     1       2.959   3.206  20.661  0.00  0.00    +0.000 N 
ATOM      5  C   UNL     1       3.612   3.936  19.682  0.00  0.00    +0.000 A 
ATOM      6  N   UNL     1       3.001   4.940  19.048  0.00  0.00    +0.000 NA
ATOM      7  C   UNL     1       3.683   5.595  18.090  0.00  0.00    +0.000 A 
ATOM      8  C   UNL     1       2.977   6.773  17.485  0.00  0.00    +0.000 C 
ATOM      9  C   UNL     1       4.967   5.247  17.715  0.00  0.00    +0.000 A 
ATOM     10  C   UNL     1       5.534   4.259  18.502  0.00  0.00    +0.000 A 
ATOM     11  N   UNL     1       4.883   3.586  19.466  0.00  0.00    +0.000 NA
ATOM     12  H   UNL     1       3.550   2.530  21.119  0.00  0.00    +0.000 HD
ENDROOT
BRANCH  10  13
ATOM     13  O   UNL     1       6.845   3.883  18.409  0.00  0.00    +0.000 OA
ATOM     14  H   UNL     1       7.238   4.319  17.637  0.00  0.00    +0.000 HD
ENDBRANCH  10  13
BRANCH   9  15
ATOM     15  O   UNL     1       5.541   5.967  16.701  0.00  0.00    +0.000 OA
BRANCH  15  16
ATOM     16  C   UNL     1       6.030   5.333  15.586  0.00  0.00    +0.000 A 
ATOM     17  C   UNL     1       7.293   5.552  15.033  0.00  0.00    +0.000 A 
ATOM     18  C   UNL     1       7.596   5.023  13.776  0.00  0.00    +0.000 A 
ATOM     19  C   UNL     1       6.663   4.233  13.096  0.00  0.00    +0.000 A 
ATOM     20  C   UNL     1       6.932   3.755  11.700  0.00  0.00    +0.000 C 
ATOM     21  C   UNL     1       5.463   3.894  13.730  0.00  0.00    +0.000 A 
ATOM     22  C   UNL     1       5.148   4.444  14.973  0.00  0.00    +0.000 A 
ENDBRANCH  15  16
ENDBRANCH   9  15
TORSDOF 3
ENDMDL
MODEL 6
REMARK VINA RESULT:      -6.7      2.886      4.615
REMARK  Name = 
REMARK  6 active torsions:
REMARK  status: ('A' for Active; 'I' for Inactive)
REMARK    1  A    between atoms: C_1  and  C_2
REMARK    2  A    between atoms: C_7  and  C_8
REMARK    3  A    between atoms: C_9  and  O_10
REMARK    4  A    between atoms: O_10  and  C_11
REMARK    5  A    between atoms: C_14  and  C_15
REMARK    6  A    between atoms: C_18  and  O_19
REMARK                            x       y       z     vdW  Elec       q    Type
REMARK                         _______ _______ _______ _____ _____    ______ ____
ROOT
ATOM      1  C   UNL     1       7.326   4.181  11.881  0.00  0.00    +0.000 C 
ATOM      2  C   UNL     1       6.413   4.100  13.073  0.00  0.00    +0.000 C 
ATOM      3  O   UNL     1       5.271   3.669  12.951  0.00  0.00    +0.000 OA
ATOM      4  N   UNL     1       7.017   4.539  14.226  0.00  0.00    +0.000 N 
ATOM      5  C   UNL     1       6.457   4.481  15.491  0.00  0.00    +0.000 A 
ATOM      6  N   UNL     1       5.314   3.827  15.710  0.00  0.00    +0.000 NA
ATOM      7  C   UNL     1       4.810   3.828  16.958  0.00  0.00    +0.000 A 
ATOM      8  C   UNL     1       3.578   2.995  17.159  0.00  0.00    +0.000 C 
ATOM      9  C   UNL     1       5.407   4.506  18.005  0.00  0.00    +0.000 A 
ATOM     10  C   UNL     1       6.633   5.065  17.686  0.00  0.00    +0.000 A 
ATOM     11  N   UNL     1       7.164   5.082  16.451  0.00  0.00    +0.000 NA
ATOM     12  H   UNL     1       7.917   4.992  14.204  0.00  0.00    +0.000 HD
ENDROOT
BRANCH  10  13
ATOM     13  O   UNL     1       7.463   5.636  18.611  0.00  0.00    +0.000 OA
ATOM     14  H   UNL     1       8.087   6.218  18.149  0.00  0.00    +0.000 HD
ENDBRANCH  10  13
BRANCH   9  15
ATOM     15  O   UNL     1       4.779   4.461  19.221  0.00  0.00    +0.000 OA
BRANCH  15  16
ATOM     16  C   UNL     1       3.700   5.271  19.479  0.00  0.00    +0.000 A 
ATOM     17  C   UNL     1       3.491   6.528  18.907  0.00  0.00    +0.000 A 
ATOM     18  C   UNL     1       2.484   7.354  19.410  0.00  0.00    +0.000 A 
ATOM     19  C   UNL     1       1.652   6.909  20.444  0.00  0.00    +0.000 A 
ATOM     20  C   UNL     1       0.643   7.826  21.068  0.00  0.00    +0.000 C 
ATOM     21  C   UNL     1       1.772   5.591  20.898  0.00  0.00    +0.000 A 
ATOM     22  C   UNL     1       2.796   4.775  20.417  0.00  0.00    +0.000 A 
ENDBRANCH  15  16
ENDBRANCH   9  15
TORSDOF 3
ENDMDL
MODEL 7
REMARK VINA RESULT:      -6.7      3.341      5.190
REMARK  Name = 
REMARK  6 active torsions:
REMARK  status: ('A' for Active; 'I' for Inactive)
REMARK    1  A    between atoms: C_1  and  C_2
REMARK    2  A    between atoms: C_7  and  C_8
REMARK    3  A    between atoms: C_9  and  O_10
REMARK    4  A    between atoms: O_10  and  C_11
REMARK    5  A    between atoms: C_14  and  C_15
REMARK    6  A    between atoms: C_18  and  O_19
REMARK                            x       y       z     vdW  Elec       q    Type
REMARK                         _______ _______ _______ _____ _____    ______ ____
ROOT
ATOM      1  C   UNL     1       7.431   3.975  11.969  0.00  0.00    +0.000 C 
ATOM      2  C   UNL     1       6.422   4.077  13.079  0.00  0.00    +0.000 C 
ATOM      3  O   UNL     1       5.413   3.379  13.066  0.00  0.00    +0.000 OA
ATOM      4  N   UNL     1       6.786   4.993  14.035  0.00  0.00    +0.000 N 
ATOM      5  C   UNL     1       6.106   5.222  15.220  0.00  0.00    +0.000 A 
ATOM      6  N   UNL     1       5.103   4.429  15.603  0.00  0.00    +0.000 NA
ATOM      7  C   UNL     1       4.468   4.719  16.754  0.00  0.00    +0.000 A 
ATOM      8  C   UNL     1       3.417   3.736  17.178  0.00  0.00    +0.000 C 
ATOM      9  C   UNL     1       4.789   5.818  17.529  0.00  0.00    +0.000 A 
ATOM     10  C   UNL     1       5.904   6.511  17.087  0.00  0.00    +0.000 A 
ATOM     11  N   UNL     1       6.560   6.248  15.944  0.00  0.00    +0.000 NA
ATOM     12  H   UNL     1       7.571   5.610  13.896  0.00  0.00    +0.000 HD
ENDROOT
BRANCH  10  13
ATOM     13  O   UNL     1       6.487   7.526  17.793  0.00  0.00    +0.000 OA
ATOM     14  H   UNL     1       7.094   7.141  18.445  0.00  0.00    +0.000 HD
ENDBRANCH  10  13
BRANCH   9  15
ATOM     15  O   UNL     1       4.046   6.027  18.660  0.00  0.00    +0.000 OA
BRANCH  15  16
ATOM     16  C   UNL     1       3.084   7.007  18.692  0.00  0.00    +0.000 A 
ATOM     17  C   UNL     1       2.811   7.891  17.647  0.00  0.00    +0.000 A 
ATOM     18  C   UNL     1       1.972   8.985  17.872  0.00  0.00    +0.000 A 
ATOM     19  C   UNL     1       1.364   9.167  19.120  0.00  0.00    +0.000 A 
ATOM     20  C   UNL     1       0.554  10.396  19.408  0.00  0.00    +0.000 C 
ATOM     21  C   UNL     1       1.523   8.189  20.107  0.00  0.00    +0.000 A 
ATOM     22  C   UNL     1       2.383   7.111  19.892  0.00  0.00    +0.000 A 
ENDBRANCH  15  16
ENDBRANCH   9  15
TORSDOF 3
ENDMDL
MODEL 8
REMARK VINA RESULT:      -6.6      6.031      7.850
REMARK  Name = 
REMARK  6 active torsions:
REMARK  status: ('A' for Active; 'I' for Inactive)
REMARK    1  A    between atoms: C_1  and  C_2
REMARK    2  A    between atoms: C_7  and  C_8
REMARK    3  A    between atoms: C_9  and  O_10
REMARK    4  A    between atoms: O_10  and  C_11
REMARK    5  A    between atoms: C_14  and  C_15
REMARK    6  A    between atoms: C_18  and  O_19
REMARK                            x       y       z     vdW  Elec       q    Type
REMARK                         _______ _______ _______ _____ _____    ______ ____
ROOT
ATOM      1  C   UNL     1       4.448   4.081  18.851  0.00  0.00    +0.000 C 
ATOM      2  C   UNL     1       3.431   5.070  19.351  0.00  0.00    +0.000 C 
ATOM      3  O   UNL     1       2.750   4.812  20.338  0.00  0.00    +0.000 OA
ATOM      4  N   UNL     1       3.398   6.215  18.594  0.00  0.00    +0.000 N 
ATOM      5  C   UNL     1       2.638   7.338  18.878  0.00  0.00    +0.000 A 
ATOM      6  N   UNL     1       1.981   7.450  20.035  0.00  0.00    +0.000 NA
ATOM      7  C   UNL     1       1.242   8.556  20.241  0.00  0.00    +0.000 A 
ATOM      8  C   UNL     1       0.608   8.667  21.597  0.00  0.00    +0.000 C 
ATOM      9  C   UNL     1       1.108   9.553  19.293  0.00  0.00    +0.000 A 
ATOM     10  C   UNL     1       1.907   9.378  18.177  0.00  0.00    +0.000 A 
ATOM     11  N   UNL     1       2.657   8.287  17.940  0.00  0.00    +0.000 NA
ATOM     12  H   UNL     1       3.907   6.283  17.727  0.00  0.00    +0.000 HD
ENDROOT
BRANCH  10  13
ATOM     13  O   UNL     1       2.052  10.323  17.198  0.00  0.00    +0.000 OA
ATOM     14  H   UNL     1       1.945  11.200  17.598  0.00  0.00    +0.000 HD
ENDBRANCH  10  13
BRANCH   9  15
ATOM     15  O   UNL     1       0.298  10.612  19.607  0.00  0.00    +0.000 OA
BRANCH  15  16
ATOM     16  C   UNL     1      -0.968  10.700  19.085  0.00  0.00    +0.000 A 
ATOM     17  C   UNL     1      -1.448   9.935  18.019  0.00  0.00    +0.000 A 
ATOM     18  C   UNL     1      -2.669  10.265  17.429  0.00  0.00    +0.000 A 
ATOM     19  C   UNL     1      -3.438  11.321  17.933  0.00  0.00    +0.000 A 
ATOM     20  C   UNL     1      -4.694  11.758  17.239  0.00  0.00    +0.000 C 
ATOM     21  C   UNL     1      -3.019  11.977  19.096  0.00  0.00    +0.000 A 
ATOM     22  C   UNL     1      -1.786  11.666  19.669  0.00  0.00    +0.000 A 
ENDBRANCH  15  16
ENDBRANCH   9  15
TORSDOF 3
ENDMDL
MODEL 9
REMARK VINA RESULT:      -6.5      2.761      3.973
REMARK  Name = 
REMARK  6 active torsions:
REMARK  status: ('A' for Active; 'I' for Inactive)
REMARK    1  A    between atoms: C_1  and  C_2
REMARK    2  A    between atoms: C_7  and  C_8
REMARK    3  A    between atoms: C_9  and  O_10
REMARK    4  A    between atoms: O_10  and  C_11
REMARK    5  A    between atoms: C_14  and  C_15
REMARK    6  A    between atoms: C_18  and  O_19
REMARK                            x       y       z     vdW  Elec       q    Type
REMARK                         _______ _______ _______ _____ _____    ______ ____
ROOT
ATOM      1  C   UNL     1       7.816   5.196  11.487  0.00  0.00    +0.000 C 
ATOM      2  C   UNL     1       7.829   5.348  12.983  0.00  0.00    +0.000 C 
ATOM      3  O   UNL     1       8.776   5.891  13.542  0.00  0.00    +0.000 OA
ATOM      4  N   UNL     1       6.700   4.834  13.571  0.00  0.00    +0.000 N 
ATOM      5  C   UNL     1       6.389   4.927  14.918  0.00  0.00    +0.000 A 
ATOM      6  N   UNL     1       7.115   5.687  15.742  0.00  0.00    +0.000 NA
ATOM      7  C   UNL     1       6.775   5.716  17.044  0.00  0.00    +0.000 A 
ATOM      8  C   UNL     1       7.566   6.663  17.898  0.00  0.00    +0.000 C 
ATOM      9  C   UNL     1       5.735   4.967  17.562  0.00  0.00    +0.000 A 
ATOM     10  C   UNL     1       4.996   4.294  16.605  0.00  0.00    +0.000 A 
ATOM     11  N   UNL     1       5.306   4.244  15.298  0.00  0.00    +0.000 NA
ATOM     12  H   UNL     1       6.034   4.295  13.042  0.00  0.00    +0.000 HD
ENDROOT
BRANCH  10  13
ATOM     13  O   UNL     1       3.833   3.630  16.882  0.00  0.00    +0.000 OA
ATOM     14  H   UNL     1       3.120   4.020  16.352  0.00  0.00    +0.000 HD
ENDBRANCH  10  13
BRANCH   9  15
ATOM     15  O   UNL     1       5.511   5.054  18.910  0.00  0.00    +0.000 OA
BRANCH  15  16
ATOM     16  C   UNL     1       4.374   4.520  19.465  0.00  0.00    +0.000 A 
ATOM     17  C   UNL     1       3.227   5.247  19.790  0.00  0.00    +0.000 A 
ATOM     18  C   UNL     1       2.223   4.646  20.551  0.00  0.00    +0.000 A 
ATOM     19  C   UNL     1       2.336   3.307  20.943  0.00  0.00    +0.000 A 
ATOM     20  C   UNL     1       1.322   2.684  21.855  0.00  0.00    +0.000 C 
ATOM     21  C   UNL     1       3.416   2.548  20.478  0.00  0.00    +0.000 A 
ATOM     22  C   UNL     1       4.432   3.155  19.741  0.00  0.00    +0.000 A 
ENDBRANCH  15  16
ENDBRANCH   9  15
TORSDOF 3
ENDMDL
