MODEL 1
REMARK VINA RESULT:      -7.7      0.000      0.000
REMARK  Name = 
REMARK  12 active torsions:
REMARK  status: ('A' for Active; 'I' for Inactive)
REMARK    1  A    between atoms: C_1  and  O_2
REMARK    2  A    between atoms: O_2  and  C_3
REMARK    3  A    between atoms: C_6  and  N_7
REMARK    4  A    between atoms: N_10  and  C_11
REMARK    5  A    between atoms: C_11  and  C_12
REMARK    6  A    between atoms: C_11  and  C_23
REMARK    7  A    between atoms: C_12  and  N_13
REMARK    8  A    between atoms: C_14  and  C_16
REMARK    9  A    between atoms: N_18  and  C_19
REMARK   10  A    between atoms: C_19  and  C_20
REMARK   11  A    between atoms: C_20  and  C_21
REMARK   12  A    between atoms: C_21  and  O_22
REMARK                            x       y       z     vdW  Elec       q    Type
REMARK                         _______ _______ _______ _____ _____    ______ ____
ROOT
ATOM      1  C   UNL     1       3.974   4.353  17.965  0.00  0.00    +0.000 C 
ENDROOT
BRANCH   1   5
ATOM      2  N   UNL     1       2.376   7.522  18.450  0.00  0.00    +0.000 N 
ATOM      3  C   UNL     1       3.549   7.379  17.574  0.00  0.00    +0.000 C 
ATOM      4  C   UNL     1       4.731   6.699  18.307  0.00  0.00    +0.000 C 
ATOM      5  N   UNL     1       4.397   5.399  18.963  0.00  0.00    +0.000 NA
ATOM      6  C   UNL     1       3.309   5.747  19.930  0.00  0.00    +0.000 C 
ATOM      7  C   UNL     1       2.033   6.363  19.297  0.00  0.00    +0.000 C 
BRANCH   2  11
ATOM      8  C   UNL     1       0.799  11.295  19.512  0.00  0.00    +0.000 A 
ATOM      9  C   UNL     1       0.630  10.191  20.345  0.00  0.00    +0.000 A 
ATOM     10  C   UNL     1       1.172   8.950  19.993  0.00  0.00    +0.000 A 
ATOM     11  C   UNL     1       1.872   8.766  18.791  0.00  0.00    +0.000 A 
ATOM     12  C   UNL     1       2.010   9.886  17.962  0.00  0.00    +0.000 A 
ATOM     13  C   UNL     1       1.482  11.135  18.311  0.00  0.00    +0.000 A 
BRANCH   8  15
ATOM     14  C   UNL     1       0.177  13.505  18.979  0.00  0.00    +0.000 C 
ATOM     15  O   UNL     1       0.229  12.459  19.945  0.00  0.00    +0.000 OA
ENDBRANCH   8  15
ENDBRANCH   2  11
ENDBRANCH   1   5
BRANCH   1  16
ATOM     16  C   UNL     1       2.795   3.510  18.430  0.00  0.00    +0.000 A 
ATOM     17  C   UNL     1       1.484   3.360  18.015  0.00  0.00    +0.000 A 
ATOM     18  C   UNL     1       0.874   2.432  18.892  0.00  0.00    +0.000 A 
ATOM     19  C   UNL     1       1.837   2.083  19.804  0.00  0.00    +0.000 A 
ATOM     20  O   UNL     1       2.982   2.768  19.568  0.00  0.00    +0.000 OA
ENDBRANCH   1  16
BRANCH   1  21
ATOM     21  C   UNL     1       5.153   3.408  17.544  0.00  0.00    +0.000 C 
BRANCH  21  22
ATOM     22  N   UNL     1       5.608   3.593  16.176  0.00  0.00    +0.000 N 
ATOM     23  C   UNL     1       6.692   4.382  15.853  0.00  0.00    +0.000 C 
ATOM     24  O   UNL     1       7.398   4.988  16.648  0.00  0.00    +0.000 OA
ATOM     25  H   UNL     1       5.113   3.122  15.420  0.00  0.00    +0.000 HD
BRANCH  23  26
ATOM     26  C   UNL     1       6.964   4.490  14.336  0.00  0.00    +0.000 C 
ATOM     27  O   UNL     1       7.692   5.368  13.894  0.00  0.00    +0.000 OA
ATOM     28  N   UNL     1       6.308   3.544  13.577  0.00  0.00    +0.000 N 
ATOM     29  H   UNL     1       5.711   2.888  14.075  0.00  0.00    +0.000 HD
BRANCH  28  30
ATOM     30  C   UNL     1       6.420   3.487  12.136  0.00  0.00    +0.000 C 
BRANCH  30  31
ATOM     31  C   UNL     1       5.758   2.248  11.530  0.00  0.00    +0.000 C 
BRANCH  31  32
ATOM     32  C   UNL     1       6.733   1.197  11.015  0.00  0.00    +0.000 C 
BRANCH  32  33
ATOM     33  O   UNL     1       6.219  -0.112  11.210  0.00  0.00    +0.000 OA
ATOM     34  H   UNL     1       6.920  -0.626  11.664  0.00  0.00    +0.000 HD
ENDBRANCH  32  33
ENDBRANCH  31  32
ENDBRANCH  30  31
ENDBRANCH  28  30
ENDBRANCH  23  26
ENDBRANCH  21  22
ENDBRANCH   1  21
TORSDOF 11
ENDMDL
MODEL 2
REMARK VINA RESULT:      -7.5      1.718      2.014
REMARK  Name = 
REMARK  12 active torsions:
REMARK  status: ('A' for Active; 'I' for Inactive)
REMARK    1  A    between atoms: C_1  and  O_2
REMARK    2  A    between atoms: O_2  and  C_3
REMARK    3  A    between atoms: C_6  and  N_7
REMARK    4  A    between atoms: N_10  and  C_11
REMARK    5  A    between atoms: C_11  and  C_12
REMARK    6  A    between atoms: C_11  and  C_23
REMARK    7  A    between atoms: C_12  and  N_13
REMARK    8  A    between atoms: C_14  and  C_16
REMARK    9  A    between atoms: N_18  and  C_19
REMARK   10  A    between atoms: C_19  and  C_20
REMARK   11  A    between atoms: C_20  and  C_21
REMARK   12  A    between atoms: C_21  and  O_22
REMARK                            x       y       z     vdW  Elec       q    Type
REMARK                         _______ _______ _______ _____ _____    ______ ____
ROOT
ATOM      1  C   UNL     1       4.810   4.426  17.117  0.00  0.00    +0.000 C 
ENDROOT
BRANCH   1   5
ATOM      2  N   UNL     1       2.780   7.194  18.143  0.00  0.00    +0.000 N 
ATOM      3  C   UNL     1       3.855   7.355  17.152  0.00  0.00    +0.000 C 
ATOM      4  C   UNL     1       5.207   6.818  17.680  0.00  0.00    +0.000 C 
ATOM      5  N   UNL     1       5.166   5.416  18.195  0.00  0.00    +0.000 NA
ATOM      6  C   UNL     1       4.152   5.460  19.295  0.00  0.00    +0.000 C 
ATOM      7  C   UNL     1       2.729   5.907  18.865  0.00  0.00    +0.000 C 
BRANCH   2  11
ATOM      8  C   UNL     1       0.740  10.493  19.818  0.00  0.00    +0.000 A 
ATOM      9  C   UNL     1       0.939   9.328  20.555  0.00  0.00    +0.000 A 
ATOM     10  C   UNL     1       1.632   8.248  19.997  0.00  0.00    +0.000 A 
ATOM     11  C   UNL     1       2.122   8.286  18.684  0.00  0.00    +0.000 A 
ATOM     12  C   UNL     1       1.891   9.460  17.956  0.00  0.00    +0.000 A 
ATOM     13  C   UNL     1       1.209  10.551  18.509  0.00  0.00    +0.000 A 
BRANCH   8  15
ATOM     14  C   UNL     1      -0.795  11.057  21.514  0.00  0.00    +0.000 C 
ATOM     15  O   UNL     1       0.050  11.488  20.452  0.00  0.00    +0.000 OA
ENDBRANCH   8  15
ENDBRANCH   2  11
ENDBRANCH   1   5
BRANCH   1  16
ATOM     16  C   UNL     1       3.797   3.382  17.560  0.00  0.00    +0.000 A 
ATOM     17  C   UNL     1       2.477   3.110  17.243  0.00  0.00    +0.000 A 
ATOM     18  C   UNL     1       2.079   2.005  18.032  0.00  0.00    +0.000 A 
ATOM     19  C   UNL     1       3.166   1.676  18.800  0.00  0.00    +0.000 A 
ATOM     20  O   UNL     1       4.189   2.534  18.563  0.00  0.00    +0.000 OA
ENDBRANCH   1  16
BRANCH   1  21
ATOM     21  C   UNL     1       6.068   3.707  16.517  0.00  0.00    +0.000 C 
BRANCH  21  22
ATOM     22  N   UNL     1       6.001   3.481  15.082  0.00  0.00    +0.000 N 
ATOM     23  C   UNL     1       6.663   4.277  14.172  0.00  0.00    +0.000 C 
ATOM     24  O   UNL     1       7.384   5.229  14.445  0.00  0.00    +0.000 OA
ATOM     25  H   UNL     1       5.447   2.703  14.729  0.00  0.00    +0.000 HD
BRANCH  23  26
ATOM     26  C   UNL     1       6.405   3.898  12.697  0.00  0.00    +0.000 C 
ATOM     27  O   UNL     1       7.263   4.084  11.845  0.00  0.00    +0.000 OA
ATOM     28  N   UNL     1       5.151   3.373  12.462  0.00  0.00    +0.000 N 
ATOM     29  H   UNL     1       4.526   3.299  13.261  0.00  0.00    +0.000 HD
BRANCH  28  30
ATOM     30  C   UNL     1       4.710   2.972  11.143  0.00  0.00    +0.000 C 
BRANCH  30  31
ATOM     31  C   UNL     1       3.212   3.185  10.921  0.00  0.00    +0.000 C 
BRANCH  31  32
ATOM     32  C   UNL     1       2.869   4.208   9.845  0.00  0.00    +0.000 C 
BRANCH  32  33
ATOM     33  O   UNL     1       3.377   3.807   8.582  0.00  0.00    +0.000 OA
ATOM     34  H   UNL     1       4.237   3.366   8.751  0.00  0.00    +0.000 HD
ENDBRANCH  32  33
ENDBRANCH  31  32
ENDBRANCH  30  31
ENDBRANCH  28  30
ENDBRANCH  23  26
ENDBRANCH  21  22
ENDBRANCH   1  21
TORSDOF 11
ENDMDL
MODEL 3
REMARK VINA RESULT:      -7.4      0.795      1.182
REMARK  Name = 
REMARK  12 active torsions:
REMARK  status: ('A' for Active; 'I' for Inactive)
REMARK    1  A    between atoms: C_1  and  O_2
REMARK    2  A    between atoms: O_2  and  C_3
REMARK    3  A    between atoms: C_6  and  N_7
REMARK    4  A    between atoms: N_10  and  C_11
REMARK    5  A    between atoms: C_11  and  C_12
REMARK    6  A    between atoms: C_11  and  C_23
REMARK    7  A    between atoms: C_12  and  N_13
REMARK    8  A    between atoms: C_14  and  C_16
REMARK    9  A    between atoms: N_18  and  C_19
REMARK   10  A    between atoms: C_19  and  C_20
REMARK   11  A    between atoms: C_20  and  C_21
REMARK   12  A    between atoms: C_21  and  O_22
REMARK                            x       y       z     vdW  Elec       q    Type
REMARK                         _______ _______ _______ _____ _____    ______ ____
ROOT
ATOM      1  C   UNL     1       3.634   4.347  18.344  0.00  0.00    +0.000 C 
ENDROOT
BRANCH   1   5
ATOM      2  N   UNL     1       2.175   7.608  18.615  0.00  0.00    +0.000 N 
ATOM      3  C   UNL     1       3.054   7.250  17.490  0.00  0.00    +0.000 C 
ATOM      4  C   UNL     1       4.409   6.684  17.979  0.00  0.00    +0.000 C 
ATOM      5  N   UNL     1       4.302   5.553  18.949  0.00  0.00    +0.000 NA
ATOM      6  C   UNL     1       3.528   6.127  20.095  0.00  0.00    +0.000 C 
ATOM      7  C   UNL     1       2.112   6.654  19.739  0.00  0.00    +0.000 C 
BRANCH   2  11
ATOM      8  C   UNL     1       0.969  11.608  19.245  0.00  0.00    +0.000 A 
ATOM      9  C   UNL     1       1.753  11.263  18.146  0.00  0.00    +0.000 A 
ATOM     10  C   UNL     1       2.132   9.933  17.937  0.00  0.00    +0.000 A 
ATOM     11  C   UNL     1       1.765   8.914  18.828  0.00  0.00    +0.000 A 
ATOM     12  C   UNL     1       0.995   9.288  19.936  0.00  0.00    +0.000 A 
ATOM     13  C   UNL     1       0.600  10.615  20.148  0.00  0.00    +0.000 A 
BRANCH   8  15
ATOM     14  C   UNL     1       1.707  13.836  19.030  0.00  0.00    +0.000 C 
ATOM     15  O   UNL     1       0.656  12.933  19.360  0.00  0.00    +0.000 OA
ENDBRANCH   8  15
ENDBRANCH   2  11
ENDBRANCH   1   5
BRANCH   1  16
ATOM     16  C   UNL     1       2.643   3.668  19.277  0.00  0.00    +0.000 A 
ATOM     17  C   UNL     1       1.276   3.448  19.251  0.00  0.00    +0.000 A 
ATOM     18  C   UNL     1       0.941   2.775  20.449  0.00  0.00    +0.000 A 
ATOM     19  C   UNL     1       2.113   2.639  21.149  0.00  0.00    +0.000 A 
ATOM     20  O   UNL     1       3.135   3.222  20.476  0.00  0.00    +0.000 OA
ENDBRANCH   1  16
BRANCH   1  21
ATOM     21  C   UNL     1       4.663   3.286  17.819  0.00  0.00    +0.000 C 
BRANCH  21  22
ATOM     22  N   UNL     1       5.199   3.575  16.499  0.00  0.00    +0.000 N 
ATOM     23  C   UNL     1       6.431   4.164  16.309  0.00  0.00    +0.000 C 
ATOM     24  O   UNL     1       7.213   4.489  17.193  0.00  0.00    +0.000 OA
ATOM     25  H   UNL     1       4.649   3.331  15.676  0.00  0.00    +0.000 HD
BRANCH  23  26
ATOM     26  C   UNL     1       6.779   4.437  14.829  0.00  0.00    +0.000 C 
ATOM     27  O   UNL     1       7.469   5.398  14.516  0.00  0.00    +0.000 OA
ATOM     28  N   UNL     1       6.230   3.531  13.945  0.00  0.00    +0.000 N 
ATOM     29  H   UNL     1       5.652   2.794  14.341  0.00  0.00    +0.000 HD
BRANCH  28  30
ATOM     30  C   UNL     1       6.424   3.623  12.514  0.00  0.00    +0.000 C 
BRANCH  30  31
ATOM     31  C   UNL     1       5.399   2.817  11.716  0.00  0.00    +0.000 C 
BRANCH  31  32
ATOM     32  C   UNL     1       5.911   1.481  11.192  0.00  0.00    +0.000 C 
BRANCH  32  33
ATOM     33  O   UNL     1       7.324   1.402  11.297  0.00  0.00    +0.000 OA
ATOM     34  H   UNL     1       7.639   0.911  10.508  0.00  0.00    +0.000 HD
ENDBRANCH  32  33
ENDBRANCH  31  32
ENDBRANCH  30  31
ENDBRANCH  28  30
ENDBRANCH  23  26
ENDBRANCH  21  22
ENDBRANCH   1  21
TORSDOF 11
ENDMDL
MODEL 4
REMARK VINA RESULT:      -6.8      2.360      3.047
REMARK  Name = 
REMARK  12 active torsions:
REMARK  status: ('A' for Active; 'I' for Inactive)
REMARK    1  A    between atoms: C_1  and  O_2
REMARK    2  A    between atoms: O_2  and  C_3
REMARK    3  A    between atoms: C_6  and  N_7
REMARK    4  A    between atoms: N_10  and  C_11
REMARK    5  A    between atoms: C_11  and  C_12
REMARK    6  A    between atoms: C_11  and  C_23
REMARK    7  A    between atoms: C_12  and  N_13
REMARK    8  A    between atoms: C_14  and  C_16
REMARK    9  A    between atoms: N_18  and  C_19
REMARK   10  A    between atoms: C_19  and  C_20
REMARK   11  A    between atoms: C_20  and  C_21
REMARK   12  A    between atoms: C_21  and  O_22
REMARK                            x       y       z     vdW  Elec       q    Type
REMARK                         _______ _______ _______ _____ _____    ______ ____
ROOT
ATOM      1  C   UNL     1       4.551   5.037  16.655  0.00  0.00    +0.000 C 
ENDROOT
BRANCH   1   5
ATOM      2  N   UNL     1       2.473   7.235  18.574  0.00  0.00    +0.000 N 
ATOM      3  C   UNL     1       3.196   7.706  17.382  0.00  0.00    +0.000 C 
ATOM      4  C   UNL     1       4.707   7.386  17.465  0.00  0.00    +0.000 C 
ATOM      5  N   UNL     1       5.030   5.955  17.749  0.00  0.00    +0.000 NA
ATOM      6  C   UNL     1       4.362   5.684  19.061  0.00  0.00    +0.000 C 
ATOM      7  C   UNL     1       2.824   5.892  19.077  0.00  0.00    +0.000 C 
BRANCH   2  11
ATOM      8  C   UNL     1       0.519   9.960  21.144  0.00  0.00    +0.000 A 
ATOM      9  C   UNL     1       0.729  10.270  19.803  0.00  0.00    +0.000 A 
ATOM     10  C   UNL     1       1.361   9.353  18.955  0.00  0.00    +0.000 A 
ATOM     11  C   UNL     1       1.825   8.115  19.425  0.00  0.00    +0.000 A 
ATOM     12  C   UNL     1       1.621   7.836  20.781  0.00  0.00    +0.000 A 
ATOM     13  C   UNL     1       0.979   8.742  21.635  0.00  0.00    +0.000 A 
BRANCH   8  15
ATOM     14  C   UNL     1      -0.213  12.197  21.258  0.00  0.00    +0.000 C 
ATOM     15  O   UNL     1      -0.103  10.924  21.887  0.00  0.00    +0.000 OA
ENDBRANCH   8  15
ENDBRANCH   2  11
ENDBRANCH   1   5
BRANCH   1  16
ATOM     16  C   UNL     1       4.015   3.709  17.165  0.00  0.00    +0.000 A 
ATOM     17  C   UNL     1       4.574   2.615  17.805  0.00  0.00    +0.000 A 
ATOM     18  C   UNL     1       3.539   1.668  17.989  0.00  0.00    +0.000 A 
ATOM     19  C   UNL     1       2.414   2.223  17.436  0.00  0.00    +0.000 A 
ATOM     20  O   UNL     1       2.702   3.429  16.888  0.00  0.00    +0.000 OA
ENDBRANCH   1  16
BRANCH   1  21
ATOM     21  C   UNL     1       5.650   4.770  15.567  0.00  0.00    +0.000 C 
BRANCH  21  22
ATOM     22  N   UNL     1       5.193   3.975  14.439  0.00  0.00    +0.000 N 
ATOM     23  C   UNL     1       5.881   3.913  13.246  0.00  0.00    +0.000 C 
ATOM     24  O   UNL     1       6.939   4.479  12.999  0.00  0.00    +0.000 OA
ATOM     25  H   UNL     1       4.332   3.438  14.527  0.00  0.00    +0.000 HD
BRANCH  23  26
ATOM     26  C   UNL     1       5.188   3.060  12.160  0.00  0.00    +0.000 C 
ATOM     27  O   UNL     1       5.656   1.983  11.819  0.00  0.00    +0.000 OA
ATOM     28  N   UNL     1       4.050   3.636  11.634  0.00  0.00    +0.000 N 
ATOM     29  H   UNL     1       3.789   4.551  11.994  0.00  0.00    +0.000 HD
BRANCH  28  30
ATOM     30  C   UNL     1       3.266   3.004  10.595  0.00  0.00    +0.000 C 
BRANCH  30  31
ATOM     31  C   UNL     1       3.140   3.861   9.334  0.00  0.00    +0.000 C 
BRANCH  31  32
ATOM     32  C   UNL     1       2.343   5.147   9.518  0.00  0.00    +0.000 C 
BRANCH  32  33
ATOM     33  O   UNL     1       1.428   5.336   8.450  0.00  0.00    +0.000 OA
ATOM     34  H   UNL     1       1.397   4.491   7.953  0.00  0.00    +0.000 HD
ENDBRANCH  32  33
ENDBRANCH  31  32
ENDBRANCH  30  31
ENDBRANCH  28  30
ENDBRANCH  23  26
ENDBRANCH  21  22
ENDBRANCH   1  21
TORSDOF 11
ENDMDL
MODEL 5
REMARK VINA RESULT:      -6.8      2.185      8.692
REMARK  Name = 
REMARK  12 active torsions:
REMARK  status: ('A' for Active; 'I' for Inactive)
REMARK    1  A    between atoms: C_1  and  O_2
REMARK    2  A    between atoms: O_2  and  C_3
REMARK    3  A    between atoms: C_6  and  N_7
REMARK    4  A    between atoms: N_10  and  C_11
REMARK    5  A    between atoms: C_11  and  C_12
REMARK    6  A    between atoms: C_11  and  C_23
REMARK    7  A    between atoms: C_12  and  N_13
REMARK    8  A    between atoms: C_14  and  C_16
REMARK    9  A    between atoms: N_18  and  C_19
REMARK   10  A    between atoms: C_19  and  C_20
REMARK   11  A    between atoms: C_20  and  C_21
REMARK   12  A    between atoms: C_21  and  O_22
REMARK                            x       y       z     vdW  Elec       q    Type
REMARK                         _______ _______ _______ _____ _____    ______ ____
ROOT
ATOM      1  C   UNL     1       2.527   6.167  20.033  0.00  0.00    +0.000 C 
ENDROOT
BRANCH   1   5
ATOM      2  N   UNL     1       4.673   5.299  17.299  0.00  0.00    +0.000 N 
ATOM      3  C   UNL     1       4.684   6.648  17.887  0.00  0.00    +0.000 C 
ATOM      4  C   UNL     1       3.267   7.267  17.926  0.00  0.00    +0.000 C 
ATOM      5  N   UNL     1       2.227   6.414  18.578  0.00  0.00    +0.000 NA
ATOM      6  C   UNL     1       2.229   5.155  17.768  0.00  0.00    +0.000 C 
ATOM      7  C   UNL     1       3.583   4.398  17.723  0.00  0.00    +0.000 C 
BRANCH   2  11
ATOM      8  C   UNL     1       6.729   4.378  13.725  0.00  0.00    +0.000 A 
ATOM      9  C   UNL     1       5.401   3.995  13.904  0.00  0.00    +0.000 A 
ATOM     10  C   UNL     1       4.724   4.321  15.084  0.00  0.00    +0.000 A 
ATOM     11  C   UNL     1       5.355   5.012  16.129  0.00  0.00    +0.000 A 
ATOM     12  C   UNL     1       6.695   5.366  15.934  0.00  0.00    +0.000 A 
ATOM     13  C   UNL     1       7.379   5.056  14.751  0.00  0.00    +0.000 A 
BRANCH   8  15
ATOM     14  C   UNL     1       6.568   3.044  11.788  0.00  0.00    +0.000 C 
ATOM     15  O   UNL     1       7.300   4.009  12.539  0.00  0.00    +0.000 OA
ENDBRANCH   8  15
ENDBRANCH   2  11
ENDBRANCH   1   5
BRANCH   1  16
ATOM     16  C   UNL     1       2.097   4.791  20.518  0.00  0.00    +0.000 A 
ATOM     17  C   UNL     1       0.894   4.109  20.567  0.00  0.00    +0.000 A 
ATOM     18  C   UNL     1       1.151   2.856  21.170  0.00  0.00    +0.000 A 
ATOM     19  C   UNL     1       2.488   2.848  21.476  0.00  0.00    +0.000 A 
ATOM     20  O   UNL     1       3.056   4.031  21.136  0.00  0.00    +0.000 OA
ENDBRANCH   1  16
BRANCH   1  21
ATOM     21  C   UNL     1       1.911   7.264  20.971  0.00  0.00    +0.000 C 
BRANCH  21  22
ATOM     22  N   UNL     1       1.264   8.359  20.266  0.00  0.00    +0.000 N 
ATOM     23  C   UNL     1       1.006   9.576  20.859  0.00  0.00    +0.000 C 
ATOM     24  O   UNL     1       1.296   9.889  22.008  0.00  0.00    +0.000 OA
ATOM     25  H   UNL     1       0.991   8.229  19.293  0.00  0.00    +0.000 HD
BRANCH  23  26
ATOM     26  C   UNL     1       0.256  10.575  19.951  0.00  0.00    +0.000 C 
ATOM     27  O   UNL     1       0.849  11.509  19.427  0.00  0.00    +0.000 OA
ATOM     28  N   UNL     1      -1.093  10.317  19.822  0.00  0.00    +0.000 N 
ATOM     29  H   UNL     1      -1.459   9.520  20.336  0.00  0.00    +0.000 HD
BRANCH  28  30
ATOM     30  C   UNL     1      -1.972  11.147  19.028  0.00  0.00    +0.000 C 
BRANCH  30  31
ATOM     31  C   UNL     1      -2.681  10.376  17.913  0.00  0.00    +0.000 C 
BRANCH  31  32
ATOM     32  C   UNL     1      -2.629  11.047  16.546  0.00  0.00    +0.000 C 
BRANCH  32  33
ATOM     33  O   UNL     1      -1.694  12.114  16.539  0.00  0.00    +0.000 OA
ATOM     34  H   UNL     1      -0.885  11.777  16.097  0.00  0.00    +0.000 HD
ENDBRANCH  32  33
ENDBRANCH  31  32
ENDBRANCH  30  31
ENDBRANCH  28  30
ENDBRANCH  23  26
ENDBRANCH  21  22
ENDBRANCH   1  21
TORSDOF 11
ENDMDL
MODEL 6
REMARK VINA RESULT:      -6.7      2.114      8.506
REMARK  Name = 
REMARK  12 active torsions:
REMARK  status: ('A' for Active; 'I' for Inactive)
REMARK    1  A    between atoms: C_1  and  O_2
REMARK    2  A    between atoms: O_2  and  C_3
REMARK    3  A    between atoms: C_6  and  N_7
REMARK    4  A    between atoms: N_10  and  C_11
REMARK    5  A    between atoms: C_11  and  C_12
REMARK    6  A    between atoms: C_11  and  C_23
REMARK    7  A    between atoms: C_12  and  N_13
REMARK    8  A    between atoms: C_14  and  C_16
REMARK    9  A    between atoms: N_18  and  C_19
REMARK   10  A    between atoms: C_19  and  C_20
REMARK   11  A    between atoms: C_20  and  C_21
REMARK   12  A    between atoms: C_21  and  O_22
REMARK                            x       y       z     vdW  Elec       q    Type
REMARK                         _______ _______ _______ _____ _____    ______ ____
ROOT
ATOM      1  C   UNL     1       3.712   5.492  19.818  0.00  0.00    +0.000 C 
ENDROOT
BRANCH   1   5
ATOM      2  N   UNL     1       4.913   4.956  16.486  0.00  0.00    +0.000 N 
ATOM      3  C   UNL     1       4.167   3.916  17.211  0.00  0.00    +0.000 C 
ATOM      4  C   UNL     1       4.797   3.617  18.593  0.00  0.00    +0.000 C 
ATOM      5  N   UNL     1       5.009   4.817  19.457  0.00  0.00    +0.000 NA
ATOM      6  C   UNL     1       5.910   5.695  18.647  0.00  0.00    +0.000 C 
ATOM      7  C   UNL     1       5.347   6.130  17.268  0.00  0.00    +0.000 C 
BRANCH   2  11
ATOM      8  C   UNL     1       6.810   4.101  12.809  0.00  0.00    +0.000 A 
ATOM      9  C   UNL     1       5.554   3.574  13.104  0.00  0.00    +0.000 A 
ATOM     10  C   UNL     1       4.927   3.878  14.317  0.00  0.00    +0.000 A 
ATOM     11  C   UNL     1       5.541   4.692  15.280  0.00  0.00    +0.000 A 
ATOM     12  C   UNL     1       6.812   5.191  14.969  0.00  0.00    +0.000 A 
ATOM     13  C   UNL     1       7.443   4.903  13.753  0.00  0.00    +0.000 A 
BRANCH   8  15
ATOM     14  C   UNL     1       7.180   2.368  11.255  0.00  0.00    +0.000 C 
ATOM     15  O   UNL     1       7.337   3.741  11.600  0.00  0.00    +0.000 OA
ENDBRANCH   8  15
ENDBRANCH   2  11
ENDBRANCH   1   5
BRANCH   1  16
ATOM     16  C   UNL     1       2.609   4.521  20.212  0.00  0.00    +0.000 A 
ATOM     17  C   UNL     1       2.429   3.623  21.250  0.00  0.00    +0.000 A 
ATOM     18  C   UNL     1       1.186   2.983  21.034  0.00  0.00    +0.000 A 
ATOM     19  C   UNL     1       0.686   3.507  19.870  0.00  0.00    +0.000 A 
ATOM     20  O   UNL     1       1.561   4.395  19.338  0.00  0.00    +0.000 OA
ENDBRANCH   1  16
BRANCH   1  21
ATOM     21  C   UNL     1       3.188   6.439  18.682  0.00  0.00    +0.000 C 
BRANCH  21  22
ATOM     22  N   UNL     1       2.310   7.501  19.147  0.00  0.00    +0.000 N 
ATOM     23  C   UNL     1       1.984   8.591  18.368  0.00  0.00    +0.000 C 
ATOM     24  O   UNL     1       2.359   8.787  17.218  0.00  0.00    +0.000 OA
ATOM     25  H   UNL     1       1.914   7.442  20.084  0.00  0.00    +0.000 HD
BRANCH  23  26
ATOM     26  C   UNL     1       1.088   9.629  19.078  0.00  0.00    +0.000 C 
ATOM     27  O   UNL     1       0.724   9.454  20.233  0.00  0.00    +0.000 OA
ATOM     28  N   UNL     1       0.749  10.711  18.293  0.00  0.00    +0.000 N 
ATOM     29  H   UNL     1       1.102  10.716  17.339  0.00  0.00    +0.000 HD
BRANCH  28  30
ATOM     30  C   UNL     1      -0.096  11.785  18.768  0.00  0.00    +0.000 C 
BRANCH  30  31
ATOM     31  C   UNL     1      -1.586  11.441  18.726  0.00  0.00    +0.000 C 
BRANCH  31  32
ATOM     32  C   UNL     1      -2.195  11.433  17.329  0.00  0.00    +0.000 C 
BRANCH  32  33
ATOM     33  O   UNL     1      -1.750  10.308  16.586  0.00  0.00    +0.000 OA
ATOM     34  H   UNL     1      -1.196   9.771  17.192  0.00  0.00    +0.000 HD
ENDBRANCH  32  33
ENDBRANCH  31  32
ENDBRANCH  30  31
ENDBRANCH  28  30
ENDBRANCH  23  26
ENDBRANCH  21  22
ENDBRANCH   1  21
TORSDOF 11
ENDMDL
MODEL 7
REMARK VINA RESULT:      -6.7      2.052      8.722
REMARK  Name = 
REMARK  12 active torsions:
REMARK  status: ('A' for Active; 'I' for Inactive)
REMARK    1  A    between atoms: C_1  and  O_2
REMARK    2  A    between atoms: O_2  and  C_3
REMARK    3  A    between atoms: C_6  and  N_7
REMARK    4  A    between atoms: N_10  and  C_11
REMARK    5  A    between atoms: C_11  and  C_12
REMARK    6  A    between atoms: C_11  and  C_23
REMARK    7  A    between atoms: C_12  and  N_13
REMARK    8  A    between atoms: C_14  and  C_16
REMARK    9  A    between atoms: N_18  and  C_19
REMARK   10  A    between atoms: C_19  and  C_20
REMARK   11  A    between atoms: C_20  and  C_21
REMARK   12  A    between atoms: C_21  and  O_22
REMARK                            x       y       z     vdW  Elec       q    Type
REMARK                         _______ _______ _______ _____ _____    ______ ____
ROOT
ATOM      1  C   UNL     1       2.542   6.134  19.969  0.00  0.00    +0.000 C 
ENDROOT
BRANCH   1   5
ATOM      2  N   UNL     1       4.680   5.284  17.224  0.00  0.00    +0.000 N 
ATOM      3  C   UNL     1       4.681   6.634  17.810  0.00  0.00    +0.000 C 
ATOM      4  C   UNL     1       3.258   7.239  17.857  0.00  0.00    +0.000 C 
ATOM      5  N   UNL     1       2.231   6.376  18.515  0.00  0.00    +0.000 NA
ATOM      6  C   UNL     1       2.241   5.116  17.707  0.00  0.00    +0.000 C 
ATOM      7  C   UNL     1       3.602   4.373  17.655  0.00  0.00    +0.000 C 
BRANCH   2  11
ATOM      8  C   UNL     1       6.724   4.380  13.638  0.00  0.00    +0.000 A 
ATOM      9  C   UNL     1       5.400   3.989  13.823  0.00  0.00    +0.000 A 
ATOM     10  C   UNL     1       4.726   4.309  15.007  0.00  0.00    +0.000 A 
ATOM     11  C   UNL     1       5.358   5.003  16.049  0.00  0.00    +0.000 A 
ATOM     12  C   UNL     1       6.695   5.366  15.848  0.00  0.00    +0.000 A 
ATOM     13  C   UNL     1       7.375   5.061  14.662  0.00  0.00    +0.000 A 
BRANCH   8  15
ATOM     14  C   UNL     1       6.618   2.973  11.750  0.00  0.00    +0.000 C 
ATOM     15  O   UNL     1       7.291   4.015  12.449  0.00  0.00    +0.000 OA
ENDBRANCH   8  15
ENDBRANCH   2  11
ENDBRANCH   1   5
BRANCH   1  16
ATOM     16  C   UNL     1       2.115   4.760  20.462  0.00  0.00    +0.000 A 
ATOM     17  C   UNL     1       0.922   4.058  20.472  0.00  0.00    +0.000 A 
ATOM     18  C   UNL     1       1.174   2.821  21.111  0.00  0.00    +0.000 A 
ATOM     19  C   UNL     1       2.496   2.843  21.474  0.00  0.00    +0.000 A 
ATOM     20  O   UNL     1       3.059   4.029  21.136  0.00  0.00    +0.000 OA
ENDBRANCH   1  16
BRANCH   1  21
ATOM     21  C   UNL     1       1.933   7.234  20.907  0.00  0.00    +0.000 C 
BRANCH  21  22
ATOM     22  N   UNL     1       1.292   8.333  20.204  0.00  0.00    +0.000 N 
ATOM     23  C   UNL     1       0.545   9.295  20.849  0.00  0.00    +0.000 C 
ATOM     24  O   UNL     1       0.351   9.360  22.057  0.00  0.00    +0.000 OA
ATOM     25  H   UNL     1       1.397   8.402  19.193  0.00  0.00    +0.000 HD
BRANCH  23  26
ATOM     26  C   UNL     1      -0.098  10.335  19.905  0.00  0.00    +0.000 C 
ATOM     27  O   UNL     1      -0.876   9.985  19.028  0.00  0.00    +0.000 OA
ATOM     28  N   UNL     1       0.304  11.633  20.140  0.00  0.00    +0.000 N 
ATOM     29  H   UNL     1       0.979  11.778  20.887  0.00  0.00    +0.000 HD
BRANCH  28  30
ATOM     30  C   UNL     1      -0.171  12.751  19.353  0.00  0.00    +0.000 C 
BRANCH  30  31
ATOM     31  C   UNL     1       0.953  13.502  18.637  0.00  0.00    +0.000 C 
BRANCH  31  32
ATOM     32  C   UNL     1       2.291  12.773  18.618  0.00  0.00    +0.000 C 
BRANCH  32  33
ATOM     33  O   UNL     1       2.608  12.326  17.309  0.00  0.00    +0.000 OA
ATOM     34  H   UNL     1       3.393  12.837  17.018  0.00  0.00    +0.000 HD
ENDBRANCH  32  33
ENDBRANCH  31  32
ENDBRANCH  30  31
ENDBRANCH  28  30
ENDBRANCH  23  26
ENDBRANCH  21  22
ENDBRANCH   1  21
TORSDOF 11
ENDMDL
MODEL 8
REMARK VINA RESULT:      -6.6      4.963     11.294
REMARK  Name = 
REMARK  12 active torsions:
REMARK  status: ('A' for Active; 'I' for Inactive)
REMARK    1  A    between atoms: C_1  and  O_2
REMARK    2  A    between atoms: O_2  and  C_3
REMARK    3  A    between atoms: C_6  and  N_7
REMARK    4  A    between atoms: N_10  and  C_11
REMARK    5  A    between atoms: C_11  and  C_12
REMARK    6  A    between atoms: C_11  and  C_23
REMARK    7  A    between atoms: C_12  and  N_13
REMARK    8  A    between atoms: C_14  and  C_16
REMARK    9  A    between atoms: N_18  and  C_19
REMARK   10  A    between atoms: C_19  and  C_20
REMARK   11  A    between atoms: C_20  and  C_21
REMARK   12  A    between atoms: C_21  and  O_22
REMARK                            x       y       z     vdW  Elec       q    Type
REMARK                         _______ _______ _______ _____ _____    ______ ____
ROOT
ATOM      1  C   UNL     1      -0.371  14.055  20.174  0.00  0.00    +0.000 C 
ENDROOT
BRANCH   1   5
ATOM      2  N   UNL     1       0.747  10.721  19.488  0.00  0.00    +0.000 N 
ATOM      3  C   UNL     1      -0.323  10.988  20.462  0.00  0.00    +0.000 C 
ATOM      4  C   UNL     1       0.116  12.023  21.526  0.00  0.00    +0.000 C 
ATOM      5  N   UNL     1       0.659  13.300  20.972  0.00  0.00    +0.000 NA
ATOM      6  C   UNL     1       1.829  12.870  20.144  0.00  0.00    +0.000 C 
ATOM      7  C   UNL     1       1.496  11.890  18.986  0.00  0.00    +0.000 C 
BRANCH   2  11
ATOM      8  C   UNL     1       2.452   6.881  19.045  0.00  0.00    +0.000 A 
ATOM      9  C   UNL     1       2.323   7.735  17.952  0.00  0.00    +0.000 A 
ATOM     10  C   UNL     1       1.774   9.012  18.113  0.00  0.00    +0.000 A 
ATOM     11  C   UNL     1       1.313   9.464  19.358  0.00  0.00    +0.000 A 
ATOM     12  C   UNL     1       1.434   8.579  20.437  0.00  0.00    +0.000 A 
ATOM     13  C   UNL     1       1.993   7.304  20.289  0.00  0.00    +0.000 A 
BRANCH   8  15
ATOM     14  C   UNL     1       2.260   4.847  17.870  0.00  0.00    +0.000 C 
ATOM     15  O   UNL     1       2.997   5.656  18.782  0.00  0.00    +0.000 OA
ENDBRANCH   8  15
ENDBRANCH   2  11
ENDBRANCH   1   5
BRANCH   1  16
ATOM     16  C   UNL     1      -0.007  15.512  19.934  0.00  0.00    +0.000 A 
ATOM     17  C   UNL     1       1.106  16.292  20.196  0.00  0.00    +0.000 A 
ATOM     18  C   UNL     1       0.809  17.602  19.752  0.00  0.00    +0.000 A 
ATOM     19  C   UNL     1      -0.472  17.557  19.265  0.00  0.00    +0.000 A 
ATOM     20  O   UNL     1      -0.992  16.315  19.419  0.00  0.00    +0.000 OA
ENDBRANCH   1  16
BRANCH   1  21
ATOM     21  C   UNL     1      -1.804  13.976  20.808  0.00  0.00    +0.000 C 
BRANCH  21  22
ATOM     22  N   UNL     1      -2.815  13.407  19.932  0.00  0.00    +0.000 N 
ATOM     23  C   UNL     1      -4.037  12.966  20.394  0.00  0.00    +0.000 C 
ATOM     24  O   UNL     1      -4.423  13.015  21.555  0.00  0.00    +0.000 OA
ATOM     25  H   UNL     1      -2.621  13.331  18.935  0.00  0.00    +0.000 HD
BRANCH  23  26
ATOM     26  C   UNL     1      -4.936  12.340  19.304  0.00  0.00    +0.000 C 
ATOM     27  O   UNL     1      -6.048  11.914  19.581  0.00  0.00    +0.000 OA
ATOM     28  N   UNL     1      -4.358  12.301  18.052  0.00  0.00    +0.000 N 
ATOM     29  H   UNL     1      -3.413  12.668  17.970  0.00  0.00    +0.000 HD
BRANCH  28  30
ATOM     30  C   UNL     1      -5.031  11.739  16.901  0.00  0.00    +0.000 C 
BRANCH  30  31
ATOM     31  C   UNL     1      -4.145  10.789  16.093  0.00  0.00    +0.000 C 
BRANCH  31  32
ATOM     32  C   UNL     1      -2.737  10.610  16.646  0.00  0.00    +0.000 C 
BRANCH  32  33
ATOM     33  O   UNL     1      -2.007  11.826  16.583  0.00  0.00    +0.000 OA
ATOM     34  H   UNL     1      -2.117  12.266  17.453  0.00  0.00    +0.000 HD
ENDBRANCH  32  33
ENDBRANCH  31  32
ENDBRANCH  30  31
ENDBRANCH  28  30
ENDBRANCH  23  26
ENDBRANCH  21  22
ENDBRANCH   1  21
TORSDOF 11
ENDMDL
MODEL 9
REMARK VINA RESULT:      -6.6      4.489      9.605
REMARK  Name = 
REMARK  12 active torsions:
REMARK  status: ('A' for Active; 'I' for Inactive)
REMARK    1  A    between atoms: C_1  and  O_2
REMARK    2  A    between atoms: O_2  and  C_3
REMARK    3  A    between atoms: C_6  and  N_7
REMARK    4  A    between atoms: N_10  and  C_11
REMARK    5  A    between atoms: C_11  and  C_12
REMARK    6  A    between atoms: C_11  and  C_23
REMARK    7  A    between atoms: C_12  and  N_13
REMARK    8  A    between atoms: C_14  and  C_16
REMARK    9  A    between atoms: N_18  and  C_19
REMARK   10  A    between atoms: C_19  and  C_20
REMARK   11  A    between atoms: C_20  and  C_21
REMARK   12  A    between atoms: C_21  and  O_22
REMARK                            x       y       z     vdW  Elec       q    Type
REMARK                         _______ _______ _______ _____ _____    ______ ____
ROOT
ATOM      1  C   UNL     1       0.728  11.868  19.655  0.00  0.00    +0.000 C 
ENDROOT
BRANCH   1   5
ATOM      2  N   UNL     1       1.844   8.465  19.599  0.00  0.00    +0.000 N 
ATOM      3  C   UNL     1       1.813   9.284  18.377  0.00  0.00    +0.000 C 
ATOM      4  C   UNL     1       0.418   9.914  18.146  0.00  0.00    +0.000 C 
ATOM      5  N   UNL     1      -0.126  10.677  19.309  0.00  0.00    +0.000 NA
ATOM      6  C   UNL     1      -0.182   9.667  20.413  0.00  0.00    +0.000 C 
ATOM      7  C   UNL     1       1.179   9.025  20.793  0.00  0.00    +0.000 C 
BRANCH   2  11
ATOM      8  C   UNL     1       2.585   4.310  19.409  0.00  0.00    +0.000 A 
ATOM      9  C   UNL     1       2.945   5.148  18.356  0.00  0.00    +0.000 A 
ATOM     10  C   UNL     1       2.711   6.525  18.437  0.00  0.00    +0.000 A 
ATOM     11  C   UNL     1       2.090   7.102  19.554  0.00  0.00    +0.000 A 
ATOM     12  C   UNL     1       1.719   6.237  20.589  0.00  0.00    +0.000 A 
ATOM     13  C   UNL     1       1.959   4.858  20.524  0.00  0.00    +0.000 A 
BRANCH   8  15
ATOM     14  C   UNL     1       4.083   2.531  19.788  0.00  0.00    +0.000 C 
ATOM     15  O   UNL     1       2.853   2.981  19.230  0.00  0.00    +0.000 OA
ENDBRANCH   8  15
ENDBRANCH   2  11
ENDBRANCH   1   5
BRANCH   1  16
ATOM     16  C   UNL     1       0.026  12.881  20.547  0.00  0.00    +0.000 A 
ATOM     17  C   UNL     1      -0.763  13.995  20.320  0.00  0.00    +0.000 A 
ATOM     18  C   UNL     1      -1.088  14.539  21.585  0.00  0.00    +0.000 A 
ATOM     19  C   UNL     1      -0.465  13.743  22.512  0.00  0.00    +0.000 A 
ATOM     20  O   UNL     1       0.254  12.774  21.895  0.00  0.00    +0.000 OA
ENDBRANCH   1  16
BRANCH   1  21
ATOM     21  C   UNL     1       1.290  12.597  18.385  0.00  0.00    +0.000 C 
BRANCH  21  22
ATOM     22  N   UNL     1       2.621  13.157  18.557  0.00  0.00    +0.000 N 
ATOM     23  C   UNL     1       2.866  14.514  18.538  0.00  0.00    +0.000 C 
ATOM     24  O   UNL     1       2.023  15.391  18.401  0.00  0.00    +0.000 OA
ATOM     25  H   UNL     1       3.409  12.527  18.700  0.00  0.00    +0.000 HD
BRANCH  23  26
ATOM     26  C   UNL     1       4.358  14.888  18.676  0.00  0.00    +0.000 C 
ATOM     27  O   UNL     1       4.720  15.715  19.502  0.00  0.00    +0.000 OA
ATOM     28  N   UNL     1       5.188  14.231  17.792  0.00  0.00    +0.000 N 
ATOM     29  H   UNL     1       4.747  13.587  17.140  0.00  0.00    +0.000 HD
BRANCH  28  30
ATOM     30  C   UNL     1       6.617  14.455  17.751  0.00  0.00    +0.000 C 
BRANCH  30  31
ATOM     31  C   UNL     1       7.405  13.224  17.301  0.00  0.00    +0.000 C 
BRANCH  31  32
ATOM     32  C   UNL     1       8.780  13.082  17.943  0.00  0.00    +0.000 C 
BRANCH  32  33
ATOM     33  O   UNL     1       9.791  13.616  17.102  0.00  0.00    +0.000 OA
ATOM     34  H   UNL     1      10.564  13.016  17.175  0.00  0.00    +0.000 HD
ENDBRANCH  32  33
ENDBRANCH  31  32
ENDBRANCH  30  31
ENDBRANCH  28  30
ENDBRANCH  23  26
ENDBRANCH  21  22
ENDBRANCH   1  21
TORSDOF 11
ENDMDL
