MODEL 1
REMARK VINA RESULT:      -8.3      0.000      0.000
REMARK  Name = 
REMARK  6 active torsions:
REMARK  status: ('A' for Active; 'I' for Inactive)
REMARK    1  A    between atoms: C_2  and  C_3
REMARK    2  A    between atoms: C_3  and  C_21
REMARK    3  A    between atoms: C_4  and  C_5
REMARK    4  A    between atoms: C_14  and  N_15
REMARK    5  A    between atoms: N_23  and  C_24
REMARK    6  A    between atoms: C_27  and  N_28
REMARK                            x       y       z     vdW  Elec       q    Type
REMARK                         _______ _______ _______ _____ _____    ______ ____
ROOT
ATOM      1  C   UNL     1       0.153  10.148  20.634  0.00  0.00    +0.000 C 
ATOM      2  C   UNL     1       0.164  10.903  21.754  0.00  0.00    +0.000 C 
ENDROOT
BRANCH   2   3
ATOM      3  C   UNL     1      -0.801  11.998  22.019  0.00  0.00    +0.000 A 
ATOM      4  C   UNL     1      -1.907  11.666  22.821  0.00  0.00    +0.000 A 
ATOM      5  C   UNL     1      -2.812  12.649  23.239  0.00  0.00    +0.000 A 
ATOM      6  C   UNL     1      -3.933  12.356  24.041  0.00  0.00    +0.000 A 
ATOM      7  C   UNL     1      -4.800  13.372  24.441  0.00  0.00    +0.000 A 
ATOM      8  C   UNL     1      -4.547  14.681  24.053  0.00  0.00    +0.000 A 
ATOM      9  C   UNL     1      -3.431  14.965  23.260  0.00  0.00    +0.000 A 
ATOM     10  C   UNL     1      -2.559  13.967  22.838  0.00  0.00    +0.000 A 
ATOM     11  N   UNL     1      -1.510  14.287  22.062  0.00  0.00    +0.000 NA
ATOM     12  C   UNL     1      -0.632  13.345  21.629  0.00  0.00    +0.000 A 
BRANCH  12  13
ATOM     13  N   UNL     1       0.371  13.815  20.812  0.00  0.00    +0.000 N 
ATOM     14  C   UNL     1       0.093  14.003  19.375  0.00  0.00    +0.000 C 
ATOM     15  C   UNL     1       1.260  13.482  18.523  0.00  0.00    +0.000 C 
ATOM     16  O   UNL     1       2.510  14.063  18.926  0.00  0.00    +0.000 OA
ATOM     17  C   UNL     1       2.778  13.733  20.296  0.00  0.00    +0.000 C 
ATOM     18  C   UNL     1       1.692  14.273  21.240  0.00  0.00    +0.000 C 
ENDBRANCH  12  13
ENDBRANCH   2   3
BRANCH   1  19
ATOM     19  C   UNL     1       1.126   9.035  20.456  0.00  0.00    +0.000 C 
ATOM     20  O   UNL     1       1.517   8.439  21.456  0.00  0.00    +0.000 OA
ATOM     21  N   UNL     1       1.535   8.782  19.152  0.00  0.00    +0.000 N 
ATOM     22  H   UNL     1       1.267   9.417  18.408  0.00  0.00    +0.000 HD
BRANCH  21  23
ATOM     23  C   UNL     1       2.395   7.727  18.756  0.00  0.00    +0.000 A 
ATOM     24  C   UNL     1       2.404   6.484  19.383  0.00  0.00    +0.000 A 
ATOM     25  C   UNL     1       3.271   5.467  18.965  0.00  0.00    +0.000 A 
ATOM     26  C   UNL     1       4.166   5.652  17.912  0.00  0.00    +0.000 A 
ATOM     27  C   UNL     1       4.143   6.903  17.280  0.00  0.00    +0.000 A 
ATOM     28  C   UNL     1       3.259   7.924  17.677  0.00  0.00    +0.000 A 
BRANCH  26  29
ATOM     29  N   UNL     1       5.009   4.647  17.455  0.00  0.00    +0.000 N 
ATOM     30  C   UNL     1       6.206   4.254  18.224  0.00  0.00    +0.000 C 
ATOM     31  C   UNL     1       7.492   4.842  17.624  0.00  0.00    +0.000 C 
ATOM     32  O   UNL     1       7.613   4.522  16.229  0.00  0.00    +0.000 OA
ATOM     33  C   UNL     1       6.496   5.063  15.505  0.00  0.00    +0.000 C 
ATOM     34  C   UNL     1       5.159   4.478  15.995  0.00  0.00    +0.000 C 
ENDBRANCH  26  29
ENDBRANCH  21  23
ENDBRANCH   1  19
BRANCH   1  36
ATOM     35  N   UNL     1      -1.721  10.735  18.664  0.00  0.00    +0.000 NA
ATOM     36  C   UNL     1      -0.871  10.469  19.557  0.00  0.00    +0.000 C 
ENDBRANCH   1  36
TORSDOF 6
ENDMDL
MODEL 2
REMARK VINA RESULT:      -8.2      7.542     10.786
REMARK  Name = 
REMARK  6 active torsions:
REMARK  status: ('A' for Active; 'I' for Inactive)
REMARK    1  A    between atoms: C_2  and  C_3
REMARK    2  A    between atoms: C_3  and  C_21
REMARK    3  A    between atoms: C_4  and  C_5
REMARK    4  A    between atoms: C_14  and  N_15
REMARK    5  A    between atoms: N_23  and  C_24
REMARK    6  A    between atoms: C_27  and  N_28
REMARK                            x       y       z     vdW  Elec       q    Type
REMARK                         _______ _______ _______ _____ _____    ______ ____
ROOT
ATOM      1  C   UNL     1       7.128   6.917  18.355  0.00  0.00    +0.000 C 
ATOM      2  C   UNL     1       5.959   6.661  17.728  0.00  0.00    +0.000 C 
ENDROOT
BRANCH   2   3
ATOM      3  C   UNL     1       5.100   5.491  18.035  0.00  0.00    +0.000 A 
ATOM      4  C   UNL     1       4.323   5.585  19.203  0.00  0.00    +0.000 A 
ATOM      5  C   UNL     1       3.384   4.598  19.523  0.00  0.00    +0.000 A 
ATOM      6  C   UNL     1       2.588   4.655  20.685  0.00  0.00    +0.000 A 
ATOM      7  C   UNL     1       1.658   3.652  20.955  0.00  0.00    +0.000 A 
ATOM      8  C   UNL     1       1.511   2.597  20.064  0.00  0.00    +0.000 A 
ATOM      9  C   UNL     1       2.301   2.548  18.911  0.00  0.00    +0.000 A 
ATOM     10  C   UNL     1       3.244   3.530  18.627  0.00  0.00    +0.000 A 
ATOM     11  N   UNL     1       3.993   3.430  17.515  0.00  0.00    +0.000 NA
ATOM     12  C   UNL     1       4.923   4.367  17.198  0.00  0.00    +0.000 A 
BRANCH  12  13
ATOM     13  N   UNL     1       5.638   4.113  16.050  0.00  0.00    +0.000 N 
ATOM     14  C   UNL     1       7.086   4.399  16.031  0.00  0.00    +0.000 C 
ATOM     15  C   UNL     1       7.488   5.084  14.716  0.00  0.00    +0.000 C 
ATOM     16  O   UNL     1       7.057   4.329  13.573  0.00  0.00    +0.000 OA
ATOM     17  C   UNL     1       5.629   4.199  13.588  0.00  0.00    +0.000 C 
ATOM     18  C   UNL     1       5.132   3.462  14.842  0.00  0.00    +0.000 C 
ENDBRANCH  12  13
ENDBRANCH   2   3
BRANCH   1  19
ATOM     19  C   UNL     1       7.917   8.137  18.024  0.00  0.00    +0.000 C 
ATOM     20  O   UNL     1       7.987   8.484  16.848  0.00  0.00    +0.000 OA
ATOM     21  N   UNL     1       8.539   8.770  19.094  0.00  0.00    +0.000 N 
ATOM     22  H   UNL     1       8.541   8.332  20.008  0.00  0.00    +0.000 HD
BRANCH  21  23
ATOM     23  C   UNL     1       9.273   9.980  19.010  0.00  0.00    +0.000 A 
ATOM     24  C   UNL     1       9.656  10.550  17.799  0.00  0.00    +0.000 A 
ATOM     25  C   UNL     1      10.385  11.745  17.757  0.00  0.00    +0.000 A 
ATOM     26  C   UNL     1      10.765  12.413  18.921  0.00  0.00    +0.000 A 
ATOM     27  C   UNL     1      10.366  11.839  20.136  0.00  0.00    +0.000 A 
ATOM     28  C   UNL     1       9.614  10.650  20.188  0.00  0.00    +0.000 A 
BRANCH  26  29
ATOM     29  N   UNL     1      11.454  13.619  18.904  0.00  0.00    +0.000 N 
ATOM     30  C   UNL     1      11.337  14.574  20.024  0.00  0.00    +0.000 C 
ATOM     31  C   UNL     1      10.399  15.742  19.686  0.00  0.00    +0.000 C 
ATOM     32  O   UNL     1      10.783  16.386  18.461  0.00  0.00    +0.000 OA
ATOM     33  C   UNL     1      10.730  15.444  17.377  0.00  0.00    +0.000 C 
ATOM     34  C   UNL     1      11.694  14.264  17.597  0.00  0.00    +0.000 C 
ENDBRANCH  26  29
ENDBRANCH  21  23
ENDBRANCH   1  19
BRANCH   1  36
ATOM     35  N   UNL     1       8.030   5.106  20.262  0.00  0.00    +0.000 NA
ATOM     36  C   UNL     1       7.621   5.927  19.397  0.00  0.00    +0.000 C 
ENDBRANCH   1  36
TORSDOF 6
ENDMDL
MODEL 3
REMARK VINA RESULT:      -8.2      1.112      1.394
REMARK  Name = 
REMARK  6 active torsions:
REMARK  status: ('A' for Active; 'I' for Inactive)
REMARK    1  A    between atoms: C_2  and  C_3
REMARK    2  A    between atoms: C_3  and  C_21
REMARK    3  A    between atoms: C_4  and  C_5
REMARK    4  A    between atoms: C_14  and  N_15
REMARK    5  A    between atoms: N_23  and  C_24
REMARK    6  A    between atoms: C_27  and  N_28
REMARK                            x       y       z     vdW  Elec       q    Type
REMARK                         _______ _______ _______ _____ _____    ______ ____
ROOT
ATOM      1  C   UNL     1      -0.047  10.716  19.497  0.00  0.00    +0.000 C 
ATOM      2  C   UNL     1       0.319  11.124  20.732  0.00  0.00    +0.000 C 
ENDROOT
BRANCH   2   3
ATOM      3  C   UNL     1      -0.403  12.165  21.502  0.00  0.00    +0.000 A 
ATOM      4  C   UNL     1      -1.522  11.728  22.233  0.00  0.00    +0.000 A 
ATOM      5  C   UNL     1      -2.203  12.596  23.095  0.00  0.00    +0.000 A 
ATOM      6  C   UNL     1      -3.329  12.197  23.841  0.00  0.00    +0.000 A 
ATOM      7  C   UNL     1      -3.966  13.096  24.695  0.00  0.00    +0.000 A 
ATOM      8  C   UNL     1      -3.477  14.391  24.815  0.00  0.00    +0.000 A 
ATOM      9  C   UNL     1      -2.357  14.779  24.074  0.00  0.00    +0.000 A 
ATOM     10  C   UNL     1      -1.713  13.904  23.206  0.00  0.00    +0.000 A 
ATOM     11  N   UNL     1      -0.650  14.329  22.501  0.00  0.00    +0.000 NA
ATOM     12  C   UNL     1       0.011  13.508  21.645  0.00  0.00    +0.000 A 
BRANCH  12  13
ATOM     13  N   UNL     1       1.055  14.093  20.966  0.00  0.00    +0.000 N 
ATOM     14  C   UNL     1       0.873  14.449  19.545  0.00  0.00    +0.000 C 
ATOM     15  C   UNL     1       2.112  14.058  18.725  0.00  0.00    +0.000 C 
ATOM     16  O   UNL     1       3.314  14.610  19.286  0.00  0.00    +0.000 OA
ATOM     17  C   UNL     1       3.494  14.121  20.622  0.00  0.00    +0.000 C 
ATOM     18  C   UNL     1       2.329  14.522  21.541  0.00  0.00    +0.000 C 
ENDBRANCH  12  13
ENDBRANCH   2   3
BRANCH   1  19
ATOM     19  C   UNL     1       0.701   9.633  18.800  0.00  0.00    +0.000 C 
ATOM     20  O   UNL     1       0.574   9.528  17.583  0.00  0.00    +0.000 OA
ATOM     21  N   UNL     1       1.467   8.801  19.609  0.00  0.00    +0.000 N 
ATOM     22  H   UNL     1       1.399   8.876  20.618  0.00  0.00    +0.000 HD
BRANCH  21  23
ATOM     23  C   UNL     1       2.309   7.760  19.143  0.00  0.00    +0.000 A 
ATOM     24  C   UNL     1       3.071   7.866  17.982  0.00  0.00    +0.000 A 
ATOM     25  C   UNL     1       3.888   6.813  17.552  0.00  0.00    +0.000 A 
ATOM     26  C   UNL     1       3.971   5.614  18.258  0.00  0.00    +0.000 A 
ATOM     27  C   UNL     1       3.209   5.519  19.431  0.00  0.00    +0.000 A 
ATOM     28  C   UNL     1       2.402   6.580  19.884  0.00  0.00    +0.000 A 
BRANCH  26  29
ATOM     29  N   UNL     1       4.803   4.570  17.872  0.00  0.00    +0.000 N 
ATOM     30  C   UNL     1       6.232   4.565  18.240  0.00  0.00    +0.000 C 
ATOM     31  C   UNL     1       7.129   4.979  17.065  0.00  0.00    +0.000 C 
ATOM     32  O   UNL     1       6.866   4.182  15.899  0.00  0.00    +0.000 OA
ATOM     33  C   UNL     1       5.497   4.348  15.494  0.00  0.00    +0.000 C 
ATOM     34  C   UNL     1       4.517   3.893  16.591  0.00  0.00    +0.000 C 
ENDBRANCH  26  29
ENDBRANCH  21  23
ENDBRANCH   1  19
BRANCH   1  36
ATOM     35  N   UNL     1      -2.219  11.960  18.285  0.00  0.00    +0.000 NA
ATOM     36  C   UNL     1      -1.234  11.396  18.835  0.00  0.00    +0.000 C 
ENDBRANCH   1  36
TORSDOF 6
ENDMDL
MODEL 4
REMARK VINA RESULT:      -8.1      1.196      1.470
REMARK  Name = 
REMARK  6 active torsions:
REMARK  status: ('A' for Active; 'I' for Inactive)
REMARK    1  A    between atoms: C_2  and  C_3
REMARK    2  A    between atoms: C_3  and  C_21
REMARK    3  A    between atoms: C_4  and  C_5
REMARK    4  A    between atoms: C_14  and  N_15
REMARK    5  A    between atoms: N_23  and  C_24
REMARK    6  A    between atoms: C_27  and  N_28
REMARK                            x       y       z     vdW  Elec       q    Type
REMARK                         _______ _______ _______ _____ _____    ______ ____
ROOT
ATOM      1  C   UNL     1      -0.048  10.667  19.364  0.00  0.00    +0.000 C 
ATOM      2  C   UNL     1       0.308  11.080  20.600  0.00  0.00    +0.000 C 
ENDROOT
BRANCH   2   3
ATOM      3  C   UNL     1      -0.411  12.134  21.355  0.00  0.00    +0.000 A 
ATOM      4  C   UNL     1      -1.492  11.701  22.144  0.00  0.00    +0.000 A 
ATOM      5  C   UNL     1      -2.163  12.588  22.995  0.00  0.00    +0.000 A 
ATOM      6  C   UNL     1      -3.250  12.192  23.798  0.00  0.00    +0.000 A 
ATOM      7  C   UNL     1      -3.879  13.110  24.638  0.00  0.00    +0.000 A 
ATOM      8  C   UNL     1      -3.419  14.420  24.688  0.00  0.00    +0.000 A 
ATOM      9  C   UNL     1      -2.337  14.804  23.890  0.00  0.00    +0.000 A 
ATOM     10  C   UNL     1      -1.702  13.910  23.035  0.00  0.00    +0.000 A 
ATOM     11  N   UNL     1      -0.677  14.331  22.275  0.00  0.00    +0.000 NA
ATOM     12  C   UNL     1      -0.027  13.491  21.429  0.00  0.00    +0.000 A 
BRANCH  12  13
ATOM     13  N   UNL     1       0.977  14.072  20.688  0.00  0.00    +0.000 N 
ATOM     14  C   UNL     1       2.304  14.263  21.307  0.00  0.00    +0.000 C 
ATOM     15  C   UNL     1       2.866  15.652  20.969  0.00  0.00    +0.000 C 
ATOM     16  O   UNL     1       2.875  15.889  19.552  0.00  0.00    +0.000 OA
ATOM     17  C   UNL     1       1.538  15.814  19.039  0.00  0.00    +0.000 C 
ATOM     18  C   UNL     1       0.911  14.430  19.272  0.00  0.00    +0.000 C 
ENDBRANCH  12  13
ENDBRANCH   2   3
BRANCH   1  19
ATOM     19  C   UNL     1       0.696   9.571  18.684  0.00  0.00    +0.000 C 
ATOM     20  O   UNL     1       0.515   9.403  17.481  0.00  0.00    +0.000 OA
ATOM     21  N   UNL     1       1.524   8.800  19.493  0.00  0.00    +0.000 N 
ATOM     22  H   UNL     1       1.502   8.923  20.499  0.00  0.00    +0.000 HD
BRANCH  21  23
ATOM     23  C   UNL     1       2.372   7.760  19.036  0.00  0.00    +0.000 A 
ATOM     24  C   UNL     1       2.477   6.532  19.683  0.00  0.00    +0.000 A 
ATOM     25  C   UNL     1       3.329   5.529  19.203  0.00  0.00    +0.000 A 
ATOM     26  C   UNL     1       4.112   5.715  18.065  0.00  0.00    +0.000 A 
ATOM     27  C   UNL     1       3.992   6.951  17.413  0.00  0.00    +0.000 A 
ATOM     28  C   UNL     1       3.122   7.956  17.874  0.00  0.00    +0.000 A 
BRANCH  26  29
ATOM     29  N   UNL     1       4.936   4.723  17.548  0.00  0.00    +0.000 N 
ATOM     30  C   UNL     1       6.150   4.294  18.269  0.00  0.00    +0.000 C 
ATOM     31  C   UNL     1       7.424   4.896  17.658  0.00  0.00    +0.000 C 
ATOM     32  O   UNL     1       7.506   4.629  16.249  0.00  0.00    +0.000 OA
ATOM     33  C   UNL     1       6.374   5.204  15.576  0.00  0.00    +0.000 C 
ATOM     34  C   UNL     1       5.046   4.609  16.079  0.00  0.00    +0.000 C 
ENDBRANCH  26  29
ENDBRANCH  21  23
ENDBRANCH   1  19
BRANCH   1  36
ATOM     35  N   UNL     1      -2.193  11.925  18.118  0.00  0.00    +0.000 NA
ATOM     36  C   UNL     1      -1.220  11.355  18.683  0.00  0.00    +0.000 C 
ENDBRANCH   1  36
TORSDOF 6
ENDMDL
MODEL 5
REMARK VINA RESULT:      -8.0      0.487      1.282
REMARK  Name = 
REMARK  6 active torsions:
REMARK  status: ('A' for Active; 'I' for Inactive)
REMARK    1  A    between atoms: C_2  and  C_3
REMARK    2  A    between atoms: C_3  and  C_21
REMARK    3  A    between atoms: C_4  and  C_5
REMARK    4  A    between atoms: C_14  and  N_15
REMARK    5  A    between atoms: N_23  and  C_24
REMARK    6  A    between atoms: C_27  and  N_28
REMARK                            x       y       z     vdW  Elec       q    Type
REMARK                         _______ _______ _______ _____ _____    ______ ____
ROOT
ATOM      1  C   UNL     1       0.130  10.226  20.577  0.00  0.00    +0.000 C 
ATOM      2  C   UNL     1       0.147  11.003  21.682  0.00  0.00    +0.000 C 
ENDROOT
BRANCH   2   3
ATOM      3  C   UNL     1      -0.847  12.070  21.952  0.00  0.00    +0.000 A 
ATOM      4  C   UNL     1      -1.943  11.705  22.754  0.00  0.00    +0.000 A 
ATOM      5  C   UNL     1      -2.874  12.660  23.178  0.00  0.00    +0.000 A 
ATOM      6  C   UNL     1      -3.985  12.333  23.980  0.00  0.00    +0.000 A 
ATOM      7  C   UNL     1      -4.880  13.322  24.385  0.00  0.00    +0.000 A 
ATOM      8  C   UNL     1      -4.664  14.640  24.002  0.00  0.00    +0.000 A 
ATOM      9  C   UNL     1      -3.557  14.958  23.210  0.00  0.00    +0.000 A 
ATOM     10  C   UNL     1      -2.658  13.987  22.782  0.00  0.00    +0.000 A 
ATOM     11  N   UNL     1      -1.619  14.338  22.006  0.00  0.00    +0.000 NA
ATOM     12  C   UNL     1      -0.716  13.423  21.569  0.00  0.00    +0.000 A 
BRANCH  12  13
ATOM     13  N   UNL     1       0.273  13.924  20.752  0.00  0.00    +0.000 N 
ATOM     14  C   UNL     1       1.572  14.295  21.347  0.00  0.00    +0.000 C 
ATOM     15  C   UNL     1       2.066  15.634  20.780  0.00  0.00    +0.000 C 
ATOM     16  O   UNL     1       2.097  15.622  19.344  0.00  0.00    +0.000 OA
ATOM     17  C   UNL     1       0.778  15.383  18.833  0.00  0.00    +0.000 C 
ATOM     18  C   UNL     1       0.221  14.027  19.295  0.00  0.00    +0.000 C 
ENDBRANCH  12  13
ENDBRANCH   2   3
BRANCH   1  19
ATOM     19  C   UNL     1       1.136   9.143  20.393  0.00  0.00    +0.000 C 
ATOM     20  O   UNL     1       1.581   8.586  21.394  0.00  0.00    +0.000 OA
ATOM     21  N   UNL     1       1.511   8.872  19.082  0.00  0.00    +0.000 N 
ATOM     22  H   UNL     1       1.197   9.478  18.333  0.00  0.00    +0.000 HD
BRANCH  21  23
ATOM     23  C   UNL     1       2.395   7.837  18.683  0.00  0.00    +0.000 A 
ATOM     24  C   UNL     1       3.283   7.970  17.620  0.00  0.00    +0.000 A 
ATOM     25  C   UNL     1       4.138   6.924  17.253  0.00  0.00    +0.000 A 
ATOM     26  C   UNL     1       4.135   5.704  17.928  0.00  0.00    +0.000 A 
ATOM     27  C   UNL     1       3.245   5.582  19.004  0.00  0.00    +0.000 A 
ATOM     28  C   UNL     1       2.398   6.636  19.395  0.00  0.00    +0.000 A 
BRANCH  26  29
ATOM     29  N   UNL     1       4.999   4.664  17.607  0.00  0.00    +0.000 N 
ATOM     30  C   UNL     1       6.201   4.400  18.423  0.00  0.00    +0.000 C 
ATOM     31  C   UNL     1       7.477   4.930  17.753  0.00  0.00    +0.000 C 
ATOM     32  O   UNL     1       7.610   4.432  16.412  0.00  0.00    +0.000 OA
ATOM     33  C   UNL     1       6.485   4.852  15.621  0.00  0.00    +0.000 C 
ATOM     34  C   UNL     1       5.158   4.309  16.182  0.00  0.00    +0.000 C 
ENDBRANCH  26  29
ENDBRANCH  21  23
ENDBRANCH   1  19
BRANCH   1  36
ATOM     35  N   UNL     1      -1.817  10.708  18.651  0.00  0.00    +0.000 NA
ATOM     36  C   UNL     1      -0.934  10.489  19.524  0.00  0.00    +0.000 C 
ENDBRANCH   1  36
TORSDOF 6
ENDMDL
MODEL 6
REMARK VINA RESULT:      -8.0      1.279      1.802
REMARK  Name = 
REMARK  6 active torsions:
REMARK  status: ('A' for Active; 'I' for Inactive)
REMARK    1  A    between atoms: C_2  and  C_3
REMARK    2  A    between atoms: C_3  and  C_21
REMARK    3  A    between atoms: C_4  and  C_5
REMARK    4  A    between atoms: C_14  and  N_15
REMARK    5  A    between atoms: N_23  and  C_24
REMARK    6  A    between atoms: C_27  and  N_28
REMARK                            x       y       z     vdW  Elec       q    Type
REMARK                         _______ _______ _______ _____ _____    ______ ____
ROOT
ATOM      1  C   UNL     1       0.463  10.993  19.197  0.00  0.00    +0.000 C 
ATOM      2  C   UNL     1       0.679  11.482  20.438  0.00  0.00    +0.000 C 
ENDROOT
BRANCH   2   3
ATOM      3  C   UNL     1      -0.255  12.399  21.135  0.00  0.00    +0.000 A 
ATOM      4  C   UNL     1      -1.226  11.789  21.950  0.00  0.00    +0.000 A 
ATOM      5  C   UNL     1      -2.078  12.558  22.752  0.00  0.00    +0.000 A 
ATOM      6  C   UNL     1      -3.063  11.985  23.579  0.00  0.00    +0.000 A 
ATOM      7  C   UNL     1      -3.881  12.792  24.369  0.00  0.00    +0.000 A 
ATOM      8  C   UNL     1      -3.710  14.171  24.345  0.00  0.00    +0.000 A 
ATOM      9  C   UNL     1      -2.727  14.732  23.525  0.00  0.00    +0.000 A 
ATOM     10  C   UNL     1      -1.909  13.949  22.718  0.00  0.00    +0.000 A 
ATOM     11  N   UNL     1      -0.990  14.536  21.933  0.00  0.00    +0.000 NA
ATOM     12  C   UNL     1      -0.168  13.808  21.133  0.00  0.00    +0.000 A 
BRANCH  12  13
ATOM     13  N   UNL     1       0.695  14.548  20.358  0.00  0.00    +0.000 N 
ATOM     14  C   UNL     1       2.021  14.903  20.904  0.00  0.00    +0.000 C 
ATOM     15  C   UNL     1       2.363  16.367  20.590  0.00  0.00    +0.000 C 
ATOM     16  O   UNL     1       2.248  16.649  19.186  0.00  0.00    +0.000 OA
ATOM     17  C   UNL     1       0.903  16.404  18.752  0.00  0.00    +0.000 C 
ATOM     18  C   UNL     1       0.489  14.939  18.965  0.00  0.00    +0.000 C 
ENDBRANCH  12  13
ENDBRANCH   2   3
BRANCH   1  19
ATOM     19  C   UNL     1       1.425  10.040  18.576  0.00  0.00    +0.000 C 
ATOM     20  O   UNL     1       2.046  10.406  17.582  0.00  0.00    +0.000 OA
ATOM     21  N   UNL     1       1.515   8.787  19.172  0.00  0.00    +0.000 N 
ATOM     22  H   UNL     1       0.861   8.528  19.902  0.00  0.00    +0.000 HD
BRANCH  21  23
ATOM     23  C   UNL     1       2.416   7.764  18.785  0.00  0.00    +0.000 A 
ATOM     24  C   UNL     1       3.198   7.838  17.636  0.00  0.00    +0.000 A 
ATOM     25  C   UNL     1       4.075   6.804  17.285  0.00  0.00    +0.000 A 
ATOM     26  C   UNL     1       4.200   5.654  18.064  0.00  0.00    +0.000 A 
ATOM     27  C   UNL     1       3.417   5.591  19.225  0.00  0.00    +0.000 A 
ATOM     28  C   UNL     1       2.551   6.636  19.598  0.00  0.00    +0.000 A 
BRANCH  26  29
ATOM     29  N   UNL     1       5.090   4.632  17.758  0.00  0.00    +0.000 N 
ATOM     30  C   UNL     1       6.295   4.405  18.580  0.00  0.00    +0.000 C 
ATOM     31  C   UNL     1       7.561   4.957  17.909  0.00  0.00    +0.000 C 
ATOM     32  O   UNL     1       7.710   4.449  16.574  0.00  0.00    +0.000 OA
ATOM     33  C   UNL     1       6.579   4.833  15.775  0.00  0.00    +0.000 C 
ATOM     34  C   UNL     1       5.263   4.265  16.337  0.00  0.00    +0.000 C 
ENDBRANCH  26  29
ENDBRANCH  21  23
ENDBRANCH   1  19
BRANCH   1  36
ATOM     35  N   UNL     1      -1.811  11.822  17.828  0.00  0.00    +0.000 NA
ATOM     36  C   UNL     1      -0.780  11.446  18.449  0.00  0.00    +0.000 C 
ENDBRANCH   1  36
TORSDOF 6
ENDMDL
MODEL 7
REMARK VINA RESULT:      -7.9      7.955     11.036
REMARK  Name = 
REMARK  6 active torsions:
REMARK  status: ('A' for Active; 'I' for Inactive)
REMARK    1  A    between atoms: C_2  and  C_3
REMARK    2  A    between atoms: C_3  and  C_21
REMARK    3  A    between atoms: C_4  and  C_5
REMARK    4  A    between atoms: C_14  and  N_15
REMARK    5  A    between atoms: N_23  and  C_24
REMARK    6  A    between atoms: C_27  and  N_28
REMARK                            x       y       z     vdW  Elec       q    Type
REMARK                         _______ _______ _______ _____ _____    ______ ____
ROOT
ATOM      1  C   UNL     1       7.162   7.199  18.040  0.00  0.00    +0.000 C 
ATOM      2  C   UNL     1       5.990   6.964  17.410  0.00  0.00    +0.000 C 
ENDROOT
BRANCH   2   3
ATOM      3  C   UNL     1       5.261   5.674  17.482  0.00  0.00    +0.000 A 
ATOM      4  C   UNL     1       4.612   5.399  18.699  0.00  0.00    +0.000 A 
ATOM      5  C   UNL     1       3.791   4.274  18.837  0.00  0.00    +0.000 A 
ATOM      6  C   UNL     1       3.125   3.964  20.039  0.00  0.00    +0.000 A 
ATOM      7  C   UNL     1       2.309   2.836  20.125  0.00  0.00    +0.000 A 
ATOM      8  C   UNL     1       2.146   2.023  19.010  0.00  0.00    +0.000 A 
ATOM      9  C   UNL     1       2.806   2.339  17.820  0.00  0.00    +0.000 A 
ATOM     10  C   UNL     1       3.636   3.450  17.714  0.00  0.00    +0.000 A 
ATOM     11  N   UNL     1       4.263   3.704  16.553  0.00  0.00    +0.000 NA
ATOM     12  C   UNL     1       5.080   4.779  16.405  0.00  0.00    +0.000 A 
BRANCH  12  13
ATOM     13  N   UNL     1       5.682   4.888  15.173  0.00  0.00    +0.000 N 
ATOM     14  C   UNL     1       4.986   4.352  13.986  0.00  0.00    +0.000 C 
ATOM     15  C   UNL     1       5.965   3.589  13.081  0.00  0.00    +0.000 C 
ATOM     16  O   UNL     1       7.106   4.392  12.739  0.00  0.00    +0.000 OA
ATOM     17  C   UNL     1       7.807   4.771  13.932  0.00  0.00    +0.000 C 
ATOM     18  C   UNL     1       6.924   5.601  14.877  0.00  0.00    +0.000 C 
ENDBRANCH  12  13
ENDBRANCH   2   3
BRANCH   1  19
ATOM     19  C   UNL     1       7.815   8.535  17.958  0.00  0.00    +0.000 C 
ATOM     20  O   UNL     1       7.542   9.259  17.005  0.00  0.00    +0.000 OA
ATOM     21  N   UNL     1       8.716   8.839  18.973  0.00  0.00    +0.000 N 
ATOM     22  H   UNL     1       8.983   8.123  19.640  0.00  0.00    +0.000 HD
BRANCH  21  23
ATOM     23  C   UNL     1       9.388  10.078  19.124  0.00  0.00    +0.000 A 
ATOM     24  C   UNL     1       9.512  10.726  20.349  0.00  0.00    +0.000 A 
ATOM     25  C   UNL     1      10.181  11.952  20.458  0.00  0.00    +0.000 A 
ATOM     26  C   UNL     1      10.744  12.580  19.348  0.00  0.00    +0.000 A 
ATOM     27  C   UNL     1      10.623  11.916  18.119  0.00  0.00    +0.000 A 
ATOM     28  C   UNL     1       9.974  10.673  18.004  0.00  0.00    +0.000 A 
BRANCH  26  29
ATOM     29  N   UNL     1      11.444  13.777  19.436  0.00  0.00    +0.000 N 
ATOM     30  C   UNL     1      10.939  14.892  20.261  0.00  0.00    +0.000 C 
ATOM     31  C   UNL     1      10.277  15.984  19.407  0.00  0.00    +0.000 C 
ATOM     32  O   UNL     1      11.154  16.435  18.362  0.00  0.00    +0.000 OA
ATOM     33  C   UNL     1      11.489  15.336  17.498  0.00  0.00    +0.000 C 
ATOM     34  C   UNL     1      12.221  14.214  18.257  0.00  0.00    +0.000 C 
ENDBRANCH  26  29
ENDBRANCH  21  23
ENDBRANCH   1  19
BRANCH   1  36
ATOM     35  N   UNL     1       8.328   5.125  19.479  0.00  0.00    +0.000 NA
ATOM     36  C   UNL     1       7.799   6.065  18.826  0.00  0.00    +0.000 C 
ENDBRANCH   1  36
TORSDOF 6
ENDMDL
MODEL 8
REMARK VINA RESULT:      -7.9      2.261      3.228
REMARK  Name = 
REMARK  6 active torsions:
REMARK  status: ('A' for Active; 'I' for Inactive)
REMARK    1  A    between atoms: C_2  and  C_3
REMARK    2  A    between atoms: C_3  and  C_21
REMARK    3  A    between atoms: C_4  and  C_5
REMARK    4  A    between atoms: C_14  and  N_15
REMARK    5  A    between atoms: N_23  and  C_24
REMARK    6  A    between atoms: C_27  and  N_28
REMARK                            x       y       z     vdW  Elec       q    Type
REMARK                         _______ _______ _______ _____ _____    ______ ____
ROOT
ATOM      1  C   UNL     1       0.261  10.951  21.395  0.00  0.00    +0.000 C 
ATOM      2  C   UNL     1      -1.061  10.874  21.663  0.00  0.00    +0.000 C 
ENDROOT
BRANCH   2   3
ATOM      3  C   UNL     1      -1.942  12.059  21.803  0.00  0.00    +0.000 A 
ATOM      4  C   UNL     1      -2.028  12.616  23.091  0.00  0.00    +0.000 A 
ATOM      5  C   UNL     1      -2.728  13.808  23.314  0.00  0.00    +0.000 A 
ATOM      6  C   UNL     1      -2.838  14.396  24.589  0.00  0.00    +0.000 A 
ATOM      7  C   UNL     1      -3.537  15.590  24.759  0.00  0.00    +0.000 A 
ATOM      8  C   UNL     1      -4.118  16.206  23.657  0.00  0.00    +0.000 A 
ATOM      9  C   UNL     1      -4.001  15.619  22.394  0.00  0.00    +0.000 A 
ATOM     10  C   UNL     1      -3.320  14.421  22.202  0.00  0.00    +0.000 A 
ATOM     11  N   UNL     1      -3.250  13.887  20.971  0.00  0.00    +0.000 NA
ATOM     12  C   UNL     1      -2.593  12.721  20.739  0.00  0.00    +0.000 A 
BRANCH  12  13
ATOM     13  N   UNL     1      -2.637  12.277  19.437  0.00  0.00    +0.000 N 
ATOM     14  C   UNL     1      -3.945  11.934  18.842  0.00  0.00    +0.000 C 
ATOM     15  C   UNL     1      -3.850  10.629  18.038  0.00  0.00    +0.000 C 
ATOM     16  O   UNL     1      -2.795  10.682  17.065  0.00  0.00    +0.000 OA
ATOM     17  C   UNL     1      -1.538  10.890  17.723  0.00  0.00    +0.000 C 
ATOM     18  C   UNL     1      -1.512  12.213  18.506  0.00  0.00    +0.000 C 
ENDBRANCH  12  13
ENDBRANCH   2   3
BRANCH   1  19
ATOM     19  C   UNL     1       1.076   9.716  21.225  0.00  0.00    +0.000 C 
ATOM     20  O   UNL     1       1.642   9.251  22.211  0.00  0.00    +0.000 OA
ATOM     21  N   UNL     1       1.150   9.205  19.934  0.00  0.00    +0.000 N 
ATOM     22  H   UNL     1       0.766   9.735  19.159  0.00  0.00    +0.000 HD
BRANCH  21  23
ATOM     23  C   UNL     1       1.809   8.004  19.568  0.00  0.00    +0.000 A 
ATOM     24  C   UNL     1       1.770   6.853  20.349  0.00  0.00    +0.000 A 
ATOM     25  C   UNL     1       2.437   5.686  19.955  0.00  0.00    +0.000 A 
ATOM     26  C   UNL     1       3.173   5.626  18.773  0.00  0.00    +0.000 A 
ATOM     27  C   UNL     1       3.198   6.786  17.987  0.00  0.00    +0.000 A 
ATOM     28  C   UNL     1       2.512   7.957  18.362  0.00  0.00    +0.000 A 
BRANCH  26  29
ATOM     29  N   UNL     1       3.812   4.469  18.342  0.00  0.00    +0.000 N 
ATOM     30  C   UNL     1       3.226   3.633  17.275  0.00  0.00    +0.000 C 
ATOM     31  C   UNL     1       2.540   2.380  17.839  0.00  0.00    +0.000 C 
ATOM     32  O   UNL     1       3.426   1.635  18.689  0.00  0.00    +0.000 OA
ATOM     33  C   UNL     1       3.842   2.451  19.797  0.00  0.00    +0.000 C 
ATOM     34  C   UNL     1       4.603   3.706  19.329  0.00  0.00    +0.000 C 
ENDBRANCH  26  29
ENDBRANCH  21  23
ENDBRANCH   1  19
BRANCH   1  36
ATOM     35  N   UNL     1       1.423  13.469  21.187  0.00  0.00    +0.000 NA
ATOM     36  C   UNL     1       0.896  12.327  21.281  0.00  0.00    +0.000 C 
ENDBRANCH   1  36
TORSDOF 6
ENDMDL
MODEL 9
REMARK VINA RESULT:      -7.8      1.698      2.042
REMARK  Name = 
REMARK  6 active torsions:
REMARK  status: ('A' for Active; 'I' for Inactive)
REMARK    1  A    between atoms: C_2  and  C_3
REMARK    2  A    between atoms: C_3  and  C_21
REMARK    3  A    between atoms: C_4  and  C_5
REMARK    4  A    between atoms: C_14  and  N_15
REMARK    5  A    between atoms: N_23  and  C_24
REMARK    6  A    between atoms: C_27  and  N_28
REMARK                            x       y       z     vdW  Elec       q    Type
REMARK                         _______ _______ _______ _____ _____    ______ ____
ROOT
ATOM      1  C   UNL     1       0.216  10.732  19.631  0.00  0.00    +0.000 C 
ATOM      2  C   UNL     1      -0.557  11.623  18.971  0.00  0.00    +0.000 C 
ENDROOT
BRANCH   2   3
ATOM      3  C   UNL     1      -1.458  12.589  19.646  0.00  0.00    +0.000 A 
ATOM      4  C   UNL     1      -2.813  12.219  19.723  0.00  0.00    +0.000 A 
ATOM      5  C   UNL     1      -3.729  12.992  20.446  0.00  0.00    +0.000 A 
ATOM      6  C   UNL     1      -5.094  12.656  20.545  0.00  0.00    +0.000 A 
ATOM      7  C   UNL     1      -5.966  13.452  21.287  0.00  0.00    +0.000 A 
ATOM      8  C   UNL     1      -5.478  14.576  21.941  0.00  0.00    +0.000 A 
ATOM      9  C   UNL     1      -4.122  14.901  21.842  0.00  0.00    +0.000 A 
ATOM     10  C   UNL     1      -3.236  14.131  21.097  0.00  0.00    +0.000 A 
ATOM     11  N   UNL     1      -1.944  14.493  21.017  0.00  0.00    +0.000 NA
ATOM     12  C   UNL     1      -1.044  13.768  20.304  0.00  0.00    +0.000 A 
BRANCH  12  13
ATOM     13  N   UNL     1       0.232  14.282  20.282  0.00  0.00    +0.000 N 
ATOM     14  C   UNL     1       0.627  15.171  19.171  0.00  0.00    +0.000 C 
ATOM     15  C   UNL     1       2.032  14.815  18.665  0.00  0.00    +0.000 C 
ATOM     16  O   UNL     1       2.993  14.802  19.733  0.00  0.00    +0.000 OA
ATOM     17  C   UNL     1       2.614  13.826  20.714  0.00  0.00    +0.000 C 
ATOM     18  C   UNL     1       1.241  14.136  21.330  0.00  0.00    +0.000 C 
ENDBRANCH  12  13
ENDBRANCH   2   3
BRANCH   1  19
ATOM     19  C   UNL     1       1.131   9.822  18.888  0.00  0.00    +0.000 C 
ATOM     20  O   UNL     1       1.532  10.175  17.782  0.00  0.00    +0.000 OA
ATOM     21  N   UNL     1       1.433   8.617  19.511  0.00  0.00    +0.000 N 
ATOM     22  H   UNL     1       0.944   8.351  20.359  0.00  0.00    +0.000 HD
BRANCH  21  23
ATOM     23  C   UNL     1       2.337   7.644  19.013  0.00  0.00    +0.000 A 
ATOM     24  C   UNL     1       3.093   7.836  17.861  0.00  0.00    +0.000 A 
ATOM     25  C   UNL     1       3.973   6.850  17.397  0.00  0.00    +0.000 A 
ATOM     26  C   UNL     1       4.126   5.634  18.061  0.00  0.00    +0.000 A 
ATOM     27  C   UNL     1       3.368   5.452  19.226  0.00  0.00    +0.000 A 
ATOM     28  C   UNL     1       2.499   6.447  19.713  0.00  0.00    +0.000 A 
BRANCH  26  29
ATOM     29  N   UNL     1       5.020   4.655  17.643  0.00  0.00    +0.000 N 
ATOM     30  C   UNL     1       6.253   4.379  18.407  0.00  0.00    +0.000 C 
ATOM     31  C   UNL     1       7.489   5.007  17.747  0.00  0.00    +0.000 C 
ATOM     32  O   UNL     1       7.604   4.615  16.370  0.00  0.00    +0.000 OA
ATOM     33  C   UNL     1       6.443   5.047  15.641  0.00  0.00    +0.000 C 
ATOM     34  C   UNL     1       5.153   4.413  16.192  0.00  0.00    +0.000 C 
ENDBRANCH  26  29
ENDBRANCH  21  23
ENDBRANCH   1  19
BRANCH   1  36
ATOM     35  N   UNL     1       0.043  10.632  22.405  0.00  0.00    +0.000 NA
ATOM     36  C   UNL     1       0.121  10.677  21.147  0.00  0.00    +0.000 C 
ENDBRANCH   1  36
TORSDOF 6
ENDMDL
