MODEL 1
REMARK VINA RESULT:      -8.3      0.000      0.000
REMARK  Name = 
REMARK  4 active torsions:
REMARK  status: ('A' for Active; 'I' for Inactive)
REMARK    1  A    between atoms: C_1  and  C_2
REMARK    2  A    between atoms: C_6  and  C_7
REMARK    3  A    between atoms: C_12  and  C_13
REMARK    4  A    between atoms: C_14  and  C_15
REMARK                            x       y       z     vdW  Elec       q    Type
REMARK                         _______ _______ _______ _____ _____    ______ ____
ROOT
ATOM      1  C   UNL     1       1.999   2.669  21.637  0.00  0.00    +0.000 C 
ATOM      2  C   UNL     1       2.340   3.772  20.675  0.00  0.00    +0.000 A 
ATOM      3  C   UNL     1       3.134   3.544  19.609  0.00  0.00    +0.000 A 
ATOM      4  N   UNL     1       3.498   4.609  18.804  0.00  0.00    +0.000 N 
ATOM      5  C   UNL     1       4.350   4.667  17.727  0.00  0.00    +0.000 A 
ATOM      6  C   UNL     1       4.512   5.999  17.367  0.00  0.00    +0.000 A 
ATOM      7  C   UNL     1       3.609   6.745  18.188  0.00  0.00    +0.000 A 
ATOM      8  C   UNL     1       3.041   5.869  19.082  0.00  0.00    +0.000 A 
ATOM      9  C   UNL     1       2.168   6.021  20.209  0.00  0.00    +0.000 A 
ATOM     10  N   UNL     1       1.825   5.030  20.981  0.00  0.00    +0.000 NA
ENDROOT
BRANCH   6  11
ATOM     11  C   UNL     1       5.427   6.573  16.391  0.00  0.00    +0.000 C 
ATOM     12  N   UNL     1       6.557   7.154  16.885  0.00  0.00    +0.000 N 
ATOM     13  O   UNL     1       5.194   6.588  15.187  0.00  0.00    +0.000 OA
ATOM     14  H   UNL     1       6.743   7.248  17.870  0.00  0.00    +0.000 HD
ATOM     15  H   UNL     1       7.138   7.652  16.225  0.00  0.00    +0.000 HD
ENDBRANCH   6  11
BRANCH   9  16
ATOM     16  C   UNL     1       1.623   7.289  20.621  0.00  0.00    +0.000 C 
ATOM     17  C   UNL     1       1.114   8.297  21.037  0.00  0.00    +0.000 C 
BRANCH  17  18
ATOM     18  C   UNL     1       0.459   9.458  21.558  0.00  0.00    +0.000 A 
ATOM     19  C   UNL     1      -0.341   9.358  22.702  0.00  0.00    +0.000 A 
ATOM     20  C   UNL     1      -1.010  10.483  23.194  0.00  0.00    +0.000 A 
ATOM     21  C   UNL     1      -0.882  11.715  22.549  0.00  0.00    +0.000 A 
ATOM     22  C   UNL     1      -0.076  11.822  21.415  0.00  0.00    +0.000 A 
ATOM     23  C   UNL     1       0.587  10.697  20.928  0.00  0.00    +0.000 A 
ATOM     24  F   UNL     1       1.350  10.828  19.834  0.00  0.00    +0.000 F 
ENDBRANCH  17  18
ENDBRANCH   9  16
TORSDOF 3
ENDMDL
MODEL 2
REMARK VINA RESULT:      -8.1      3.615      7.768
REMARK  Name = 
REMARK  4 active torsions:
REMARK  status: ('A' for Active; 'I' for Inactive)
REMARK    1  A    between atoms: C_1  and  C_2
REMARK    2  A    between atoms: C_6  and  C_7
REMARK    3  A    between atoms: C_12  and  C_13
REMARK    4  A    between atoms: C_14  and  C_15
REMARK                            x       y       z     vdW  Elec       q    Type
REMARK                         _______ _______ _______ _____ _____    ______ ____
ROOT
ATOM      1  C   UNL     1       2.827   2.824  20.861  0.00  0.00    +0.000 C 
ATOM      2  C   UNL     1       3.002   4.050  20.009  0.00  0.00    +0.000 A 
ATOM      3  C   UNL     1       2.457   5.231  20.368  0.00  0.00    +0.000 A 
ATOM      4  N   UNL     1       2.564   6.308  19.507  0.00  0.00    +0.000 N 
ATOM      5  C   UNL     1       2.035   7.574  19.588  0.00  0.00    +0.000 A 
ATOM      6  C   UNL     1       2.290   8.232  18.390  0.00  0.00    +0.000 A 
ATOM      7  C   UNL     1       3.121   7.357  17.624  0.00  0.00    +0.000 A 
ATOM      8  C   UNL     1       3.230   6.175  18.318  0.00  0.00    +0.000 A 
ATOM      9  C   UNL     1       3.817   4.900  18.029  0.00  0.00    +0.000 A 
ATOM     10  N   UNL     1       3.716   3.874  18.825  0.00  0.00    +0.000 NA
ENDROOT
BRANCH   6  11
ATOM     11  C   UNL     1       1.800   9.529  17.943  0.00  0.00    +0.000 C 
ATOM     12  N   UNL     1       0.448   9.679  17.878  0.00  0.00    +0.000 N 
ATOM     13  O   UNL     1       2.547  10.438  17.594  0.00  0.00    +0.000 OA
ATOM     14  H   UNL     1      -0.200   8.931  18.064  0.00  0.00    +0.000 HD
ATOM     15  H   UNL     1       0.105  10.534  17.462  0.00  0.00    +0.000 HD
ENDBRANCH   6  11
BRANCH   9  16
ATOM     16  C   UNL     1       4.535   4.618  16.813  0.00  0.00    +0.000 C 
ATOM     17  C   UNL     1       5.112   4.479  15.766  0.00  0.00    +0.000 C 
BRANCH  17  18
ATOM     18  C   UNL     1       5.762   4.364  14.496  0.00  0.00    +0.000 A 
ATOM     19  C   UNL     1       5.170   3.618  13.470  0.00  0.00    +0.000 A 
ATOM     20  C   UNL     1       5.819   3.476  12.239  0.00  0.00    +0.000 A 
ATOM     21  C   UNL     1       7.059   4.080  12.024  0.00  0.00    +0.000 A 
ATOM     22  C   UNL     1       7.646   4.835  13.040  0.00  0.00    +0.000 A 
ATOM     23  C   UNL     1       6.998   4.972  14.265  0.00  0.00    +0.000 A 
ATOM     24  F   UNL     1       7.588   5.698  15.224  0.00  0.00    +0.000 F 
ENDBRANCH  17  18
ENDBRANCH   9  16
TORSDOF 3
ENDMDL
MODEL 3
REMARK VINA RESULT:      -8.0      0.991      1.423
REMARK  Name = 
REMARK  4 active torsions:
REMARK  status: ('A' for Active; 'I' for Inactive)
REMARK    1  A    between atoms: C_1  and  C_2
REMARK    2  A    between atoms: C_6  and  C_7
REMARK    3  A    between atoms: C_12  and  C_13
REMARK    4  A    between atoms: C_14  and  C_15
REMARK                            x       y       z     vdW  Elec       q    Type
REMARK                         _______ _______ _______ _____ _____    ______ ____
ROOT
ATOM      1  C   UNL     1       1.844   2.983  21.633  0.00  0.00    +0.000 C 
ATOM      2  C   UNL     1       2.227   4.044  20.640  0.00  0.00    +0.000 A 
ATOM      3  C   UNL     1       3.020   3.758  19.587  0.00  0.00    +0.000 A 
ATOM      4  N   UNL     1       3.423   4.786  18.753  0.00  0.00    +0.000 N 
ATOM      5  C   UNL     1       4.285   4.783  17.682  0.00  0.00    +0.000 A 
ATOM      6  C   UNL     1       4.492   6.098  17.283  0.00  0.00    +0.000 A 
ATOM      7  C   UNL     1       3.609   6.898  18.074  0.00  0.00    +0.000 A 
ATOM      8  C   UNL     1       3.006   6.068  18.989  0.00  0.00    +0.000 A 
ATOM      9  C   UNL     1       2.131   6.282  20.104  0.00  0.00    +0.000 A 
ATOM     10  N   UNL     1       1.751   5.327  20.903  0.00  0.00    +0.000 NA
ENDROOT
BRANCH   6  11
ATOM     11  C   UNL     1       5.433   6.612  16.297  0.00  0.00    +0.000 C 
ATOM     12  N   UNL     1       6.676   6.934  16.753  0.00  0.00    +0.000 N 
ATOM     13  O   UNL     1       5.131   6.799  15.123  0.00  0.00    +0.000 OA
ATOM     14  H   UNL     1       6.937   6.887  17.724  0.00  0.00    +0.000 HD
ATOM     15  H   UNL     1       7.294   7.396  16.100  0.00  0.00    +0.000 HD
ENDBRANCH   6  11
BRANCH   9  16
ATOM     16  C   UNL     1       1.625   7.580  20.474  0.00  0.00    +0.000 C 
ATOM     17  C   UNL     1       1.141   8.615  20.850  0.00  0.00    +0.000 C 
BRANCH  17  18
ATOM     18  C   UNL     1       0.511   9.812  21.319  0.00  0.00    +0.000 A 
ATOM     19  C   UNL     1       0.841  11.047  20.752  0.00  0.00    +0.000 A 
ATOM     20  C   UNL     1       0.252  12.222  21.231  0.00  0.00    +0.000 A 
ATOM     21  C   UNL     1      -0.669  12.170  22.279  0.00  0.00    +0.000 A 
ATOM     22  C   UNL     1      -1.010  10.939  22.839  0.00  0.00    +0.000 A 
ATOM     23  C   UNL     1      -0.420   9.771  22.359  0.00  0.00    +0.000 A 
ATOM     24  F   UNL     1      -0.762   8.604  22.921  0.00  0.00    +0.000 F 
ENDBRANCH  17  18
ENDBRANCH   9  16
TORSDOF 3
ENDMDL
MODEL 4
REMARK VINA RESULT:      -7.9      2.896      4.554
REMARK  Name = 
REMARK  4 active torsions:
REMARK  status: ('A' for Active; 'I' for Inactive)
REMARK    1  A    between atoms: C_1  and  C_2
REMARK    2  A    between atoms: C_6  and  C_7
REMARK    3  A    between atoms: C_12  and  C_13
REMARK    4  A    between atoms: C_14  and  C_15
REMARK                            x       y       z     vdW  Elec       q    Type
REMARK                         _______ _______ _______ _____ _____    ______ ____
ROOT
ATOM      1  C   UNL     1       6.011   6.201  15.812  0.00  0.00    +0.000 C 
ATOM      2  C   UNL     1       5.029   6.107  16.945  0.00  0.00    +0.000 A 
ATOM      3  C   UNL     1       5.015   5.037  17.767  0.00  0.00    +0.000 A 
ATOM      4  N   UNL     1       4.033   4.950  18.737  0.00  0.00    +0.000 N 
ATOM      5  C   UNL     1       3.744   3.946  19.631  0.00  0.00    +0.000 A 
ATOM      6  C   UNL     1       2.556   4.264  20.278  0.00  0.00    +0.000 A 
ATOM      7  C   UNL     1       2.202   5.577  19.838  0.00  0.00    +0.000 A 
ATOM      8  C   UNL     1       3.102   5.945  18.866  0.00  0.00    +0.000 A 
ATOM      9  C   UNL     1       3.209   7.068  17.980  0.00  0.00    +0.000 A 
ATOM     10  N   UNL     1       4.122   7.159  17.057  0.00  0.00    +0.000 NA
ENDROOT
BRANCH   6  11
ATOM     11  C   UNL     1       1.772   3.446  21.194  0.00  0.00    +0.000 C 
ATOM     12  N   UNL     1       0.569   3.002  20.734  0.00  0.00    +0.000 N 
ATOM     13  O   UNL     1       2.133   3.196  22.339  0.00  0.00    +0.000 OA
ATOM     14  H   UNL     1       0.192   3.261  19.837  0.00  0.00    +0.000 HD
ATOM     15  H   UNL     1      -0.028   2.532  21.401  0.00  0.00    +0.000 HD
ENDBRANCH   6  11
BRANCH   9  16
ATOM     16  C   UNL     1       2.292   8.178  17.998  0.00  0.00    +0.000 C 
ATOM     17  C   UNL     1       1.475   9.057  18.088  0.00  0.00    +0.000 C 
BRANCH  17  18
ATOM     18  C   UNL     1       0.460  10.057  18.223  0.00  0.00    +0.000 A 
ATOM     19  C   UNL     1      -0.849   9.789  17.804  0.00  0.00    +0.000 A 
ATOM     20  C   UNL     1      -1.835  10.776  17.903  0.00  0.00    +0.000 A 
ATOM     21  C   UNL     1      -1.522  12.034  18.422  0.00  0.00    +0.000 A 
ATOM     22  C   UNL     1      -0.222  12.301  18.851  0.00  0.00    +0.000 A 
ATOM     23  C   UNL     1       0.758  11.315  18.750  0.00  0.00    +0.000 A 
ATOM     24  F   UNL     1       1.999  11.601  19.165  0.00  0.00    +0.000 F 
ENDBRANCH  17  18
ENDBRANCH   9  16
TORSDOF 3
ENDMDL
MODEL 5
REMARK VINA RESULT:      -7.9      1.384      1.566
REMARK  Name = 
REMARK  4 active torsions:
REMARK  status: ('A' for Active; 'I' for Inactive)
REMARK    1  A    between atoms: C_1  and  C_2
REMARK    2  A    between atoms: C_6  and  C_7
REMARK    3  A    between atoms: C_12  and  C_13
REMARK    4  A    between atoms: C_14  and  C_15
REMARK                            x       y       z     vdW  Elec       q    Type
REMARK                         _______ _______ _______ _____ _____    ______ ____
ROOT
ATOM      1  C   UNL     1       2.027   2.660  21.589  0.00  0.00    +0.000 C 
ATOM      2  C   UNL     1       2.626   3.614  20.595  0.00  0.00    +0.000 A 
ATOM      3  C   UNL     1       3.620   3.226  19.770  0.00  0.00    +0.000 A 
ATOM      4  N   UNL     1       4.205   4.164  18.938  0.00  0.00    +0.000 N 
ATOM      5  C   UNL     1       5.273   4.056  18.079  0.00  0.00    +0.000 A 
ATOM      6  C   UNL     1       5.579   5.324  17.599  0.00  0.00    +0.000 A 
ATOM      7  C   UNL     1       4.560   6.194  18.097  0.00  0.00    +0.000 A 
ATOM      8  C   UNL     1       3.766   5.460  18.946  0.00  0.00    +0.000 A 
ATOM      9  C   UNL     1       2.678   5.783  19.822  0.00  0.00    +0.000 A 
ATOM     10  N   UNL     1       2.124   4.914  20.617  0.00  0.00    +0.000 NA
ENDROOT
BRANCH   6  11
ATOM     11  C   UNL     1       6.714   5.739  16.786  0.00  0.00    +0.000 C 
ATOM     12  N   UNL     1       7.526   4.747  16.324  0.00  0.00    +0.000 N 
ATOM     13  O   UNL     1       6.973   6.916  16.556  0.00  0.00    +0.000 OA
ATOM     14  H   UNL     1       7.405   3.778  16.566  0.00  0.00    +0.000 HD
ATOM     15  H   UNL     1       8.375   5.035  15.857  0.00  0.00    +0.000 HD
ENDBRANCH   6  11
BRANCH   9  16
ATOM     16  C   UNL     1       2.124   7.108  19.938  0.00  0.00    +0.000 C 
ATOM     17  C   UNL     1       1.569   8.170  20.050  0.00  0.00    +0.000 C 
BRANCH  17  18
ATOM     18  C   UNL     1       0.851   9.402  20.167  0.00  0.00    +0.000 A 
ATOM     19  C   UNL     1       0.694  10.007  21.420  0.00  0.00    +0.000 A 
ATOM     20  C   UNL     1      -0.036  11.193  21.542  0.00  0.00    +0.000 A 
ATOM     21  C   UNL     1      -0.612  11.784  20.416  0.00  0.00    +0.000 A 
ATOM     22  C   UNL     1      -0.448  11.191  19.164  0.00  0.00    +0.000 A 
ATOM     23  C   UNL     1       0.279  10.008  19.046  0.00  0.00    +0.000 A 
ATOM     24  F   UNL     1       0.416   9.458  17.832  0.00  0.00    +0.000 F 
ENDBRANCH  17  18
ENDBRANCH   9  16
TORSDOF 3
ENDMDL
MODEL 6
REMARK VINA RESULT:      -7.8      2.943      4.591
REMARK  Name = 
REMARK  4 active torsions:
REMARK  status: ('A' for Active; 'I' for Inactive)
REMARK    1  A    between atoms: C_1  and  C_2
REMARK    2  A    between atoms: C_6  and  C_7
REMARK    3  A    between atoms: C_12  and  C_13
REMARK    4  A    between atoms: C_14  and  C_15
REMARK                            x       y       z     vdW  Elec       q    Type
REMARK                         _______ _______ _______ _____ _____    ______ ____
ROOT
ATOM      1  C   UNL     1       5.886   6.298  15.838  0.00  0.00    +0.000 C 
ATOM      2  C   UNL     1       4.939   6.163  16.997  0.00  0.00    +0.000 A 
ATOM      3  C   UNL     1       4.971   5.079  17.799  0.00  0.00    +0.000 A 
ATOM      4  N   UNL     1       4.019   4.954  18.794  0.00  0.00    +0.000 N 
ATOM      5  C   UNL     1       3.776   3.928  19.677  0.00  0.00    +0.000 A 
ATOM      6  C   UNL     1       2.601   4.209  20.363  0.00  0.00    +0.000 A 
ATOM      7  C   UNL     1       2.208   5.522  19.958  0.00  0.00    +0.000 A 
ATOM      8  C   UNL     1       3.071   5.927  18.967  0.00  0.00    +0.000 A 
ATOM      9  C   UNL     1       3.130   7.067  18.100  0.00  0.00    +0.000 A 
ATOM     10  N   UNL     1       4.014   7.194  17.153  0.00  0.00    +0.000 NA
ENDROOT
BRANCH   6  11
ATOM     11  C   UNL     1       1.860   3.359  21.285  0.00  0.00    +0.000 C 
ATOM     12  N   UNL     1       0.636   2.931  20.867  0.00  0.00    +0.000 N 
ATOM     13  O   UNL     1       2.275   3.067  22.402  0.00  0.00    +0.000 OA
ATOM     14  H   UNL     1       0.217   3.222  20.000  0.00  0.00    +0.000 HD
ATOM     15  H   UNL     1       0.071   2.437  21.545  0.00  0.00    +0.000 HD
ENDBRANCH   6  11
BRANCH   9  16
ATOM     16  C   UNL     1       2.192   8.158  18.164  0.00  0.00    +0.000 C 
ATOM     17  C   UNL     1       1.482   9.125  18.263  0.00  0.00    +0.000 C 
BRANCH  17  18
ATOM     18  C   UNL     1       0.678  10.297  18.431  0.00  0.00    +0.000 A 
ATOM     19  C   UNL     1       1.193  11.410  19.105  0.00  0.00    +0.000 A 
ATOM     20  C   UNL     1       0.399  12.544  19.300  0.00  0.00    +0.000 A 
ATOM     21  C   UNL     1      -0.913  12.574  18.823  0.00  0.00    +0.000 A 
ATOM     22  C   UNL     1      -1.426  11.472  18.139  0.00  0.00    +0.000 A 
ATOM     23  C   UNL     1      -0.632  10.343  17.948  0.00  0.00    +0.000 A 
ATOM     24  F   UNL     1      -1.152   9.297  17.294  0.00  0.00    +0.000 F 
ENDBRANCH  17  18
ENDBRANCH   9  16
TORSDOF 3
ENDMDL
MODEL 7
REMARK VINA RESULT:      -7.8      1.746      2.269
REMARK  Name = 
REMARK  4 active torsions:
REMARK  status: ('A' for Active; 'I' for Inactive)
REMARK    1  A    between atoms: C_1  and  C_2
REMARK    2  A    between atoms: C_6  and  C_7
REMARK    3  A    between atoms: C_12  and  C_13
REMARK    4  A    between atoms: C_14  and  C_15
REMARK                            x       y       z     vdW  Elec       q    Type
REMARK                         _______ _______ _______ _____ _____    ______ ____
ROOT
ATOM      1  C   UNL     1       1.721   2.911  21.517  0.00  0.00    +0.000 C 
ATOM      2  C   UNL     1       2.491   3.730  20.519  0.00  0.00    +0.000 A 
ATOM      3  C   UNL     1       3.568   3.223  19.885  0.00  0.00    +0.000 A 
ATOM      4  N   UNL     1       4.301   4.044  19.048  0.00  0.00    +0.000 N 
ATOM      5  C   UNL     1       5.469   3.810  18.362  0.00  0.00    +0.000 A 
ATOM      6  C   UNL     1       5.893   5.007  17.796  0.00  0.00    +0.000 A 
ATOM      7  C   UNL     1       4.856   5.957  18.053  0.00  0.00    +0.000 A 
ATOM      8  C   UNL     1       3.923   5.346  18.856  0.00  0.00    +0.000 A 
ATOM      9  C   UNL     1       2.743   5.797  19.534  0.00  0.00    +0.000 A 
ATOM     10  N   UNL     1       2.049   5.039  20.333  0.00  0.00    +0.000 NA
ENDROOT
BRANCH   6  11
ATOM     11  C   UNL     1       7.144   5.295  17.109  0.00  0.00    +0.000 C 
ATOM     12  N   UNL     1       7.309   6.569  16.655  0.00  0.00    +0.000 N 
ATOM     13  O   UNL     1       7.999   4.441  16.896  0.00  0.00    +0.000 OA
ATOM     14  H   UNL     1       6.596   7.276  16.725  0.00  0.00    +0.000 HD
ATOM     15  H   UNL     1       8.122   6.745  16.080  0.00  0.00    +0.000 HD
ENDBRANCH   6  11
BRANCH   9  16
ATOM     16  C   UNL     1       2.238   7.142  19.432  0.00  0.00    +0.000 C 
ATOM     17  C   UNL     1       1.751   8.243  19.423  0.00  0.00    +0.000 C 
BRANCH  17  18
ATOM     18  C   UNL     1       1.118   9.526  19.443  0.00  0.00    +0.000 A 
ATOM     19  C   UNL     1       1.582  10.551  18.611  0.00  0.00    +0.000 A 
ATOM     20  C   UNL     1       0.986  11.816  18.653  0.00  0.00    +0.000 A 
ATOM     21  C   UNL     1      -0.076  12.064  19.524  0.00  0.00    +0.000 A 
ATOM     22  C   UNL     1      -0.549  11.042  20.347  0.00  0.00    +0.000 A 
ATOM     23  C   UNL     1       0.047   9.783  20.303  0.00  0.00    +0.000 A 
ATOM     24  F   UNL     1      -0.424   8.822  21.108  0.00  0.00    +0.000 F 
ENDBRANCH  17  18
ENDBRANCH   9  16
TORSDOF 3
ENDMDL
MODEL 8
REMARK VINA RESULT:      -7.7      1.836      2.457
REMARK  Name = 
REMARK  4 active torsions:
REMARK  status: ('A' for Active; 'I' for Inactive)
REMARK    1  A    between atoms: C_1  and  C_2
REMARK    2  A    between atoms: C_6  and  C_7
REMARK    3  A    between atoms: C_12  and  C_13
REMARK    4  A    between atoms: C_14  and  C_15
REMARK                            x       y       z     vdW  Elec       q    Type
REMARK                         _______ _______ _______ _____ _____    ______ ____
ROOT
ATOM      1  C   UNL     1       1.120   2.337  18.911  0.00  0.00    +0.000 C 
ATOM      2  C   UNL     1       2.023   3.389  18.330  0.00  0.00    +0.000 A 
ATOM      3  C   UNL     1       3.066   3.052  17.543  0.00  0.00    +0.000 A 
ATOM      4  N   UNL     1       3.925   4.045  17.108  0.00  0.00    +0.000 N 
ATOM      5  C   UNL     1       5.090   3.966  16.383  0.00  0.00    +0.000 A 
ATOM      6  C   UNL     1       5.673   5.228  16.351  0.00  0.00    +0.000 A 
ATOM      7  C   UNL     1       4.739   6.113  16.974  0.00  0.00    +0.000 A 
ATOM      8  C   UNL     1       3.706   5.350  17.463  0.00  0.00    +0.000 A 
ATOM      9  C   UNL     1       2.553   5.629  18.268  0.00  0.00    +0.000 A 
ATOM     10  N   UNL     1       1.741   4.705  18.692  0.00  0.00    +0.000 NA
ENDROOT
BRANCH   6  11
ATOM     11  C   UNL     1       6.980   5.613  15.837  0.00  0.00    +0.000 C 
ATOM     12  N   UNL     1       7.642   6.586  16.525  0.00  0.00    +0.000 N 
ATOM     13  O   UNL     1       7.460   5.136  14.814  0.00  0.00    +0.000 OA
ATOM     14  H   UNL     1       7.245   7.070  17.313  0.00  0.00    +0.000 HD
ATOM     15  H   UNL     1       8.494   6.936  16.110  0.00  0.00    +0.000 HD
ENDBRANCH   6  11
BRANCH   9  16
ATOM     16  C   UNL     1       2.209   6.953  18.721  0.00  0.00    +0.000 C 
ATOM     17  C   UNL     1       1.822   8.036  19.077  0.00  0.00    +0.000 C 
BRANCH  17  18
ATOM     18  C   UNL     1       1.308   9.314  19.463  0.00  0.00    +0.000 A 
ATOM     19  C   UNL     1       1.420  10.406  18.594  0.00  0.00    +0.000 A 
ATOM     20  C   UNL     1       0.948  11.665  18.981  0.00  0.00    +0.000 A 
ATOM     21  C   UNL     1       0.361  11.840  20.236  0.00  0.00    +0.000 A 
ATOM     22  C   UNL     1       0.237  10.752  21.100  0.00  0.00    +0.000 A 
ATOM     23  C   UNL     1       0.709   9.500  20.711  0.00  0.00    +0.000 A 
ATOM     24  F   UNL     1       0.581   8.474  21.563  0.00  0.00    +0.000 F 
ENDBRANCH  17  18
ENDBRANCH   9  16
TORSDOF 3
ENDMDL
MODEL 9
REMARK VINA RESULT:      -7.7      2.457      4.392
REMARK  Name = 
REMARK  4 active torsions:
REMARK  status: ('A' for Active; 'I' for Inactive)
REMARK    1  A    between atoms: C_1  and  C_2
REMARK    2  A    between atoms: C_6  and  C_7
REMARK    3  A    between atoms: C_12  and  C_13
REMARK    4  A    between atoms: C_14  and  C_15
REMARK                            x       y       z     vdW  Elec       q    Type
REMARK                         _______ _______ _______ _____ _____    ______ ____
ROOT
ATOM      1  C   UNL     1       5.749   6.017  15.627  0.00  0.00    +0.000 C 
ATOM      2  C   UNL     1       4.912   5.850  16.863  0.00  0.00    +0.000 A 
ATOM      3  C   UNL     1       4.988   4.728  17.608  0.00  0.00    +0.000 A 
ATOM      4  N   UNL     1       4.130   4.578  18.683  0.00  0.00    +0.000 N 
ATOM      5  C   UNL     1       3.943   3.517  19.537  0.00  0.00    +0.000 A 
ATOM      6  C   UNL     1       2.846   3.793  20.344  0.00  0.00    +0.000 A 
ATOM      7  C   UNL     1       2.454   5.134  20.039  0.00  0.00    +0.000 A 
ATOM      8  C   UNL     1       3.232   5.564  18.990  0.00  0.00    +0.000 A 
ATOM      9  C   UNL     1       3.242   6.743  18.174  0.00  0.00    +0.000 A 
ATOM     10  N   UNL     1       4.036   6.894  17.154  0.00  0.00    +0.000 NA
ENDROOT
BRANCH   6  11
ATOM     11  C   UNL     1       2.171   2.918  21.293  0.00  0.00    +0.000 C 
ATOM     12  N   UNL     1       0.815   2.835  21.186  0.00  0.00    +0.000 N 
ATOM     13  O   UNL     1       2.765   2.313  22.180  0.00  0.00    +0.000 OA
ATOM     14  H   UNL     1       0.279   3.385  20.536  0.00  0.00    +0.000 HD
ATOM     15  H   UNL     1       0.333   2.321  21.910  0.00  0.00    +0.000 HD
ENDBRANCH   6  11
BRANCH   9  16
ATOM     16  C   UNL     1       2.345   7.852  18.377  0.00  0.00    +0.000 C 
ATOM     17  C   UNL     1       1.564   8.731  18.634  0.00  0.00    +0.000 C 
BRANCH  17  18
ATOM     18  C   UNL     1       0.602   9.733  18.978  0.00  0.00    +0.000 A 
ATOM     19  C   UNL     1      -0.257  10.247  18.001  0.00  0.00    +0.000 A 
ATOM     20  C   UNL     1      -1.175  11.251  18.327  0.00  0.00    +0.000 A 
ATOM     21  C   UNL     1      -1.241  11.746  19.630  0.00  0.00    +0.000 A 
ATOM     22  C   UNL     1      -0.395  11.228  20.611  0.00  0.00    +0.000 A 
ATOM     23  C   UNL     1       0.519  10.229  20.281  0.00  0.00    +0.000 A 
ATOM     24  F   UNL     1       1.323   9.754  21.242  0.00  0.00    +0.000 F 
ENDBRANCH  17  18
ENDBRANCH   9  16
TORSDOF 3
ENDMDL
