MODEL 1
REMARK VINA RESULT:      -8.8      0.000      0.000
REMARK  Name = 
REMARK  6 active torsions:
REMARK  status: ('A' for Active; 'I' for Inactive)
REMARK    1  A    between atoms: C_2  and  C_3
REMARK    2  A    between atoms: C_3  and  C_4
REMARK    3  A    between atoms: N_8  and  C_9
REMARK    4  A    between atoms: N_17  and  C_18
REMARK    5  A    between atoms: C_18  and  C_19
REMARK    6  A    between atoms: C_19  and  C_20
REMARK                            x       y       z     vdW  Elec       q    Type
REMARK                         _______ _______ _______ _____ _____    ______ ____
ROOT
ATOM      1  O   UNL     1       7.090   6.012  18.676  0.00  0.00    +0.000 OA
ATOM      2  C   UNL     1       7.149   6.510  17.556  0.00  0.00    +0.000 C 
ATOM      3  N   UNL     1       7.745   7.719  17.290  0.00  0.00    +0.000 N 
ATOM      4  H   UNL     1       7.936   7.994  16.329  0.00  0.00    +0.000 HD
ENDROOT
BRANCH   2   5
ATOM      5  C   UNL     1       6.542   5.820  16.352  0.00  0.00    +0.000 C 
BRANCH   5   6
ATOM      6  C   UNL     1       5.023   5.786  16.357  0.00  0.00    +0.000 C 
ATOM      7  N   UNL     1       4.371   6.871  17.027  0.00  0.00    +0.000 N 
ATOM      8  C   UNL     1       3.359   6.437  17.860  0.00  0.00    +0.000 C 
ATOM      9  O   UNL     1       2.652   7.215  18.480  0.00  0.00    +0.000 OA
ATOM     10  N   UNL     1       3.370   5.063  17.877  0.00  0.00    +0.000 N 
ATOM     11  C   UNL     1       4.391   4.587  17.074  0.00  0.00    +0.000 C 
ATOM     12  O   UNL     1       4.726   3.431  16.838  0.00  0.00    +0.000 OA
ATOM     13  H   UNL     1       4.545   7.859  16.901  0.00  0.00    +0.000 HD
BRANCH  10  14
ATOM     14  C   UNL     1       2.631   4.302  18.832  0.00  0.00    +0.000 A 
ATOM     15  C   UNL     1       1.449   3.612  18.531  0.00  0.00    +0.000 A 
ATOM     16  C   UNL     1       0.736   2.909  19.517  0.00  0.00    +0.000 A 
ATOM     17  C   UNL     1       1.113   2.986  20.842  0.00  0.00    +0.000 A 
ATOM     18  C   UNL     1       2.205   3.767  21.151  0.00  0.00    +0.000 A 
ATOM     19  C   UNL     1       3.014   4.327  20.160  0.00  0.00    +0.000 A 
ENDBRANCH  10  14
ENDBRANCH   5   6
ENDBRANCH   2   5
BRANCH   3  20
ATOM     20  C   UNL     1       8.404   8.526  18.312  0.00  0.00    +0.000 C 
BRANCH  20  21
ATOM     21  C   UNL     1       8.658   9.974  17.870  0.00  0.00    +0.000 C 
BRANCH  21  22
ATOM     22  C   UNL     1       9.405  10.779  18.903  0.00  0.00    +0.000 A 
ATOM     23  N   UNL     1       9.205  10.763  20.207  0.00  0.00    +0.000 NA
ATOM     24  C   UNL     1       9.709  11.960  20.669  0.00  0.00    +0.000 A 
ATOM     25  C   UNL     1       9.468  12.611  21.887  0.00  0.00    +0.000 A 
ATOM     26  C   UNL     1       9.819  13.962  22.017  0.00  0.00    +0.000 A 
ATOM     27  C   UNL     1      10.497  14.620  20.993  0.00  0.00    +0.000 A 
ATOM     28  C   UNL     1      10.894  13.940  19.836  0.00  0.00    +0.000 A 
ATOM     29  C   UNL     1      10.413  12.626  19.674  0.00  0.00    +0.000 A 
ATOM     30  N   UNL     1      10.280  11.799  18.568  0.00  0.00    +0.000 N 
ATOM     31  H   UNL     1      10.487  12.076  17.619  0.00  0.00    +0.000 HD
ENDBRANCH  21  22
ENDBRANCH  20  21
ENDBRANCH   3  20
TORSDOF 6
ENDMDL
MODEL 2
REMARK VINA RESULT:      -8.7      0.840      1.470
REMARK  Name = 
REMARK  6 active torsions:
REMARK  status: ('A' for Active; 'I' for Inactive)
REMARK    1  A    between atoms: C_2  and  C_3
REMARK    2  A    between atoms: C_3  and  C_4
REMARK    3  A    between atoms: N_8  and  C_9
REMARK    4  A    between atoms: N_17  and  C_18
REMARK    5  A    between atoms: C_18  and  C_19
REMARK    6  A    between atoms: C_19  and  C_20
REMARK                            x       y       z     vdW  Elec       q    Type
REMARK                         _______ _______ _______ _____ _____    ______ ____
ROOT
ATOM      1  O   UNL     1       7.646   6.043  18.661  0.00  0.00    +0.000 OA
ATOM      2  C   UNL     1       7.450   6.553  17.562  0.00  0.00    +0.000 C 
ATOM      3  N   UNL     1       7.717   7.870  17.276  0.00  0.00    +0.000 N 
ATOM      4  H   UNL     1       7.719   8.193  16.310  0.00  0.00    +0.000 HD
ENDROOT
BRANCH   2   5
ATOM      5  C   UNL     1       6.872   5.755  16.412  0.00  0.00    +0.000 C 
BRANCH   5   6
ATOM      6  C   UNL     1       5.356   5.808  16.320  0.00  0.00    +0.000 C 
ATOM      7  N   UNL     1       4.737   6.999  16.821  0.00  0.00    +0.000 N 
ATOM      8  C   UNL     1       3.651   6.721  17.628  0.00  0.00    +0.000 C 
ATOM      9  O   UNL     1       2.960   7.604  18.110  0.00  0.00    +0.000 OA
ATOM     10  N   UNL     1       3.574   5.360  17.798  0.00  0.00    +0.000 N 
ATOM     11  C   UNL     1       4.608   4.738  17.122  0.00  0.00    +0.000 C 
ATOM     12  O   UNL     1       4.881   3.545  17.039  0.00  0.00    +0.000 OA
ATOM     13  H   UNL     1       4.981   7.954  16.598  0.00  0.00    +0.000 HD
BRANCH  10  14
ATOM     14  C   UNL     1       2.732   4.757  18.781  0.00  0.00    +0.000 A 
ATOM     15  C   UNL     1       2.950   4.861  20.161  0.00  0.00    +0.000 A 
ATOM     16  C   UNL     1       2.113   4.216  21.089  0.00  0.00    +0.000 A 
ATOM     17  C   UNL     1       1.126   3.354  20.659  0.00  0.00    +0.000 A 
ATOM     18  C   UNL     1       0.994   3.158  19.302  0.00  0.00    +0.000 A 
ATOM     19  C   UNL     1       1.707   3.923  18.375  0.00  0.00    +0.000 A 
ENDBRANCH  10  14
ENDBRANCH   5   6
ENDBRANCH   2   5
BRANCH   3  20
ATOM     20  C   UNL     1       8.297   8.796  18.244  0.00  0.00    +0.000 C 
BRANCH  20  21
ATOM     21  C   UNL     1       8.436  10.227  17.705  0.00  0.00    +0.000 C 
BRANCH  21  22
ATOM     22  C   UNL     1       9.589  10.976  18.324  0.00  0.00    +0.000 A 
ATOM     23  N   UNL     1       9.628  11.494  19.537  0.00  0.00    +0.000 NA
ATOM     24  C   UNL     1      10.595  12.475  19.485  0.00  0.00    +0.000 A 
ATOM     25  C   UNL     1      10.818  13.547  20.361  0.00  0.00    +0.000 A 
ATOM     26  C   UNL     1      11.641  14.604  19.946  0.00  0.00    +0.000 A 
ATOM     27  C   UNL     1      12.317  14.541  18.730  0.00  0.00    +0.000 A 
ATOM     28  C   UNL     1      12.239  13.403  17.917  0.00  0.00    +0.000 A 
ATOM     29  C   UNL     1      11.303  12.419  18.291  0.00  0.00    +0.000 A 
ATOM     30  N   UNL     1      10.694  11.384  17.597  0.00  0.00    +0.000 N 
ATOM     31  H   UNL     1      10.816  11.208  16.610  0.00  0.00    +0.000 HD
ENDBRANCH  21  22
ENDBRANCH  20  21
ENDBRANCH   3  20
TORSDOF 6
ENDMDL
MODEL 3
REMARK VINA RESULT:      -8.4      4.841      7.914
REMARK  Name = 
REMARK  6 active torsions:
REMARK  status: ('A' for Active; 'I' for Inactive)
REMARK    1  A    between atoms: C_2  and  C_3
REMARK    2  A    between atoms: C_3  and  C_4
REMARK    3  A    between atoms: N_8  and  C_9
REMARK    4  A    between atoms: N_17  and  C_18
REMARK    5  A    between atoms: C_18  and  C_19
REMARK    6  A    between atoms: C_19  and  C_20
REMARK                            x       y       z     vdW  Elec       q    Type
REMARK                         _______ _______ _______ _____ _____    ______ ____
ROOT
ATOM      1  O   UNL     1       4.787   3.969  17.908  0.00  0.00    +0.000 OA
ATOM      2  C   UNL     1       5.321   4.108  19.004  0.00  0.00    +0.000 C 
ATOM      3  N   UNL     1       5.023   3.334  20.099  0.00  0.00    +0.000 N 
ATOM      4  H   UNL     1       5.623   3.360  20.921  0.00  0.00    +0.000 HD
ENDROOT
BRANCH   2   5
ATOM      5  C   UNL     1       6.365   5.178  19.244  0.00  0.00    +0.000 C 
BRANCH   5   6
ATOM      6  C   UNL     1       6.784   5.928  17.990  0.00  0.00    +0.000 C 
ATOM      7  N   UNL     1       5.754   6.671  17.328  0.00  0.00    +0.000 N 
ATOM      8  C   UNL     1       5.757   6.463  15.962  0.00  0.00    +0.000 C 
ATOM      9  O   UNL     1       4.988   7.047  15.216  0.00  0.00    +0.000 OA
ATOM     10  N   UNL     1       6.692   5.497  15.673  0.00  0.00    +0.000 N 
ATOM     11  C   UNL     1       7.293   5.056  16.837  0.00  0.00    +0.000 C 
ATOM     12  O   UNL     1       8.162   4.204  16.993  0.00  0.00    +0.000 OA
ATOM     13  H   UNL     1       5.112   7.331  17.746  0.00  0.00    +0.000 HD
BRANCH  10  14
ATOM     14  C   UNL     1       6.765   4.862  14.397  0.00  0.00    +0.000 A 
ATOM     15  C   UNL     1       7.619   5.280  13.368  0.00  0.00    +0.000 A 
ATOM     16  C   UNL     1       7.627   4.643  12.114  0.00  0.00    +0.000 A 
ATOM     17  C   UNL     1       6.697   3.668  11.819  0.00  0.00    +0.000 A 
ATOM     18  C   UNL     1       5.778   3.345  12.793  0.00  0.00    +0.000 A 
ATOM     19  C   UNL     1       5.874   3.850  14.092  0.00  0.00    +0.000 A 
ENDBRANCH  10  14
ENDBRANCH   5   6
ENDBRANCH   2   5
BRANCH   3  20
ATOM     20  C   UNL     1       4.061   2.238  20.064  0.00  0.00    +0.000 C 
BRANCH  20  21
ATOM     21  C   UNL     1       2.731   2.577  20.751  0.00  0.00    +0.000 C 
BRANCH  21  22
ATOM     22  C   UNL     1       2.114   3.852  20.236  0.00  0.00    +0.000 A 
ATOM     23  N   UNL     1       1.990   4.210  18.972  0.00  0.00    +0.000 NA
ATOM     24  C   UNL     1       1.866   5.582  18.990  0.00  0.00    +0.000 A 
ATOM     25  C   UNL     1       2.042   6.502  17.946  0.00  0.00    +0.000 A 
ATOM     26  C   UNL     1       2.189   7.861  18.255  0.00  0.00    +0.000 A 
ATOM     27  C   UNL     1       2.052   8.310  19.567  0.00  0.00    +0.000 A 
ATOM     28  C   UNL     1       1.711   7.428  20.600  0.00  0.00    +0.000 A 
ATOM     29  C   UNL     1       1.702   6.054  20.286  0.00  0.00    +0.000 A 
ATOM     30  N   UNL     1       1.774   4.908  21.064  0.00  0.00    +0.000 N 
ATOM     31  H   UNL     1       1.905   4.905  22.065  0.00  0.00    +0.000 HD
ENDBRANCH  21  22
ENDBRANCH  20  21
ENDBRANCH   3  20
TORSDOF 6
ENDMDL
MODEL 4
REMARK VINA RESULT:      -8.4      5.708      8.892
REMARK  Name = 
REMARK  6 active torsions:
REMARK  status: ('A' for Active; 'I' for Inactive)
REMARK    1  A    between atoms: C_2  and  C_3
REMARK    2  A    between atoms: C_3  and  C_4
REMARK    3  A    between atoms: N_8  and  C_9
REMARK    4  A    between atoms: N_17  and  C_18
REMARK    5  A    between atoms: C_18  and  C_19
REMARK    6  A    between atoms: C_19  and  C_20
REMARK                            x       y       z     vdW  Elec       q    Type
REMARK                         _______ _______ _______ _____ _____    ______ ____
ROOT
ATOM      1  O   UNL     1       4.535   5.854  19.330  0.00  0.00    +0.000 OA
ATOM      2  C   UNL     1       3.627   5.939  18.508  0.00  0.00    +0.000 C 
ATOM      3  N   UNL     1       3.758   5.576  17.190  0.00  0.00    +0.000 N 
ATOM      4  H   UNL     1       2.933   5.484  16.601  0.00  0.00    +0.000 HD
ENDROOT
BRANCH   2   5
ATOM      5  C   UNL     1       2.265   6.477  18.889  0.00  0.00    +0.000 C 
BRANCH   5   6
ATOM      6  C   UNL     1       2.309   7.757  19.708  0.00  0.00    +0.000 C 
ATOM      7  N   UNL     1       1.682   7.703  20.995  0.00  0.00    +0.000 N 
ATOM      8  C   UNL     1       0.874   8.799  21.228  0.00  0.00    +0.000 C 
ATOM      9  O   UNL     1       0.294   8.961  22.289  0.00  0.00    +0.000 OA
ATOM     10  N   UNL     1       0.830   9.556  20.082  0.00  0.00    +0.000 N 
ATOM     11  C   UNL     1       1.590   8.962  19.091  0.00  0.00    +0.000 C 
ATOM     12  O   UNL     1       1.791   9.325  17.937  0.00  0.00    +0.000 OA
ATOM     13  H   UNL     1       1.822   7.005  21.713  0.00  0.00    +0.000 HD
BRANCH  10  14
ATOM     14  C   UNL     1      -0.115  10.609  19.897  0.00  0.00    +0.000 A 
ATOM     15  C   UNL     1      -1.262  10.494  19.100  0.00  0.00    +0.000 A 
ATOM     16  C   UNL     1      -2.143  11.574  18.918  0.00  0.00    +0.000 A 
ATOM     17  C   UNL     1      -1.832  12.822  19.417  0.00  0.00    +0.000 A 
ATOM     18  C   UNL     1      -0.642  12.961  20.096  0.00  0.00    +0.000 A 
ATOM     19  C   UNL     1       0.151  11.859  20.425  0.00  0.00    +0.000 A 
ENDBRANCH  10  14
ENDBRANCH   5   6
ENDBRANCH   2   5
BRANCH   3  20
ATOM     20  C   UNL     1       4.985   5.015  16.634  0.00  0.00    +0.000 C 
BRANCH  20  21
ATOM     21  C   UNL     1       4.985   3.481  16.591  0.00  0.00    +0.000 C 
BRANCH  21  22
ATOM     22  C   UNL     1       4.068   2.866  17.617  0.00  0.00    +0.000 A 
ATOM     23  N   UNL     1       2.765   2.695  17.503  0.00  0.00    +0.000 NA
ATOM     24  C   UNL     1       2.294   2.598  18.795  0.00  0.00    +0.000 A 
ATOM     25  C   UNL     1       0.984   2.747  19.274  0.00  0.00    +0.000 A 
ATOM     26  C   UNL     1       0.781   2.932  20.649  0.00  0.00    +0.000 A 
ATOM     27  C   UNL     1       1.848   2.859  21.541  0.00  0.00    +0.000 A 
ATOM     28  C   UNL     1       3.139   2.545  21.098  0.00  0.00    +0.000 A 
ATOM     29  C   UNL     1       3.339   2.498  19.704  0.00  0.00    +0.000 A 
ATOM     30  N   UNL     1       4.473   2.581  18.910  0.00  0.00    +0.000 N 
ATOM     31  H   UNL     1       5.405   2.755  19.260  0.00  0.00    +0.000 HD
ENDBRANCH  21  22
ENDBRANCH  20  21
ENDBRANCH   3  20
TORSDOF 6
ENDMDL
MODEL 5
REMARK VINA RESULT:      -8.4      1.571      2.103
REMARK  Name = 
REMARK  6 active torsions:
REMARK  status: ('A' for Active; 'I' for Inactive)
REMARK    1  A    between atoms: C_2  and  C_3
REMARK    2  A    between atoms: C_3  and  C_4
REMARK    3  A    between atoms: N_8  and  C_9
REMARK    4  A    between atoms: N_17  and  C_18
REMARK    5  A    between atoms: C_18  and  C_19
REMARK    6  A    between atoms: C_19  and  C_20
REMARK                            x       y       z     vdW  Elec       q    Type
REMARK                         _______ _______ _______ _____ _____    ______ ____
ROOT
ATOM      1  O   UNL     1       7.539   8.045  16.830  0.00  0.00    +0.000 OA
ATOM      2  C   UNL     1       7.818   7.628  17.950  0.00  0.00    +0.000 C 
ATOM      3  N   UNL     1       8.509   8.361  18.884  0.00  0.00    +0.000 N 
ATOM      4  H   UNL     1       8.546   8.048  19.852  0.00  0.00    +0.000 HD
ENDROOT
BRANCH   2   5
ATOM      5  C   UNL     1       7.424   6.236  18.394  0.00  0.00    +0.000 C 
BRANCH   5   6
ATOM      6  C   UNL     1       6.198   5.682  17.687  0.00  0.00    +0.000 C 
ATOM      7  N   UNL     1       5.157   6.623  17.403  0.00  0.00    +0.000 N 
ATOM      8  C   UNL     1       3.909   6.140  17.744  0.00  0.00    +0.000 C 
ATOM      9  O   UNL     1       2.888   6.773  17.531  0.00  0.00    +0.000 OA
ATOM     10  N   UNL     1       4.070   4.927  18.372  0.00  0.00    +0.000 N 
ATOM     11  C   UNL     1       5.415   4.615  18.461  0.00  0.00    +0.000 C 
ATOM     12  O   UNL     1       5.957   3.633  18.955  0.00  0.00    +0.000 OA
ATOM     13  H   UNL     1       5.254   7.523  16.952  0.00  0.00    +0.000 HD
BRANCH  10  14
ATOM     14  C   UNL     1       3.011   4.285  19.081  0.00  0.00    +0.000 A 
ATOM     15  C   UNL     1       2.207   3.277  18.533  0.00  0.00    +0.000 A 
ATOM     16  C   UNL     1       1.150   2.702  19.260  0.00  0.00    +0.000 A 
ATOM     17  C   UNL     1       0.792   3.209  20.492  0.00  0.00    +0.000 A 
ATOM     18  C   UNL     1       1.507   4.282  20.975  0.00  0.00    +0.000 A 
ATOM     19  C   UNL     1       2.661   4.744  20.337  0.00  0.00    +0.000 A 
ENDBRANCH  10  14
ENDBRANCH   5   6
ENDBRANCH   2   5
BRANCH   3  20
ATOM     20  C   UNL     1       8.956   9.731  18.654  0.00  0.00    +0.000 C 
BRANCH  20  21
ATOM     21  C   UNL     1       9.502  10.410  19.918  0.00  0.00    +0.000 C 
BRANCH  21  22
ATOM     22  C   UNL     1      10.242  11.689  19.621  0.00  0.00    +0.000 A 
ATOM     23  N   UNL     1       9.937  12.894  20.063  0.00  0.00    +0.000 NA
ATOM     24  C   UNL     1      10.522  13.770  19.174  0.00  0.00    +0.000 A 
ATOM     25  C   UNL     1      10.251  15.130  18.962  0.00  0.00    +0.000 A 
ATOM     26  C   UNL     1      10.728  15.743  17.794  0.00  0.00    +0.000 A 
ATOM     27  C   UNL     1      11.551  15.046  16.912  0.00  0.00    +0.000 A 
ATOM     28  C   UNL     1      11.968  13.739  17.193  0.00  0.00    +0.000 A 
ATOM     29  C   UNL     1      11.369  13.104  18.298  0.00  0.00    +0.000 A 
ATOM     30  N   UNL     1      11.241  11.773  18.666  0.00  0.00    +0.000 N 
ATOM     31  H   UNL     1      11.552  10.992  18.105  0.00  0.00    +0.000 HD
ENDBRANCH  21  22
ENDBRANCH  20  21
ENDBRANCH   3  20
TORSDOF 6
ENDMDL
MODEL 6
REMARK VINA RESULT:      -8.4      1.784      2.362
REMARK  Name = 
REMARK  6 active torsions:
REMARK  status: ('A' for Active; 'I' for Inactive)
REMARK    1  A    between atoms: C_2  and  C_3
REMARK    2  A    between atoms: C_3  and  C_4
REMARK    3  A    between atoms: N_8  and  C_9
REMARK    4  A    between atoms: N_17  and  C_18
REMARK    5  A    between atoms: C_18  and  C_19
REMARK    6  A    between atoms: C_19  and  C_20
REMARK                            x       y       z     vdW  Elec       q    Type
REMARK                         _______ _______ _______ _____ _____    ______ ____
ROOT
ATOM      1  O   UNL     1       5.020   6.975  16.606  0.00  0.00    +0.000 OA
ATOM      2  C   UNL     1       6.134   6.489  16.433  0.00  0.00    +0.000 C 
ATOM      3  N   UNL     1       7.293   7.057  16.904  0.00  0.00    +0.000 N 
ATOM      4  H   UNL     1       8.159   6.523  16.902  0.00  0.00    +0.000 HD
ENDROOT
BRANCH   2   5
ATOM      5  C   UNL     1       6.323   5.203  15.656  0.00  0.00    +0.000 C 
BRANCH   5   6
ATOM      6  C   UNL     1       5.634   3.998  16.275  0.00  0.00    +0.000 C 
ATOM      7  N   UNL     1       4.281   3.767  15.864  0.00  0.00    +0.000 N 
ATOM      8  C   UNL     1       3.450   3.499  16.934  0.00  0.00    +0.000 C 
ATOM      9  O   UNL     1       2.270   3.225  16.785  0.00  0.00    +0.000 OA
ATOM     10  N   UNL     1       4.170   3.658  18.094  0.00  0.00    +0.000 N 
ATOM     11  C   UNL     1       5.466   4.043  17.798  0.00  0.00    +0.000 C 
ATOM     12  O   UNL     1       6.400   4.287  18.554  0.00  0.00    +0.000 OA
ATOM     13  H   UNL     1       3.929   3.730  14.917  0.00  0.00    +0.000 HD
BRANCH  10  14
ATOM     14  C   UNL     1       3.551   3.715  19.378  0.00  0.00    +0.000 A 
ATOM     15  C   UNL     1       3.409   2.606  20.223  0.00  0.00    +0.000 A 
ATOM     16  C   UNL     1       2.756   2.705  21.465  0.00  0.00    +0.000 A 
ATOM     17  C   UNL     1       2.120   3.874  21.828  0.00  0.00    +0.000 A 
ATOM     18  C   UNL     1       2.156   4.925  20.939  0.00  0.00    +0.000 A 
ATOM     19  C   UNL     1       2.944   4.888  19.787  0.00  0.00    +0.000 A 
ENDBRANCH  10  14
ENDBRANCH   5   6
ENDBRANCH   2   5
BRANCH   3  20
ATOM     20  C   UNL     1       7.317   8.284  17.693  0.00  0.00    +0.000 C 
BRANCH  20  21
ATOM     21  C   UNL     1       8.581   8.426  18.554  0.00  0.00    +0.000 C 
BRANCH  21  22
ATOM     22  C   UNL     1       8.977   9.863  18.779  0.00  0.00    +0.000 A 
ATOM     23  N   UNL     1       9.087  10.801  17.859  0.00  0.00    +0.000 NA
ATOM     24  C   UNL     1       9.931  11.748  18.399  0.00  0.00    +0.000 A 
ATOM     25  C   UNL     1      10.649  12.766  17.756  0.00  0.00    +0.000 A 
ATOM     26  C   UNL     1      11.691  13.402  18.445  0.00  0.00    +0.000 A 
ATOM     27  C   UNL     1      11.939  13.109  19.784  0.00  0.00    +0.000 A 
ATOM     28  C   UNL     1      11.124  12.217  20.491  0.00  0.00    +0.000 A 
ATOM     29  C   UNL     1      10.174  11.494  19.743  0.00  0.00    +0.000 A 
ATOM     30  N   UNL     1       9.474  10.322  19.988  0.00  0.00    +0.000 N 
ATOM     31  H   UNL     1       9.601   9.740  20.803  0.00  0.00    +0.000 HD
ENDBRANCH  21  22
ENDBRANCH  20  21
ENDBRANCH   3  20
TORSDOF 6
ENDMDL
MODEL 7
REMARK VINA RESULT:      -8.4      5.196      8.465
REMARK  Name = 
REMARK  6 active torsions:
REMARK  status: ('A' for Active; 'I' for Inactive)
REMARK    1  A    between atoms: C_2  and  C_3
REMARK    2  A    between atoms: C_3  and  C_4
REMARK    3  A    between atoms: N_8  and  C_9
REMARK    4  A    between atoms: N_17  and  C_18
REMARK    5  A    between atoms: C_18  and  C_19
REMARK    6  A    between atoms: C_19  and  C_20
REMARK                            x       y       z     vdW  Elec       q    Type
REMARK                         _______ _______ _______ _____ _____    ______ ____
ROOT
ATOM      1  O   UNL     1       5.216   6.755  15.479  0.00  0.00    +0.000 OA
ATOM      2  C   UNL     1       5.381   6.535  16.674  0.00  0.00    +0.000 C 
ATOM      3  N   UNL     1       4.547   7.009  17.658  0.00  0.00    +0.000 N 
ATOM      4  H   UNL     1       4.615   6.643  18.605  0.00  0.00    +0.000 HD
ENDROOT
BRANCH   2   5
ATOM      5  C   UNL     1       6.552   5.714  17.172  0.00  0.00    +0.000 C 
BRANCH   5   6
ATOM      6  C   UNL     1       7.243   4.899  16.091  0.00  0.00    +0.000 C 
ATOM      7  N   UNL     1       7.791   5.643  14.997  0.00  0.00    +0.000 N 
ATOM      8  C   UNL     1       7.473   5.084  13.774  0.00  0.00    +0.000 C 
ATOM      9  O   UNL     1       7.891   5.542  12.723  0.00  0.00    +0.000 OA
ATOM     10  N   UNL     1       6.612   4.033  13.989  0.00  0.00    +0.000 N 
ATOM     11  C   UNL     1       6.349   3.905  15.341  0.00  0.00    +0.000 C 
ATOM     12  O   UNL     1       5.630   3.101  15.924  0.00  0.00    +0.000 OA
ATOM     13  H   UNL     1       8.397   6.450  15.050  0.00  0.00    +0.000 HD
BRANCH  10  14
ATOM     14  C   UNL     1       5.887   3.409  12.930  0.00  0.00    +0.000 A 
ATOM     15  C   UNL     1       6.402   2.373  12.140  0.00  0.00    +0.000 A 
ATOM     16  C   UNL     1       5.661   1.816  11.082  0.00  0.00    +0.000 A 
ATOM     17  C   UNL     1       4.452   2.366  10.710  0.00  0.00    +0.000 A 
ATOM     18  C   UNL     1       4.006   3.465  11.411  0.00  0.00    +0.000 A 
ATOM     19  C   UNL     1       4.652   3.913  12.565  0.00  0.00    +0.000 A 
ENDBRANCH  10  14
ENDBRANCH   5   6
ENDBRANCH   2   5
BRANCH   3  20
ATOM     20  C   UNL     1       3.353   7.800  17.379  0.00  0.00    +0.000 C 
BRANCH  20  21
ATOM     21  C   UNL     1       2.144   7.395  18.235  0.00  0.00    +0.000 C 
BRANCH  21  22
ATOM     22  C   UNL     1       2.184   5.948  18.656  0.00  0.00    +0.000 A 
ATOM     23  N   UNL     1       2.820   5.450  19.699  0.00  0.00    +0.000 NA
ATOM     24  C   UNL     1       3.009   4.115  19.411  0.00  0.00    +0.000 A 
ATOM     25  C   UNL     1       3.900   3.201  19.990  0.00  0.00    +0.000 A 
ATOM     26  C   UNL     1       4.157   1.991  19.330  0.00  0.00    +0.000 A 
ATOM     27  C   UNL     1       3.456   1.650  18.176  0.00  0.00    +0.000 A 
ATOM     28  C   UNL     1       2.442   2.476  17.675  0.00  0.00    +0.000 A 
ATOM     29  C   UNL     1       2.299   3.742  18.277  0.00  0.00    +0.000 A 
ATOM     30  N   UNL     1       1.702   4.922  17.860  0.00  0.00    +0.000 N 
ATOM     31  H   UNL     1       1.286   5.063  16.950  0.00  0.00    +0.000 HD
ENDBRANCH  21  22
ENDBRANCH  20  21
ENDBRANCH   3  20
TORSDOF 6
ENDMDL
MODEL 8
REMARK VINA RESULT:      -8.3      5.092      6.257
REMARK  Name = 
REMARK  6 active torsions:
REMARK  status: ('A' for Active; 'I' for Inactive)
REMARK    1  A    between atoms: C_2  and  C_3
REMARK    2  A    between atoms: C_3  and  C_4
REMARK    3  A    between atoms: N_8  and  C_9
REMARK    4  A    between atoms: N_17  and  C_18
REMARK    5  A    between atoms: C_18  and  C_19
REMARK    6  A    between atoms: C_19  and  C_20
REMARK                            x       y       z     vdW  Elec       q    Type
REMARK                         _______ _______ _______ _____ _____    ______ ____
ROOT
ATOM      1  O   UNL     1       5.002   6.833  15.316  0.00  0.00    +0.000 OA
ATOM      2  C   UNL     1       5.281   6.689  16.502  0.00  0.00    +0.000 C 
ATOM      3  N   UNL     1       4.533   7.212  17.528  0.00  0.00    +0.000 N 
ATOM      4  H   UNL     1       4.695   6.906  18.486  0.00  0.00    +0.000 HD
ENDROOT
BRANCH   2   5
ATOM      5  C   UNL     1       6.509   5.916  16.936  0.00  0.00    +0.000 C 
BRANCH   5   6
ATOM      6  C   UNL     1       6.203   4.560  17.551  0.00  0.00    +0.000 C 
ATOM      7  N   UNL     1       5.341   3.705  16.791  0.00  0.00    +0.000 N 
ATOM      8  C   UNL     1       4.355   3.132  17.571  0.00  0.00    +0.000 C 
ATOM      9  O   UNL     1       3.553   2.333  17.117  0.00  0.00    +0.000 OA
ATOM     10  N   UNL     1       4.438   3.665  18.835  0.00  0.00    +0.000 N 
ATOM     11  C   UNL     1       5.461   4.595  18.892  0.00  0.00    +0.000 C 
ATOM     12  O   UNL     1       5.840   5.283  19.833  0.00  0.00    +0.000 OA
ATOM     13  H   UNL     1       5.429   3.462  15.814  0.00  0.00    +0.000 HD
BRANCH  10  14
ATOM     14  C   UNL     1       3.411   3.488  19.810  0.00  0.00    +0.000 A 
ATOM     15  C   UNL     1       3.433   2.489  20.792  0.00  0.00    +0.000 A 
ATOM     16  C   UNL     1       2.376   2.331  21.706  0.00  0.00    +0.000 A 
ATOM     17  C   UNL     1       1.224   3.078  21.578  0.00  0.00    +0.000 A 
ATOM     18  C   UNL     1       1.156   3.975  20.535  0.00  0.00    +0.000 A 
ATOM     19  C   UNL     1       2.263   4.255  19.731  0.00  0.00    +0.000 A 
ENDBRANCH  10  14
ENDBRANCH   5   6
ENDBRANCH   2   5
BRANCH   3  20
ATOM     20  C   UNL     1       3.303   7.968  17.315  0.00  0.00    +0.000 C 
BRANCH  20  21
ATOM     21  C   UNL     1       2.132   7.477  18.178  0.00  0.00    +0.000 C 
BRANCH  21  22
ATOM     22  C   UNL     1       1.837   8.391  19.340  0.00  0.00    +0.000 A 
ATOM     23  N   UNL     1       1.752   8.045  20.610  0.00  0.00    +0.000 NA
ATOM     24  C   UNL     1       0.992   9.028  21.208  0.00  0.00    +0.000 A 
ATOM     25  C   UNL     1       0.316   9.001  22.436  0.00  0.00    +0.000 A 
ATOM     26  C   UNL     1      -0.656   9.977  22.697  0.00  0.00    +0.000 A 
ATOM     27  C   UNL     1      -0.871  11.023  21.802  0.00  0.00    +0.000 A 
ATOM     28  C   UNL     1      -0.088  11.159  20.649  0.00  0.00    +0.000 A 
ATOM     29  C   UNL     1       0.785  10.096  20.344  0.00  0.00    +0.000 A 
ATOM     30  N   UNL     1       1.417   9.701  19.175  0.00  0.00    +0.000 N 
ATOM     31  H   UNL     1       1.284  10.141  18.276  0.00  0.00    +0.000 HD
ENDBRANCH  21  22
ENDBRANCH  20  21
ENDBRANCH   3  20
TORSDOF 6
ENDMDL
MODEL 9
REMARK VINA RESULT:      -8.3      2.404      3.632
REMARK  Name = 
REMARK  6 active torsions:
REMARK  status: ('A' for Active; 'I' for Inactive)
REMARK    1  A    between atoms: C_2  and  C_3
REMARK    2  A    between atoms: C_3  and  C_4
REMARK    3  A    between atoms: N_8  and  C_9
REMARK    4  A    between atoms: N_17  and  C_18
REMARK    5  A    between atoms: C_18  and  C_19
REMARK    6  A    between atoms: C_19  and  C_20
REMARK                            x       y       z     vdW  Elec       q    Type
REMARK                         _______ _______ _______ _____ _____    ______ ____
ROOT
ATOM      1  O   UNL     1       7.190   9.005  17.347  0.00  0.00    +0.000 OA
ATOM      2  C   UNL     1       8.122   8.796  18.118  0.00  0.00    +0.000 C 
ATOM      3  N   UNL     1       9.056   9.744  18.459  0.00  0.00    +0.000 N 
ATOM      4  H   UNL     1       9.687   9.580  19.241  0.00  0.00    +0.000 HD
ENDROOT
BRANCH   2   5
ATOM      5  C   UNL     1       8.326   7.439  18.759  0.00  0.00    +0.000 C 
BRANCH   5   6
ATOM      6  C   UNL     1       7.791   6.278  17.937  0.00  0.00    +0.000 C 
ATOM      7  N   UNL     1       7.334   6.598  16.618  0.00  0.00    +0.000 N 
ATOM      8  C   UNL     1       6.112   6.021  16.335  0.00  0.00    +0.000 C 
ATOM      9  O   UNL     1       5.579   6.134  15.243  0.00  0.00    +0.000 OA
ATOM     10  N   UNL     1       5.650   5.403  17.473  0.00  0.00    +0.000 N 
ATOM     11  C   UNL     1       6.550   5.582  18.508  0.00  0.00    +0.000 C 
ATOM     12  O   UNL     1       6.493   5.192  19.669  0.00  0.00    +0.000 OA
ATOM     13  H   UNL     1       7.829   7.126  15.912  0.00  0.00    +0.000 HD
BRANCH  10  14
ATOM     14  C   UNL     1       4.306   4.939  17.601  0.00  0.00    +0.000 A 
ATOM     15  C   UNL     1       3.873   3.680  17.165  0.00  0.00    +0.000 A 
ATOM     16  C   UNL     1       2.529   3.284  17.279  0.00  0.00    +0.000 A 
ATOM     17  C   UNL     1       1.570   4.179  17.705  0.00  0.00    +0.000 A 
ATOM     18  C   UNL     1       1.981   5.457  18.016  0.00  0.00    +0.000 A 
ATOM     19  C   UNL     1       3.333   5.803  18.068  0.00  0.00    +0.000 A 
ENDBRANCH  10  14
ENDBRANCH   5   6
ENDBRANCH   2   5
BRANCH   3  20
ATOM     20  C   UNL     1       9.018  11.116  17.964  0.00  0.00    +0.000 C 
BRANCH  20  21
ATOM     21  C   UNL     1      10.335  11.874  18.179  0.00  0.00    +0.000 C 
BRANCH  21  22
ATOM     22  C   UNL     1      10.308  13.269  17.607  0.00  0.00    +0.000 A 
ATOM     23  N   UNL     1      11.316  13.905  17.041  0.00  0.00    +0.000 NA
ATOM     24  C   UNL     1      11.008  15.245  17.144  0.00  0.00    +0.000 A 
ATOM     25  C   UNL     1      11.850  16.359  17.022  0.00  0.00    +0.000 A 
ATOM     26  C   UNL     1      11.400  17.604  17.484  0.00  0.00    +0.000 A 
ATOM     27  C   UNL     1      10.098  17.758  17.955  0.00  0.00    +0.000 A 
ATOM     28  C   UNL     1       9.189  16.693  17.928  0.00  0.00    +0.000 A 
ATOM     29  C   UNL     1       9.705  15.427  17.587  0.00  0.00    +0.000 A 
ATOM     30  N   UNL     1       9.244  14.134  17.792  0.00  0.00    +0.000 N 
ATOM     31  H   UNL     1       8.411  13.900  18.313  0.00  0.00    +0.000 HD
ENDBRANCH  21  22
ENDBRANCH  20  21
ENDBRANCH   3  20
TORSDOF 6
ENDMDL
