MODEL 1
REMARK VINA RESULT:      -8.1      0.000      0.000
REMARK  Name = 
REMARK  9 active torsions:
REMARK  status: ('A' for Active; 'I' for Inactive)
REMARK    1  A    between atoms: C_1  and  C_2
REMARK    2  A    between atoms: C_2  and  N_3
REMARK    3  A    between atoms: N_3  and  C_16
REMARK    4  A    between atoms: C_4  and  C_6
REMARK    5  A    between atoms: C_6  and  N_7
REMARK    6  A    between atoms: C_10  and  C_11
REMARK    7  A    between atoms: C_17  and  N_18
REMARK    8  A    between atoms: N_19  and  C_20
REMARK    9  A    between atoms: C_20  and  C_21
REMARK                            x       y       z     vdW  Elec       q    Type
REMARK                         _______ _______ _______ _____ _____    ______ ____
ROOT
ATOM      1  C   UNL     1       2.459   6.330  19.115  0.00  0.00    +0.000 A 
ATOM      2  C   UNL     1       2.258   7.595  18.652  0.00  0.00    +0.000 A 
ATOM      3  N   UNL     1       1.692   8.558  19.493  0.00  0.00    +0.000 N 
ATOM      4  C   UNL     1       1.306   8.286  20.800  0.00  0.00    +0.000 A 
ATOM      5  O   UNL     1       0.720   9.078  21.534  0.00  0.00    +0.000 OA
ATOM      6  N   UNL     1       1.621   7.052  21.279  0.00  0.00    +0.000 N 
ATOM      7  C   UNL     1       2.098   6.020  20.539  0.00  0.00    +0.000 A 
ATOM      8  O   UNL     1       2.140   4.878  20.999  0.00  0.00    +0.000 OA
ATOM      9  H   UNL     1       1.327   6.846  22.222  0.00  0.00    +0.000 HD
ENDROOT
BRANCH   1  10
ATOM     10  N   UNL     1       3.011   5.280  18.351  0.00  0.00    +0.000 N 
ATOM     11  C   UNL     1       4.407   5.121  18.399  0.00  0.00    +0.000 C 
ATOM     12  O   UNL     1       5.136   5.983  18.905  0.00  0.00    +0.000 OA
BRANCH  10  14
ATOM     13  C   UNL     1       1.630   3.170  18.264  0.00  0.00    +0.000 C 
ATOM     14  C   UNL     1       2.105   4.432  17.551  0.00  0.00    +0.000 C 
ENDBRANCH  10  14
BRANCH  11  15
ATOM     15  C   UNL     1       5.030   3.874  17.807  0.00  0.00    +0.000 C 
BRANCH  15  16
ATOM     16  N   UNL     1       5.710   4.176  16.560  0.00  0.00    +0.000 N 
ATOM     17  C   UNL     1       6.855   4.896  16.395  0.00  0.00    +0.000 A 
ATOM     18  C   UNL     1       7.139   4.858  15.051  0.00  0.00    +0.000 A 
ATOM     19  C   UNL     1       6.113   4.062  14.470  0.00  0.00    +0.000 A 
ATOM     20  N   UNL     1       5.254   3.626  15.416  0.00  0.00    +0.000 NA
BRANCH  19  21
ATOM     21  C   UNL     1       5.959   3.717  13.013  0.00  0.00    +0.000 C 
ATOM     22  F   UNL     1       4.738   4.080  12.531  0.00  0.00    +0.000 F 
ATOM     23  F   UNL     1       6.881   4.342  12.232  0.00  0.00    +0.000 F 
ATOM     24  F   UNL     1       6.083   2.382  12.780  0.00  0.00    +0.000 F 
ENDBRANCH  19  21
ENDBRANCH  15  16
ENDBRANCH  11  15
ENDBRANCH   1  10
BRANCH   2  25
ATOM     25  N   UNL     1       2.647   7.945  17.357  0.00  0.00    +0.000 N 
ATOM     26  H   UNL     1       3.613   7.679  17.175  0.00  0.00    +0.000 HD
ATOM     27  H   UNL     1       2.538   8.941  17.186  0.00  0.00    +0.000 HD
ENDBRANCH   2  25
BRANCH   3  28
ATOM     28  C   UNL     1       1.455   9.932  19.025  0.00  0.00    +0.000 C 
BRANCH  28  29
ATOM     29  C   UNL     1       0.008  10.252  18.674  0.00  0.00    +0.000 A 
ATOM     30  C   UNL     1      -0.644  11.310  19.330  0.00  0.00    +0.000 A 
ATOM     31  C   UNL     1      -1.923  11.720  18.940  0.00  0.00    +0.000 A 
ATOM     32  C   UNL     1      -2.572  11.082  17.886  0.00  0.00    +0.000 A 
ATOM     33  C   UNL     1      -1.947  10.025  17.232  0.00  0.00    +0.000 A 
ATOM     34  C   UNL     1      -0.668   9.616  17.620  0.00  0.00    +0.000 A 
ENDBRANCH  28  29
ENDBRANCH   3  28
TORSDOF 8
ENDMDL
MODEL 2
REMARK VINA RESULT:      -7.3      3.768      6.612
REMARK  Name = 
REMARK  9 active torsions:
REMARK  status: ('A' for Active; 'I' for Inactive)
REMARK    1  A    between atoms: C_1  and  C_2
REMARK    2  A    between atoms: C_2  and  N_3
REMARK    3  A    between atoms: N_3  and  C_16
REMARK    4  A    between atoms: C_4  and  C_6
REMARK    5  A    between atoms: C_6  and  N_7
REMARK    6  A    between atoms: C_10  and  C_11
REMARK    7  A    between atoms: C_17  and  N_18
REMARK    8  A    between atoms: N_19  and  C_20
REMARK    9  A    between atoms: C_20  and  C_21
REMARK                            x       y       z     vdW  Elec       q    Type
REMARK                         _______ _______ _______ _____ _____    ______ ____
ROOT
ATOM      1  C   UNL     1      -1.023  11.799  21.120  0.00  0.00    +0.000 A 
ATOM      2  C   UNL     1      -2.073  12.438  20.532  0.00  0.00    +0.000 A 
ATOM      3  N   UNL     1      -3.215  12.729  21.283  0.00  0.00    +0.000 N 
ATOM      4  C   UNL     1      -3.344  12.388  22.624  0.00  0.00    +0.000 A 
ATOM      5  O   UNL     1      -4.366  12.542  23.289  0.00  0.00    +0.000 OA
ATOM      6  N   UNL     1      -2.243  11.857  23.222  0.00  0.00    +0.000 N 
ATOM      7  C   UNL     1      -1.114  11.462  22.580  0.00  0.00    +0.000 A 
ATOM      8  O   UNL     1      -0.262  10.787  23.159  0.00  0.00    +0.000 OA
ATOM      9  H   UNL     1      -2.339  11.592  24.190  0.00  0.00    +0.000 HD
ENDROOT
BRANCH   1  10
ATOM     10  N   UNL     1       0.170  11.447  20.455  0.00  0.00    +0.000 N 
ATOM     11  C   UNL     1       0.136  10.296  19.649  0.00  0.00    +0.000 C 
ATOM     12  O   UNL     1      -0.820   9.511  19.689  0.00  0.00    +0.000 OA
BRANCH  10  14
ATOM     13  C   UNL     1       1.399  13.549  19.796  0.00  0.00    +0.000 C 
ATOM     14  C   UNL     1       1.367  12.287  20.653  0.00  0.00    +0.000 C 
ENDBRANCH  10  14
BRANCH  11  15
ATOM     15  C   UNL     1       1.298  10.006  18.722  0.00  0.00    +0.000 C 
BRANCH  15  16
ATOM     16  N   UNL     1       1.858   8.693  18.987  0.00  0.00    +0.000 N 
ATOM     17  C   UNL     1       1.776   7.976  20.143  0.00  0.00    +0.000 A 
ATOM     18  C   UNL     1       2.400   6.778  19.894  0.00  0.00    +0.000 A 
ATOM     19  C   UNL     1       2.816   6.844  18.536  0.00  0.00    +0.000 A 
ATOM     20  N   UNL     1       2.452   8.019  17.981  0.00  0.00    +0.000 NA
BRANCH  19  21
ATOM     21  C   UNL     1       3.557   5.781  17.769  0.00  0.00    +0.000 C 
ATOM     22  F   UNL     1       4.202   6.292  16.684  0.00  0.00    +0.000 F 
ATOM     23  F   UNL     1       4.506   5.165  18.524  0.00  0.00    +0.000 F 
ATOM     24  F   UNL     1       2.730   4.807  17.301  0.00  0.00    +0.000 F 
ENDBRANCH  19  21
ENDBRANCH  15  16
ENDBRANCH  11  15
ENDBRANCH   1  10
BRANCH   2  25
ATOM     25  N   UNL     1      -2.001  12.834  19.195  0.00  0.00    +0.000 N 
ATOM     26  H   UNL     1      -1.086  12.628  18.795  0.00  0.00    +0.000 HD
ATOM     27  H   UNL     1      -2.198  13.824  19.082  0.00  0.00    +0.000 HD
ENDBRANCH   2  25
BRANCH   3  28
ATOM     28  C   UNL     1      -4.370  13.412  20.680  0.00  0.00    +0.000 C 
BRANCH  28  29
ATOM     29  C   UNL     1      -5.371  12.495  19.989  0.00  0.00    +0.000 A 
ATOM     30  C   UNL     1      -5.191  12.174  18.633  0.00  0.00    +0.000 A 
ATOM     31  C   UNL     1      -6.008  11.231  18.002  0.00  0.00    +0.000 A 
ATOM     32  C   UNL     1      -7.018  10.590  18.716  0.00  0.00    +0.000 A 
ATOM     33  C   UNL     1      -7.218  10.903  20.056  0.00  0.00    +0.000 A 
ATOM     34  C   UNL     1      -6.400  11.845  20.688  0.00  0.00    +0.000 A 
ENDBRANCH  28  29
ENDBRANCH   3  28
TORSDOF 8
ENDMDL
MODEL 3
REMARK VINA RESULT:      -7.1      4.440      8.561
REMARK  Name = 
REMARK  9 active torsions:
REMARK  status: ('A' for Active; 'I' for Inactive)
REMARK    1  A    between atoms: C_1  and  C_2
REMARK    2  A    between atoms: C_2  and  N_3
REMARK    3  A    between atoms: N_3  and  C_16
REMARK    4  A    between atoms: C_4  and  C_6
REMARK    5  A    between atoms: C_6  and  N_7
REMARK    6  A    between atoms: C_10  and  C_11
REMARK    7  A    between atoms: C_17  and  N_18
REMARK    8  A    between atoms: N_19  and  C_20
REMARK    9  A    between atoms: C_20  and  C_21
REMARK                            x       y       z     vdW  Elec       q    Type
REMARK                         _______ _______ _______ _____ _____    ______ ____
ROOT
ATOM      1  C   UNL     1       4.491   5.712  17.762  0.00  0.00    +0.000 A 
ATOM      2  C   UNL     1       5.303   5.919  16.689  0.00  0.00    +0.000 A 
ATOM      3  N   UNL     1       6.582   5.354  16.669  0.00  0.00    +0.000 N 
ATOM      4  C   UNL     1       7.083   4.584  17.711  0.00  0.00    +0.000 A 
ATOM      5  O   UNL     1       8.233   4.153  17.771  0.00  0.00    +0.000 OA
ATOM      6  N   UNL     1       6.217   4.293  18.720  0.00  0.00    +0.000 N 
ATOM      7  C   UNL     1       4.987   4.843  18.882  0.00  0.00    +0.000 A 
ATOM      8  O   UNL     1       4.365   4.700  19.935  0.00  0.00    +0.000 OA
ATOM      9  H   UNL     1       6.583   3.750  19.486  0.00  0.00    +0.000 HD
ENDROOT
BRANCH   1  10
ATOM     10  N   UNL     1       3.190   6.242  17.892  0.00  0.00    +0.000 N 
ATOM     11  C   UNL     1       3.059   7.640  17.816  0.00  0.00    +0.000 C 
ATOM     12  O   UNL     1       4.050   8.382  17.853  0.00  0.00    +0.000 OA
BRANCH  10  14
ATOM     13  C   UNL     1       2.143   4.027  17.293  0.00  0.00    +0.000 C 
ATOM     14  C   UNL     1       2.064   5.313  18.109  0.00  0.00    +0.000 C 
ENDBRANCH  10  14
BRANCH  11  15
ATOM     15  C   UNL     1       1.678   8.249  17.700  0.00  0.00    +0.000 C 
BRANCH  15  16
ATOM     16  N   UNL     1       1.405   9.132  18.820  0.00  0.00    +0.000 N 
ATOM     17  C   UNL     1       1.340  10.493  18.803  0.00  0.00    +0.000 A 
ATOM     18  C   UNL     1       0.997  10.875  20.078  0.00  0.00    +0.000 A 
ATOM     19  C   UNL     1       0.848   9.662  20.807  0.00  0.00    +0.000 A 
ATOM     20  N   UNL     1       1.076   8.595  20.012  0.00  0.00    +0.000 NA
BRANCH  19  21
ATOM     21  C   UNL     1       0.482   9.527  22.261  0.00  0.00    +0.000 C 
ATOM     22  F   UNL     1       0.009  10.696  22.778  0.00  0.00    +0.000 F 
ATOM     23  F   UNL     1      -0.488   8.596  22.467  0.00  0.00    +0.000 F 
ATOM     24  F   UNL     1       1.544   9.169  23.032  0.00  0.00    +0.000 F 
ENDBRANCH  19  21
ENDBRANCH  15  16
ENDBRANCH  11  15
ENDBRANCH   1  10
BRANCH   2  25
ATOM     25  N   UNL     1       4.854   6.661  15.594  0.00  0.00    +0.000 N 
ATOM     26  H   UNL     1       3.914   6.381  15.317  0.00  0.00    +0.000 HD
ATOM     27  H   UNL     1       5.477   6.572  14.796  0.00  0.00    +0.000 HD
ENDBRANCH   2  25
BRANCH   3  28
ATOM     28  C   UNL     1       7.488   5.561  15.529  0.00  0.00    +0.000 C 
BRANCH  28  29
ATOM     29  C   UNL     1       7.056   4.889  14.233  0.00  0.00    +0.000 A 
ATOM     30  C   UNL     1       7.705   5.224  13.032  0.00  0.00    +0.000 A 
ATOM     31  C   UNL     1       7.429   4.531  11.848  0.00  0.00    +0.000 A 
ATOM     32  C   UNL     1       6.504   3.491  11.844  0.00  0.00    +0.000 A 
ATOM     33  C   UNL     1       5.844   3.153  13.021  0.00  0.00    +0.000 A 
ATOM     34  C   UNL     1       6.119   3.843  14.205  0.00  0.00    +0.000 A 
ENDBRANCH  28  29
ENDBRANCH   3  28
TORSDOF 8
ENDMDL
MODEL 4
REMARK VINA RESULT:      -7.0      5.458      9.670
REMARK  Name = 
REMARK  9 active torsions:
REMARK  status: ('A' for Active; 'I' for Inactive)
REMARK    1  A    between atoms: C_1  and  C_2
REMARK    2  A    between atoms: C_2  and  N_3
REMARK    3  A    between atoms: N_3  and  C_16
REMARK    4  A    between atoms: C_4  and  C_6
REMARK    5  A    between atoms: C_6  and  N_7
REMARK    6  A    between atoms: C_10  and  C_11
REMARK    7  A    between atoms: C_17  and  N_18
REMARK    8  A    between atoms: N_19  and  C_20
REMARK    9  A    between atoms: C_20  and  C_21
REMARK                            x       y       z     vdW  Elec       q    Type
REMARK                         _______ _______ _______ _____ _____    ______ ____
ROOT
ATOM      1  C   UNL     1       1.229   9.243  19.568  0.00  0.00    +0.000 A 
ATOM      2  C   UNL     1       1.846   8.421  18.675  0.00  0.00    +0.000 A 
ATOM      3  N   UNL     1       2.226   7.134  19.066  0.00  0.00    +0.000 N 
ATOM      4  C   UNL     1       2.011   6.640  20.348  0.00  0.00    +0.000 A 
ATOM      5  O   UNL     1       2.416   5.554  20.754  0.00  0.00    +0.000 OA
ATOM      6  N   UNL     1       1.292   7.432  21.189  0.00  0.00    +0.000 N 
ATOM      7  C   UNL     1       0.940   8.720  20.946  0.00  0.00    +0.000 A 
ATOM      8  O   UNL     1       0.492   9.433  21.844  0.00  0.00    +0.000 OA
ATOM      9  H   UNL     1       1.150   7.085  22.124  0.00  0.00    +0.000 HD
ENDROOT
BRANCH   1  10
ATOM     10  N   UNL     1       0.815  10.562  19.284  0.00  0.00    +0.000 N 
ATOM     11  C   UNL     1      -0.466  10.723  18.728  0.00  0.00    +0.000 C 
ATOM     12  O   UNL     1      -1.111   9.754  18.306  0.00  0.00    +0.000 OA
BRANCH  10  14
ATOM     13  C   UNL     1       2.350  12.324  18.335  0.00  0.00    +0.000 C 
ATOM     14  C   UNL     1       1.741  11.674  19.573  0.00  0.00    +0.000 C 
ENDBRANCH  10  14
BRANCH  11  15
ATOM     15  C   UNL     1      -1.062  12.112  18.633  0.00  0.00    +0.000 C 
BRANCH  15  16
ATOM     16  N   UNL     1      -2.008  12.345  19.709  0.00  0.00    +0.000 N 
ATOM     17  C   UNL     1      -3.325  12.676  19.596  0.00  0.00    +0.000 A 
ATOM     18  C   UNL     1      -3.816  12.730  20.879  0.00  0.00    +0.000 A 
ATOM     19  C   UNL     1      -2.719  12.390  21.718  0.00  0.00    +0.000 A 
ATOM     20  N   UNL     1      -1.617  12.130  20.982  0.00  0.00    +0.000 NA
BRANCH  19  21
ATOM     21  C   UNL     1      -2.727  12.311  23.221  0.00  0.00    +0.000 C 
ATOM     22  F   UNL     1      -3.991  12.367  23.726  0.00  0.00    +0.000 F 
ATOM     23  F   UNL     1      -2.182  11.152  23.681  0.00  0.00    +0.000 F 
ATOM     24  F   UNL     1      -2.037  13.330  23.799  0.00  0.00    +0.000 F 
ENDBRANCH  19  21
ENDBRANCH  15  16
ENDBRANCH  11  15
ENDBRANCH   1  10
BRANCH   2  25
ATOM     25  N   UNL     1       2.069   8.843  17.362  0.00  0.00    +0.000 N 
ATOM     26  H   UNL     1       1.231   9.259  16.959  0.00  0.00    +0.000 HD
ATOM     27  H   UNL     1       2.380   8.079  16.767  0.00  0.00    +0.000 HD
ENDBRANCH   2  25
BRANCH   3  28
ATOM     28  C   UNL     1       2.899   6.221  18.130  0.00  0.00    +0.000 C 
BRANCH  28  29
ATOM     29  C   UNL     1       4.421   6.276  18.159  0.00  0.00    +0.000 A 
ATOM     30  C   UNL     1       5.123   5.451  19.053  0.00  0.00    +0.000 A 
ATOM     31  C   UNL     1       6.520   5.374  19.016  0.00  0.00    +0.000 A 
ATOM     32  C   UNL     1       7.237   6.117  18.082  0.00  0.00    +0.000 A 
ATOM     33  C   UNL     1       6.559   6.948  17.196  0.00  0.00    +0.000 A 
ATOM     34  C   UNL     1       5.163   7.024  17.232  0.00  0.00    +0.000 A 
ENDBRANCH  28  29
ENDBRANCH   3  28
TORSDOF 8
ENDMDL
MODEL 5
REMARK VINA RESULT:      -7.0      4.464      8.567
REMARK  Name = 
REMARK  9 active torsions:
REMARK  status: ('A' for Active; 'I' for Inactive)
REMARK    1  A    between atoms: C_1  and  C_2
REMARK    2  A    between atoms: C_2  and  N_3
REMARK    3  A    between atoms: N_3  and  C_16
REMARK    4  A    between atoms: C_4  and  C_6
REMARK    5  A    between atoms: C_6  and  N_7
REMARK    6  A    between atoms: C_10  and  C_11
REMARK    7  A    between atoms: C_17  and  N_18
REMARK    8  A    between atoms: N_19  and  C_20
REMARK    9  A    between atoms: C_20  and  C_21
REMARK                            x       y       z     vdW  Elec       q    Type
REMARK                         _______ _______ _______ _____ _____    ______ ____
ROOT
ATOM      1  C   UNL     1       4.453   5.773  17.786  0.00  0.00    +0.000 A 
ATOM      2  C   UNL     1       5.260   5.994  16.712  0.00  0.00    +0.000 A 
ATOM      3  N   UNL     1       6.539   5.430  16.679  0.00  0.00    +0.000 N 
ATOM      4  C   UNL     1       7.045   4.646  17.709  0.00  0.00    +0.000 A 
ATOM      5  O   UNL     1       8.194   4.215  17.758  0.00  0.00    +0.000 OA
ATOM      6  N   UNL     1       6.183   4.342  18.717  0.00  0.00    +0.000 N 
ATOM      7  C   UNL     1       4.954   4.889  18.892  0.00  0.00    +0.000 A 
ATOM      8  O   UNL     1       4.336   4.732  19.945  0.00  0.00    +0.000 OA
ATOM      9  H   UNL     1       6.553   3.788  19.474  0.00  0.00    +0.000 HD
ENDROOT
BRANCH   1  10
ATOM     10  N   UNL     1       3.152   6.301  17.928  0.00  0.00    +0.000 N 
ATOM     11  C   UNL     1       3.021   7.700  17.867  0.00  0.00    +0.000 C 
ATOM     12  O   UNL     1       4.011   8.441  17.904  0.00  0.00    +0.000 OA
BRANCH  10  14
ATOM     13  C   UNL     1       2.066   4.124  17.264  0.00  0.00    +0.000 C 
ATOM     14  C   UNL     1       2.028   5.370  18.143  0.00  0.00    +0.000 C 
ENDBRANCH  10  14
BRANCH  11  15
ATOM     15  C   UNL     1       1.638   8.309  17.764  0.00  0.00    +0.000 C 
BRANCH  15  16
ATOM     16  N   UNL     1       1.371   9.181  18.894  0.00  0.00    +0.000 N 
ATOM     17  C   UNL     1       1.331  10.543  18.896  0.00  0.00    +0.000 A 
ATOM     18  C   UNL     1       0.983  10.912  20.174  0.00  0.00    +0.000 A 
ATOM     19  C   UNL     1       0.806   9.692  20.885  0.00  0.00    +0.000 A 
ATOM     20  N   UNL     1       1.023   8.633  20.076  0.00  0.00    +0.000 NA
BRANCH  19  21
ATOM     21  C   UNL     1       0.426   9.543  22.333  0.00  0.00    +0.000 C 
ATOM     22  F   UNL     1       1.497   9.215  23.109  0.00  0.00    +0.000 F 
ATOM     23  F   UNL     1      -0.088  10.689  22.855  0.00  0.00    +0.000 F 
ATOM     24  F   UNL     1      -0.502   8.568  22.528  0.00  0.00    +0.000 F 
ENDBRANCH  19  21
ENDBRANCH  15  16
ENDBRANCH  11  15
ENDBRANCH   1  10
BRANCH   2  25
ATOM     25  N   UNL     1       4.806   6.750  15.629  0.00  0.00    +0.000 N 
ATOM     26  H   UNL     1       5.201   7.690  15.641  0.00  0.00    +0.000 HD
ATOM     27  H   UNL     1       3.792   6.816  15.612  0.00  0.00    +0.000 HD
ENDBRANCH   2  25
BRANCH   3  28
ATOM     28  C   UNL     1       7.440   5.653  15.538  0.00  0.00    +0.000 C 
BRANCH  28  29
ATOM     29  C   UNL     1       7.127   4.823  14.299  0.00  0.00    +0.000 A 
ATOM     30  C   UNL     1       6.118   3.847  14.359  0.00  0.00    +0.000 A 
ATOM     31  C   UNL     1       5.710   3.162  13.210  0.00  0.00    +0.000 A 
ATOM     32  C   UNL     1       6.301   3.443  11.981  0.00  0.00    +0.000 A 
ATOM     33  C   UNL     1       7.309   4.398  11.904  0.00  0.00    +0.000 A 
ATOM     34  C   UNL     1       7.716   5.085  13.051  0.00  0.00    +0.000 A 
ENDBRANCH  28  29
ENDBRANCH   3  28
TORSDOF 8
ENDMDL
MODEL 6
REMARK VINA RESULT:      -6.9      5.313      9.294
REMARK  Name = 
REMARK  9 active torsions:
REMARK  status: ('A' for Active; 'I' for Inactive)
REMARK    1  A    between atoms: C_1  and  C_2
REMARK    2  A    between atoms: C_2  and  N_3
REMARK    3  A    between atoms: N_3  and  C_16
REMARK    4  A    between atoms: C_4  and  C_6
REMARK    5  A    between atoms: C_6  and  N_7
REMARK    6  A    between atoms: C_10  and  C_11
REMARK    7  A    between atoms: C_17  and  N_18
REMARK    8  A    between atoms: N_19  and  C_20
REMARK    9  A    between atoms: C_20  and  C_21
REMARK                            x       y       z     vdW  Elec       q    Type
REMARK                         _______ _______ _______ _____ _____    ______ ____
ROOT
ATOM      1  C   UNL     1       1.292   9.079  19.412  0.00  0.00    +0.000 A 
ATOM      2  C   UNL     1       1.975   8.263  18.562  0.00  0.00    +0.000 A 
ATOM      3  N   UNL     1       2.413   7.012  19.007  0.00  0.00    +0.000 N 
ATOM      4  C   UNL     1       2.193   6.550  20.299  0.00  0.00    +0.000 A 
ATOM      5  O   UNL     1       2.645   5.501  20.751  0.00  0.00    +0.000 OA
ATOM      6  N   UNL     1       1.411   7.329  21.095  0.00  0.00    +0.000 N 
ATOM      7  C   UNL     1       0.996   8.587  20.799  0.00  0.00    +0.000 A 
ATOM      8  O   UNL     1       0.487   9.303  21.662  0.00  0.00    +0.000 OA
ATOM      9  H   UNL     1       1.264   7.005  22.038  0.00  0.00    +0.000 HD
ENDROOT
BRANCH   1  10
ATOM     10  N   UNL     1       0.815  10.363  19.074  0.00  0.00    +0.000 N 
ATOM     11  C   UNL     1      -0.426  10.430  18.415  0.00  0.00    +0.000 C 
ATOM     12  O   UNL     1      -0.969   9.415  17.962  0.00  0.00    +0.000 OA
BRANCH  10  14
ATOM     13  C   UNL     1       2.407  12.132  18.237  0.00  0.00    +0.000 C 
ATOM     14  C   UNL     1       1.639  11.539  19.414  0.00  0.00    +0.000 C 
ENDBRANCH  10  14
BRANCH  11  15
ATOM     15  C   UNL     1      -1.103  11.775  18.249  0.00  0.00    +0.000 C 
BRANCH  15  16
ATOM     16  N   UNL     1      -2.440  11.617  17.705  0.00  0.00    +0.000 N 
ATOM     17  C   UNL     1      -2.780  11.290  16.427  0.00  0.00    +0.000 A 
ATOM     18  C   UNL     1      -4.152  11.200  16.408  0.00  0.00    +0.000 A 
ATOM     19  C   UNL     1      -4.566  11.469  17.742  0.00  0.00    +0.000 A 
ATOM     20  N   UNL     1      -3.499  11.699  18.537  0.00  0.00    +0.000 NA
BRANCH  19  21
ATOM     21  C   UNL     1      -5.981  11.502  18.255  0.00  0.00    +0.000 C 
ATOM     22  F   UNL     1      -6.055  12.024  19.511  0.00  0.00    +0.000 F 
ATOM     23  F   UNL     1      -6.797  12.262  17.476  0.00  0.00    +0.000 F 
ATOM     24  F   UNL     1      -6.538  10.263  18.321  0.00  0.00    +0.000 F 
ENDBRANCH  19  21
ENDBRANCH  15  16
ENDBRANCH  11  15
ENDBRANCH   1  10
BRANCH   2  25
ATOM     25  N   UNL     1       2.208   8.653  17.242  0.00  0.00    +0.000 N 
ATOM     26  H   UNL     1       3.202   8.795  17.067  0.00  0.00    +0.000 HD
ATOM     27  H   UNL     1       1.703   9.502  17.003  0.00  0.00    +0.000 HD
ENDBRANCH   2  25
BRANCH   3  28
ATOM     28  C   UNL     1       3.159   6.107  18.118  0.00  0.00    +0.000 C 
BRANCH  28  29
ATOM     29  C   UNL     1       4.675   6.227  18.203  0.00  0.00    +0.000 A 
ATOM     30  C   UNL     1       5.382   5.413  19.103  0.00  0.00    +0.000 A 
ATOM     31  C   UNL     1       6.781   5.397  19.113  0.00  0.00    +0.000 A 
ATOM     32  C   UNL     1       7.496   6.192  18.221  0.00  0.00    +0.000 A 
ATOM     33  C   UNL     1       6.813   7.013  17.330  0.00  0.00    +0.000 A 
ATOM     34  C   UNL     1       5.415   7.028  17.318  0.00  0.00    +0.000 A 
ENDBRANCH  28  29
ENDBRANCH   3  28
TORSDOF 8
ENDMDL
MODEL 7
REMARK VINA RESULT:      -6.9      6.224     10.027
REMARK  Name = 
REMARK  9 active torsions:
REMARK  status: ('A' for Active; 'I' for Inactive)
REMARK    1  A    between atoms: C_1  and  C_2
REMARK    2  A    between atoms: C_2  and  N_3
REMARK    3  A    between atoms: N_3  and  C_16
REMARK    4  A    between atoms: C_4  and  C_6
REMARK    5  A    between atoms: C_6  and  N_7
REMARK    6  A    between atoms: C_10  and  C_11
REMARK    7  A    between atoms: C_17  and  N_18
REMARK    8  A    between atoms: N_19  and  C_20
REMARK    9  A    between atoms: C_20  and  C_21
REMARK                            x       y       z     vdW  Elec       q    Type
REMARK                         _______ _______ _______ _____ _____    ______ ____
ROOT
ATOM      1  C   UNL     1      -0.335  10.566  19.402  0.00  0.00    +0.000 A 
ATOM      2  C   UNL     1       0.656   9.702  19.047  0.00  0.00    +0.000 A 
ATOM      3  N   UNL     1       1.345   8.993  20.036  0.00  0.00    +0.000 N 
ATOM      4  C   UNL     1       1.072   9.131  21.392  0.00  0.00    +0.000 A 
ATOM      5  O   UNL     1       1.718   8.599  22.291  0.00  0.00    +0.000 OA
ATOM      6  N   UNL     1       0.004   9.909  21.718  0.00  0.00    +0.000 N 
ATOM      7  C   UNL     1      -0.685  10.699  20.857  0.00  0.00    +0.000 A 
ATOM      8  O   UNL     1      -1.486  11.537  21.271  0.00  0.00    +0.000 OA
ATOM      9  H   UNL     1      -0.185  10.025  22.702  0.00  0.00    +0.000 HD
ENDROOT
BRANCH   1  10
ATOM     10  N   UNL     1      -1.084  11.339  18.491  0.00  0.00    +0.000 N 
ATOM     11  C   UNL     1      -2.146  10.696  17.830  0.00  0.00    +0.000 C 
ATOM     12  O   UNL     1      -2.284   9.467  17.878  0.00  0.00    +0.000 OA
BRANCH  10  14
ATOM     13  C   UNL     1       0.775  13.043  18.488  0.00  0.00    +0.000 C 
ATOM     14  C   UNL     1      -0.707  12.750  18.279  0.00  0.00    +0.000 C 
ENDBRANCH  10  14
BRANCH  11  15
ATOM     15  C   UNL     1      -3.133  11.525  17.036  0.00  0.00    +0.000 C 
BRANCH  15  16
ATOM     16  N   UNL     1      -4.373  11.702  17.772  0.00  0.00    +0.000 N 
ATOM     17  C   UNL     1      -5.641  11.497  17.318  0.00  0.00    +0.000 A 
ATOM     18  C   UNL     1      -6.472  11.734  18.387  0.00  0.00    +0.000 A 
ATOM     19  C   UNL     1      -5.609  12.058  19.471  0.00  0.00    +0.000 A 
ATOM     20  N   UNL     1      -4.317  12.008  19.084  0.00  0.00    +0.000 NA
BRANCH  19  21
ATOM     21  C   UNL     1      -6.022  12.409  20.875  0.00  0.00    +0.000 C 
ATOM     22  F   UNL     1      -4.986  12.301  21.752  0.00  0.00    +0.000 F 
ATOM     23  F   UNL     1      -6.478  13.687  20.976  0.00  0.00    +0.000 F 
ATOM     24  F   UNL     1      -7.009  11.599  21.344  0.00  0.00    +0.000 F 
ENDBRANCH  19  21
ENDBRANCH  15  16
ENDBRANCH  11  15
ENDBRANCH   1  10
BRANCH   2  25
ATOM     25  N   UNL     1       0.965   9.494  17.701  0.00  0.00    +0.000 N 
ATOM     26  H   UNL     1       1.917   9.789  17.488  0.00  0.00    +0.000 HD
ATOM     27  H   UNL     1       0.320   9.983  17.085  0.00  0.00    +0.000 HD
ENDBRANCH   2  25
BRANCH   3  28
ATOM     28  C   UNL     1       2.425   8.057  19.689  0.00  0.00    +0.000 C 
BRANCH  28  29
ATOM     29  C   UNL     1       1.984   6.614  19.482  0.00  0.00    +0.000 A 
ATOM     30  C   UNL     1       2.091   6.036  18.206  0.00  0.00    +0.000 A 
ATOM     31  C   UNL     1       1.825   4.677  18.006  0.00  0.00    +0.000 A 
ATOM     32  C   UNL     1       1.450   3.872  19.078  0.00  0.00    +0.000 A 
ATOM     33  C   UNL     1       1.328   4.429  20.347  0.00  0.00    +0.000 A 
ATOM     34  C   UNL     1       1.595   5.787  20.548  0.00  0.00    +0.000 A 
ENDBRANCH  28  29
ENDBRANCH   3  28
TORSDOF 8
ENDMDL
MODEL 8
REMARK VINA RESULT:      -6.9      4.342      6.812
REMARK  Name = 
REMARK  9 active torsions:
REMARK  status: ('A' for Active; 'I' for Inactive)
REMARK    1  A    between atoms: C_1  and  C_2
REMARK    2  A    between atoms: C_2  and  N_3
REMARK    3  A    between atoms: N_3  and  C_16
REMARK    4  A    between atoms: C_4  and  C_6
REMARK    5  A    between atoms: C_6  and  N_7
REMARK    6  A    between atoms: C_10  and  C_11
REMARK    7  A    between atoms: C_17  and  N_18
REMARK    8  A    between atoms: N_19  and  C_20
REMARK    9  A    between atoms: C_20  and  C_21
REMARK                            x       y       z     vdW  Elec       q    Type
REMARK                         _______ _______ _______ _____ _____    ______ ____
ROOT
ATOM      1  C   UNL     1      -0.653  11.799  20.933  0.00  0.00    +0.000 A 
ATOM      2  C   UNL     1      -1.737  12.449  20.427  0.00  0.00    +0.000 A 
ATOM      3  N   UNL     1      -2.859  12.658  21.234  0.00  0.00    +0.000 N 
ATOM      4  C   UNL     1      -2.933  12.222  22.551  0.00  0.00    +0.000 A 
ATOM      5  O   UNL     1      -3.934  12.303  23.258  0.00  0.00    +0.000 OA
ATOM      6  N   UNL     1      -1.799  11.679  23.074  0.00  0.00    +0.000 N 
ATOM      7  C   UNL     1      -0.685  11.360  22.369  0.00  0.00    +0.000 A 
ATOM      8  O   UNL     1       0.203  10.669  22.870  0.00  0.00    +0.000 OA
ATOM      9  H   UNL     1      -1.855  11.346  24.024  0.00  0.00    +0.000 HD
ENDROOT
BRANCH   1  10
ATOM     10  N   UNL     1       0.525  11.524  20.206  0.00  0.00    +0.000 N 
ATOM     11  C   UNL     1       0.491  10.428  19.326  0.00  0.00    +0.000 C 
ATOM     12  O   UNL     1      -0.443   9.616  19.346  0.00  0.00    +0.000 OA
BRANCH  10  14
ATOM     13  C   UNL     1       1.700  13.674  19.607  0.00  0.00    +0.000 C 
ATOM     14  C   UNL     1       1.706  12.383  20.419  0.00  0.00    +0.000 C 
ENDBRANCH  10  14
BRANCH  11  15
ATOM     15  C   UNL     1       1.627  10.233  18.344  0.00  0.00    +0.000 C 
BRANCH  15  16
ATOM     16  N   UNL     1       2.109   8.864  18.375  0.00  0.00    +0.000 N 
ATOM     17  C   UNL     1       2.965   8.268  17.498  0.00  0.00    +0.000 A 
ATOM     18  C   UNL     1       3.171   6.994  17.972  0.00  0.00    +0.000 A 
ATOM     19  C   UNL     1       2.410   6.910  19.171  0.00  0.00    +0.000 A 
ATOM     20  N   UNL     1       1.782   8.078  19.421  0.00  0.00    +0.000 NA
BRANCH  19  21
ATOM     21  C   UNL     1       2.290   5.713  20.076  0.00  0.00    +0.000 C 
ATOM     22  F   UNL     1       3.491   5.102  20.274  0.00  0.00    +0.000 F 
ATOM     23  F   UNL     1       1.820   6.043  21.310  0.00  0.00    +0.000 F 
ATOM     24  F   UNL     1       1.454   4.765  19.575  0.00  0.00    +0.000 F 
ENDBRANCH  19  21
ENDBRANCH  15  16
ENDBRANCH  11  15
ENDBRANCH   1  10
BRANCH   2  25
ATOM     25  N   UNL     1      -1.721  12.937  19.118  0.00  0.00    +0.000 N 
ATOM     26  H   UNL     1      -2.635  13.295  18.844  0.00  0.00    +0.000 HD
ATOM     27  H   UNL     1      -1.428  12.227  18.453  0.00  0.00    +0.000 HD
ENDBRANCH   2  25
BRANCH   3  28
ATOM     28  C   UNL     1      -4.050  13.350  20.718  0.00  0.00    +0.000 C 
BRANCH  28  29
ATOM     29  C   UNL     1      -5.045  12.460  19.985  0.00  0.00    +0.000 A 
ATOM     30  C   UNL     1      -6.271  12.148  20.595  0.00  0.00    +0.000 A 
ATOM     31  C   UNL     1      -7.263  11.448  19.901  0.00  0.00    +0.000 A 
ATOM     32  C   UNL     1      -7.048  11.051  18.583  0.00  0.00    +0.000 A 
ATOM     33  C   UNL     1      -5.836  11.342  17.966  0.00  0.00    +0.000 A 
ATOM     34  C   UNL     1      -4.845  12.043  18.659  0.00  0.00    +0.000 A 
ENDBRANCH  28  29
ENDBRANCH   3  28
TORSDOF 8
ENDMDL
MODEL 9
REMARK VINA RESULT:      -6.9      4.666      8.672
REMARK  Name = 
REMARK  9 active torsions:
REMARK  status: ('A' for Active; 'I' for Inactive)
REMARK    1  A    between atoms: C_1  and  C_2
REMARK    2  A    between atoms: C_2  and  N_3
REMARK    3  A    between atoms: N_3  and  C_16
REMARK    4  A    between atoms: C_4  and  C_6
REMARK    5  A    between atoms: C_6  and  N_7
REMARK    6  A    between atoms: C_10  and  C_11
REMARK    7  A    between atoms: C_17  and  N_18
REMARK    8  A    between atoms: N_19  and  C_20
REMARK    9  A    between atoms: C_20  and  C_21
REMARK                            x       y       z     vdW  Elec       q    Type
REMARK                         _______ _______ _______ _____ _____    ______ ____
ROOT
ATOM      1  C   UNL     1       4.559   5.611  17.862  0.00  0.00    +0.000 A 
ATOM      2  C   UNL     1       5.320   5.883  16.766  0.00  0.00    +0.000 A 
ATOM      3  N   UNL     1       6.599   5.330  16.657  0.00  0.00    +0.000 N 
ATOM      4  C   UNL     1       7.151   4.506  17.631  0.00  0.00    +0.000 A 
ATOM      5  O   UNL     1       8.304   4.081  17.615  0.00  0.00    +0.000 OA
ATOM      6  N   UNL     1       6.333   4.153  18.660  0.00  0.00    +0.000 N 
ATOM      7  C   UNL     1       5.109   4.684  18.907  0.00  0.00    +0.000 A 
ATOM      8  O   UNL     1       4.536   4.478  19.977  0.00  0.00    +0.000 OA
ATOM      9  H   UNL     1       6.736   3.570  19.377  0.00  0.00    +0.000 HD
ENDROOT
BRANCH   1  10
ATOM     10  N   UNL     1       3.262   6.123  18.080  0.00  0.00    +0.000 N 
ATOM     11  C   UNL     1       3.116   7.522  18.057  0.00  0.00    +0.000 C 
ATOM     12  O   UNL     1       4.101   8.271  18.063  0.00  0.00    +0.000 OA
BRANCH  10  14
ATOM     13  C   UNL     1       2.025   4.076  17.279  0.00  0.00    +0.000 C 
ATOM     14  C   UNL     1       2.158   5.176  18.327  0.00  0.00    +0.000 C 
ENDBRANCH  10  14
BRANCH  11  15
ATOM     15  C   UNL     1       1.725   8.119  18.036  0.00  0.00    +0.000 C 
BRANCH  15  16
ATOM     16  N   UNL     1       1.368   8.648  19.341  0.00  0.00    +0.000 N 
ATOM     17  C   UNL     1       1.590   8.071  20.556  0.00  0.00    +0.000 A 
ATOM     18  C   UNL     1       1.136   8.969  21.492  0.00  0.00    +0.000 A 
ATOM     19  C   UNL     1       0.669  10.088  20.748  0.00  0.00    +0.000 A 
ATOM     20  N   UNL     1       0.843   9.887  19.424  0.00  0.00    +0.000 NA
BRANCH  19  21
ATOM     21  C   UNL     1       0.063  11.348  21.304  0.00  0.00    +0.000 C 
ATOM     22  F   UNL     1       0.942  12.389  21.281  0.00  0.00    +0.000 F 
ATOM     23  F   UNL     1      -1.028  11.753  20.600  0.00  0.00    +0.000 F 
ATOM     24  F   UNL     1      -0.331  11.208  22.599  0.00  0.00    +0.000 F 
ENDBRANCH  19  21
ENDBRANCH  15  16
ENDBRANCH  11  15
ENDBRANCH   1  10
BRANCH   2  25
ATOM     25  N   UNL     1       4.818   6.682  15.736  0.00  0.00    +0.000 N 
ATOM     26  H   UNL     1       3.944   6.308  15.369  0.00  0.00    +0.000 HD
ATOM     27  H   UNL     1       5.484   6.780  14.975  0.00  0.00    +0.000 HD
ENDBRANCH   2  25
BRANCH   3  28
ATOM     28  C   UNL     1       7.452   5.607  15.491  0.00  0.00    +0.000 C 
BRANCH  28  29
ATOM     29  C   UNL     1       7.032   4.907  14.205  0.00  0.00    +0.000 A 
ATOM     30  C   UNL     1       7.727   5.175  13.014  0.00  0.00    +0.000 A 
ATOM     31  C   UNL     1       7.460   4.453  11.846  0.00  0.00    +0.000 A 
ATOM     32  C   UNL     1       6.496   3.449  11.850  0.00  0.00    +0.000 A 
ATOM     33  C   UNL     1       5.789   3.176  13.016  0.00  0.00    +0.000 A 
ATOM     34  C   UNL     1       6.057   3.896  14.185  0.00  0.00    +0.000 A 
ENDBRANCH  28  29
ENDBRANCH   3  28
TORSDOF 8
ENDMDL
