MODEL 1
REMARK VINA RESULT:      -8.9      0.000      0.000
REMARK  Name = 
REMARK  4 active torsions:
REMARK  status: ('A' for Active; 'I' for Inactive)
REMARK    1  A    between atoms: C_2  and  C_11
REMARK    2  A    between atoms: N_3  and  C_4
REMARK    3  A    between atoms: C_4  and  C_5
REMARK    4  A    between atoms: C_13  and  C_14
REMARK                            x       y       z     vdW  Elec       q    Type
REMARK                         _______ _______ _______ _____ _____    ______ ____
ROOT
ATOM      1  C   UNL     1       3.290   5.900  19.256  0.00  0.00    +0.000 A 
ATOM      2  C   UNL     1       4.698   5.957  19.245  0.00  0.00    +0.000 A 
ATOM      3  C   UNL     1       5.305   4.871  18.676  0.00  0.00    +0.000 A 
ATOM      4  N   UNL     1       4.960   3.753  19.295  0.00  0.00    +0.000 NA
ATOM      5  C   UNL     1       3.641   3.524  19.292  0.00  0.00    +0.000 A 
ATOM      6  C   UNL     1       3.274   2.197  19.138  0.00  0.00    +0.000 A 
ATOM      7  C   UNL     1       1.968   1.843  18.874  0.00  0.00    +0.000 A 
ATOM      8  C   UNL     1       0.986   2.843  18.900  0.00  0.00    +0.000 A 
ATOM      9  C   UNL     1       1.325   4.195  19.072  0.00  0.00    +0.000 A 
ATOM     10  C   UNL     1       2.686   4.586  19.208  0.00  0.00    +0.000 A 
ENDROOT
BRANCH   3  11
ATOM     11  C   UNL     1       5.161   4.674  17.160  0.00  0.00    +0.000 A 
ATOM     12  C   UNL     1       5.635   3.521  16.515  0.00  0.00    +0.000 A 
ATOM     13  C   UNL     1       6.152   3.591  15.216  0.00  0.00    +0.000 A 
ATOM     14  C   UNL     1       6.137   4.800  14.526  0.00  0.00    +0.000 A 
ATOM     15  C   UNL     1       5.495   5.904  15.077  0.00  0.00    +0.000 A 
ATOM     16  C   UNL     1       4.952   5.818  16.358  0.00  0.00    +0.000 A 
ENDBRANCH   3  11
BRANCH   1  18
ATOM     17  O   UNL     1       2.849   7.793  17.910  0.00  0.00    +0.000 OA
ATOM     18  C   UNL     1       2.740   7.286  19.036  0.00  0.00    +0.000 C 
ATOM     19  N   UNL     1       1.936   7.867  19.991  0.00  0.00    +0.000 N 
ATOM     20  H   UNL     1       1.779   7.395  20.871  0.00  0.00    +0.000 HD
BRANCH  19  21
ATOM     21  C   UNL     1       0.994   8.932  19.630  0.00  0.00    +0.000 C 
BRANCH  21  22
ATOM     22  C   UNL     1       0.481   9.601  20.883  0.00  0.00    +0.000 A 
ATOM     23  C   UNL     1       0.626   8.961  22.119  0.00  0.00    +0.000 A 
ATOM     24  C   UNL     1      -0.047   9.433  23.247  0.00  0.00    +0.000 A 
ATOM     25  C   UNL     1      -0.849  10.568  23.153  0.00  0.00    +0.000 A 
ATOM     26  C   UNL     1      -0.934  11.265  21.949  0.00  0.00    +0.000 A 
ATOM     27  C   UNL     1      -0.263  10.789  20.817  0.00  0.00    +0.000 A 
ENDBRANCH  21  22
ENDBRANCH  19  21
ENDBRANCH   1  18
TORSDOF 4
ENDMDL
MODEL 2
REMARK VINA RESULT:      -8.7      2.960      8.428
REMARK  Name = 
REMARK  4 active torsions:
REMARK  status: ('A' for Active; 'I' for Inactive)
REMARK    1  A    between atoms: C_2  and  C_11
REMARK    2  A    between atoms: N_3  and  C_4
REMARK    3  A    between atoms: C_4  and  C_5
REMARK    4  A    between atoms: C_13  and  C_14
REMARK                            x       y       z     vdW  Elec       q    Type
REMARK                         _______ _______ _______ _____ _____    ______ ____
ROOT
ATOM      1  C   UNL     1       1.193  10.103  19.141  0.00  0.00    +0.000 A 
ATOM      2  C   UNL     1       0.029   9.741  19.850  0.00  0.00    +0.000 A 
ATOM      3  C   UNL     1      -0.965  10.680  19.824  0.00  0.00    +0.000 A 
ATOM      4  N   UNL     1      -0.544  11.833  20.319  0.00  0.00    +0.000 NA
ATOM      5  C   UNL     1       0.507  12.344  19.668  0.00  0.00    +0.000 A 
ATOM      6  C   UNL     1       0.498  13.722  19.524  0.00  0.00    +0.000 A 
ATOM      7  C   UNL     1       1.379  14.358  18.675  0.00  0.00    +0.000 A 
ATOM      8  C   UNL     1       2.381  13.595  18.058  0.00  0.00    +0.000 A 
ATOM      9  C   UNL     1       2.427  12.198  18.199  0.00  0.00    +0.000 A 
ATOM     10  C   UNL     1       1.439  11.517  18.963  0.00  0.00    +0.000 A 
ENDROOT
BRANCH   3  11
ATOM     11  C   UNL     1      -1.686  10.933  18.492  0.00  0.00    +0.000 A 
ATOM     12  C   UNL     1      -2.804  11.779  18.405  0.00  0.00    +0.000 A 
ATOM     13  C   UNL     1      -3.835  11.506  17.499  0.00  0.00    +0.000 A 
ATOM     14  C   UNL     1      -3.728  10.426  16.627  0.00  0.00    +0.000 A 
ATOM     15  C   UNL     1      -2.543   9.699  16.568  0.00  0.00    +0.000 A 
ATOM     16  C   UNL     1      -1.506   9.998  17.450  0.00  0.00    +0.000 A 
ENDBRANCH   3  11
BRANCH   1  18
ATOM     17  O   UNL     1       2.268   8.986  17.356  0.00  0.00    +0.000 OA
ATOM     18  C   UNL     1       1.774   8.875  18.488  0.00  0.00    +0.000 C 
ATOM     19  N   UNL     1       1.958   7.727  19.224  0.00  0.00    +0.000 N 
ATOM     20  H   UNL     1       1.633   7.684  20.180  0.00  0.00    +0.000 HD
BRANCH  19  21
ATOM     21  C   UNL     1       2.948   6.725  18.813  0.00  0.00    +0.000 C 
BRANCH  21  22
ATOM     22  C   UNL     1       2.404   5.340  19.072  0.00  0.00    +0.000 A 
ATOM     23  C   UNL     1       2.353   4.408  18.028  0.00  0.00    +0.000 A 
ATOM     24  C   UNL     1       1.640   3.218  18.173  0.00  0.00    +0.000 A 
ATOM     25  C   UNL     1       0.993   2.936  19.375  0.00  0.00    +0.000 A 
ATOM     26  C   UNL     1       1.107   3.815  20.451  0.00  0.00    +0.000 A 
ATOM     27  C   UNL     1       1.819   5.010  20.304  0.00  0.00    +0.000 A 
ENDBRANCH  21  22
ENDBRANCH  19  21
ENDBRANCH   1  18
TORSDOF 4
ENDMDL
MODEL 3
REMARK VINA RESULT:      -8.6      1.549      2.070
REMARK  Name = 
REMARK  4 active torsions:
REMARK  status: ('A' for Active; 'I' for Inactive)
REMARK    1  A    between atoms: C_2  and  C_11
REMARK    2  A    between atoms: N_3  and  C_4
REMARK    3  A    between atoms: C_4  and  C_5
REMARK    4  A    between atoms: C_13  and  C_14
REMARK                            x       y       z     vdW  Elec       q    Type
REMARK                         _______ _______ _______ _____ _____    ______ ____
ROOT
ATOM      1  C   UNL     1       2.959   5.735  19.475  0.00  0.00    +0.000 A 
ATOM      2  C   UNL     1       4.362   5.861  19.483  0.00  0.00    +0.000 A 
ATOM      3  C   UNL     1       5.025   4.869  18.813  0.00  0.00    +0.000 A 
ATOM      4  N   UNL     1       4.732   3.679  19.313  0.00  0.00    +0.000 NA
ATOM      5  C   UNL     1       3.427   3.388  19.274  0.00  0.00    +0.000 A 
ATOM      6  C   UNL     1       3.126   2.066  18.982  0.00  0.00    +0.000 A 
ATOM      7  C   UNL     1       1.841   1.678  18.671  0.00  0.00    +0.000 A 
ATOM      8  C   UNL     1       0.810   2.621  18.790  0.00  0.00    +0.000 A 
ATOM      9  C   UNL     1       1.081   3.964  19.101  0.00  0.00    +0.000 A 
ATOM     10  C   UNL     1       2.421   4.405  19.288  0.00  0.00    +0.000 A 
ENDROOT
BRANCH   3  11
ATOM     11  C   UNL     1       4.898   4.822  17.283  0.00  0.00    +0.000 A 
ATOM     12  C   UNL     1       5.292   3.696  16.543  0.00  0.00    +0.000 A 
ATOM     13  C   UNL     1       5.840   3.840  15.263  0.00  0.00    +0.000 A 
ATOM     14  C   UNL     1       5.936   5.103  14.686  0.00  0.00    +0.000 A 
ATOM     15  C   UNL     1       5.371   6.202  15.326  0.00  0.00    +0.000 A 
ATOM     16  C   UNL     1       4.796   6.045  16.586  0.00  0.00    +0.000 A 
ENDBRANCH   3  11
BRANCH   1  18
ATOM     17  O   UNL     1       2.136   7.727  20.446  0.00  0.00    +0.000 OA
ATOM     18  C   UNL     1       2.342   7.108  19.392  0.00  0.00    +0.000 C 
ATOM     19  N   UNL     1       2.234   7.740  18.174  0.00  0.00    +0.000 N 
ATOM     20  H   UNL     1       2.496   7.253  17.329  0.00  0.00    +0.000 HD
BRANCH  19  21
ATOM     21  C   UNL     1       2.135   9.202  18.096  0.00  0.00    +0.000 C 
BRANCH  21  22
ATOM     22  C   UNL     1       0.711   9.629  18.358  0.00  0.00    +0.000 A 
ATOM     23  C   UNL     1      -0.278   9.369  17.401  0.00  0.00    +0.000 A 
ATOM     24  C   UNL     1      -1.538   9.960  17.503  0.00  0.00    +0.000 A 
ATOM     25  C   UNL     1      -1.830  10.796  18.579  0.00  0.00    +0.000 A 
ATOM     26  C   UNL     1      -0.884  10.995  19.584  0.00  0.00    +0.000 A 
ATOM     27  C   UNL     1       0.381  10.405  19.480  0.00  0.00    +0.000 A 
ENDBRANCH  21  22
ENDBRANCH  19  21
ENDBRANCH   1  18
TORSDOF 4
ENDMDL
MODEL 4
REMARK VINA RESULT:      -8.6      2.694      8.140
REMARK  Name = 
REMARK  4 active torsions:
REMARK  status: ('A' for Active; 'I' for Inactive)
REMARK    1  A    between atoms: C_2  and  C_11
REMARK    2  A    between atoms: N_3  and  C_4
REMARK    3  A    between atoms: C_4  and  C_5
REMARK    4  A    between atoms: C_13  and  C_14
REMARK                            x       y       z     vdW  Elec       q    Type
REMARK                         _______ _______ _______ _____ _____    ______ ____
ROOT
ATOM      1  C   UNL     1       0.734  10.100  18.112  0.00  0.00    +0.000 A 
ATOM      2  C   UNL     1       1.360  10.995  19.003  0.00  0.00    +0.000 A 
ATOM      3  C   UNL     1       0.504  11.636  19.856  0.00  0.00    +0.000 A 
ATOM      4  N   UNL     1      -0.412  12.319  19.188  0.00  0.00    +0.000 NA
ATOM      5  C   UNL     1      -1.153  11.563  18.371  0.00  0.00    +0.000 A 
ATOM      6  C   UNL     1      -2.493  11.911  18.297  0.00  0.00    +0.000 A 
ATOM      7  C   UNL     1      -3.415  11.083  17.693  0.00  0.00    +0.000 A 
ATOM      8  C   UNL     1      -2.951   9.939  17.029  0.00  0.00    +0.000 A 
ATOM      9  C   UNL     1      -1.597   9.569  17.070  0.00  0.00    +0.000 A 
ATOM     10  C   UNL     1      -0.659  10.344  17.808  0.00  0.00    +0.000 A 
ENDROOT
BRANCH   3  11
ATOM     11  C   UNL     1      -0.181  10.806  20.952  0.00  0.00    +0.000 A 
ATOM     12  C   UNL     1      -1.116  11.372  21.833  0.00  0.00    +0.000 A 
ATOM     13  C   UNL     1      -1.206  10.929  23.157  0.00  0.00    +0.000 A 
ATOM     14  C   UNL     1      -0.412   9.872  23.593  0.00  0.00    +0.000 A 
ATOM     15  C   UNL     1       0.375   9.176  22.681  0.00  0.00    +0.000 A 
ATOM     16  C   UNL     1       0.435   9.602  21.356  0.00  0.00    +0.000 A 
ENDBRANCH   3  11
BRANCH   1  18
ATOM     17  O   UNL     1       2.534   8.993  17.053  0.00  0.00    +0.000 OA
ATOM     18  C   UNL     1       1.633   8.908  17.900  0.00  0.00    +0.000 C 
ATOM     19  N   UNL     1       1.600   7.855  18.784  0.00  0.00    +0.000 N 
ATOM     20  H   UNL     1       0.918   7.846  19.531  0.00  0.00    +0.000 HD
BRANCH  19  21
ATOM     21  C   UNL     1       2.753   6.959  18.926  0.00  0.00    +0.000 C 
BRANCH  21  22
ATOM     22  C   UNL     1       2.272   5.551  19.183  0.00  0.00    +0.000 A 
ATOM     23  C   UNL     1       2.051   4.686  18.105  0.00  0.00    +0.000 A 
ATOM     24  C   UNL     1       1.381   3.476  18.291  0.00  0.00    +0.000 A 
ATOM     25  C   UNL     1       0.950   3.107  19.564  0.00  0.00    +0.000 A 
ATOM     26  C   UNL     1       1.239   3.919  20.660  0.00  0.00    +0.000 A 
ATOM     27  C   UNL     1       1.907   5.134  20.473  0.00  0.00    +0.000 A 
ENDBRANCH  21  22
ENDBRANCH  19  21
ENDBRANCH   1  18
TORSDOF 4
ENDMDL
MODEL 5
REMARK VINA RESULT:      -8.4      0.699      1.173
REMARK  Name = 
REMARK  4 active torsions:
REMARK  status: ('A' for Active; 'I' for Inactive)
REMARK    1  A    between atoms: C_2  and  C_11
REMARK    2  A    between atoms: N_3  and  C_4
REMARK    3  A    between atoms: C_4  and  C_5
REMARK    4  A    between atoms: C_13  and  C_14
REMARK                            x       y       z     vdW  Elec       q    Type
REMARK                         _______ _______ _______ _____ _____    ______ ____
ROOT
ATOM      1  C   UNL     1       3.357   6.049  18.991  0.00  0.00    +0.000 A 
ATOM      2  C   UNL     1       4.674   6.217  19.467  0.00  0.00    +0.000 A 
ATOM      3  C   UNL     1       5.564   5.285  19.010  0.00  0.00    +0.000 A 
ATOM      4  N   UNL     1       5.180   4.060  19.335  0.00  0.00    +0.000 NA
ATOM      5  C   UNL     1       3.975   3.733  18.855  0.00  0.00    +0.000 A 
ATOM      6  C   UNL     1       3.849   2.421  18.425  0.00  0.00    +0.000 A 
ATOM      7  C   UNL     1       2.755   2.012  17.691  0.00  0.00    +0.000 A 
ATOM      8  C   UNL     1       1.700   2.916  17.504  0.00  0.00    +0.000 A 
ATOM      9  C   UNL     1       1.791   4.247  17.945  0.00  0.00    +0.000 A 
ATOM     10  C   UNL     1       2.973   4.717  18.581  0.00  0.00    +0.000 A 
ENDROOT
BRANCH   3  11
ATOM     11  C   UNL     1       5.948   5.319  17.524  0.00  0.00    +0.000 A 
ATOM     12  C   UNL     1       5.529   6.356  16.675  0.00  0.00    +0.000 A 
ATOM     13  C   UNL     1       5.240   6.102  15.329  0.00  0.00    +0.000 A 
ATOM     14  C   UNL     1       5.431   4.827  14.804  0.00  0.00    +0.000 A 
ATOM     15  C   UNL     1       6.030   3.841  15.582  0.00  0.00    +0.000 A 
ATOM     16  C   UNL     1       6.347   4.110  16.912  0.00  0.00    +0.000 A 
ENDBRANCH   3  11
BRANCH   1  18
ATOM     17  O   UNL     1       2.694   7.851  17.613  0.00  0.00    +0.000 OA
ATOM     18  C   UNL     1       2.738   7.406  18.769  0.00  0.00    +0.000 C 
ATOM     19  N   UNL     1       2.037   8.017  19.783  0.00  0.00    +0.000 N 
ATOM     20  H   UNL     1       2.003   7.591  20.699  0.00  0.00    +0.000 HD
BRANCH  19  21
ATOM     21  C   UNL     1       1.023   9.034  19.485  0.00  0.00    +0.000 C 
BRANCH  21  22
ATOM     22  C   UNL     1       0.522   9.643  20.773  0.00  0.00    +0.000 A 
ATOM     23  C   UNL     1       0.675   8.943  21.976  0.00  0.00    +0.000 A 
ATOM     24  C   UNL     1       0.013   9.362  23.131  0.00  0.00    +0.000 A 
ATOM     25  C   UNL     1      -0.788  10.502  23.099  0.00  0.00    +0.000 A 
ATOM     26  C   UNL     1      -0.881  11.256  21.930  0.00  0.00    +0.000 A 
ATOM     27  C   UNL     1      -0.220  10.834  20.771  0.00  0.00    +0.000 A 
ENDBRANCH  21  22
ENDBRANCH  19  21
ENDBRANCH   1  18
TORSDOF 4
ENDMDL
MODEL 6
REMARK VINA RESULT:      -8.3      2.228      4.382
REMARK  Name = 
REMARK  4 active torsions:
REMARK  status: ('A' for Active; 'I' for Inactive)
REMARK    1  A    between atoms: C_2  and  C_11
REMARK    2  A    between atoms: N_3  and  C_4
REMARK    3  A    between atoms: C_4  and  C_5
REMARK    4  A    between atoms: C_13  and  C_14
REMARK                            x       y       z     vdW  Elec       q    Type
REMARK                         _______ _______ _______ _____ _____    ______ ____
ROOT
ATOM      1  C   UNL     1       2.841   6.570  17.786  0.00  0.00    +0.000 A 
ATOM      2  C   UNL     1       1.901   5.522  17.711  0.00  0.00    +0.000 A 
ATOM      3  C   UNL     1       2.429   4.274  17.897  0.00  0.00    +0.000 A 
ATOM      4  N   UNL     1       3.376   4.019  17.009  0.00  0.00    +0.000 NA
ATOM      5  C   UNL     1       4.390   4.892  17.041  0.00  0.00    +0.000 A 
ATOM      6  C   UNL     1       5.646   4.344  16.833  0.00  0.00    +0.000 A 
ATOM      7  C   UNL     1       6.792   5.071  17.077  0.00  0.00    +0.000 A 
ATOM      8  C   UNL     1       6.664   6.427  17.411  0.00  0.00    +0.000 A 
ATOM      9  C   UNL     1       5.405   7.015  17.612  0.00  0.00    +0.000 A 
ATOM     10  C   UNL     1       4.219   6.237  17.497  0.00  0.00    +0.000 A 
ENDROOT
BRANCH   3  11
ATOM     11  C   UNL     1       2.937   3.905  19.299  0.00  0.00    +0.000 A 
ATOM     12  C   UNL     1       3.804   2.822  19.510  0.00  0.00    +0.000 A 
ATOM     13  C   UNL     1       3.723   2.061  20.682  0.00  0.00    +0.000 A 
ATOM     14  C   UNL     1       2.820   2.417  21.681  0.00  0.00    +0.000 A 
ATOM     15  C   UNL     1       2.095   3.598  21.570  0.00  0.00    +0.000 A 
ATOM     16  C   UNL     1       2.206   4.370  20.414  0.00  0.00    +0.000 A 
ENDBRANCH   3  11
BRANCH   1  18
ATOM     17  O   UNL     1       2.203   7.844  19.672  0.00  0.00    +0.000 OA
ATOM     18  C   UNL     1       2.193   7.766  18.435  0.00  0.00    +0.000 C 
ATOM     19  N   UNL     1       1.816   8.845  17.668  0.00  0.00    +0.000 N 
ATOM     20  H   UNL     1       1.903   8.802  16.662  0.00  0.00    +0.000 HD
BRANCH  19  21
ATOM     21  C   UNL     1       1.674  10.176  18.267  0.00  0.00    +0.000 C 
BRANCH  21  22
ATOM     22  C   UNL     1       0.211  10.476  18.493  0.00  0.00    +0.000 A 
ATOM     23  C   UNL     1      -0.756   9.846  17.701  0.00  0.00    +0.000 A 
ATOM     24  C   UNL     1      -2.082  10.281  17.719  0.00  0.00    +0.000 A 
ATOM     25  C   UNL     1      -2.458  11.333  18.553  0.00  0.00    +0.000 A 
ATOM     26  C   UNL     1      -1.523  11.912  19.409  0.00  0.00    +0.000 A 
ATOM     27  C   UNL     1      -0.193  11.479  19.387  0.00  0.00    +0.000 A 
ENDBRANCH  21  22
ENDBRANCH  19  21
ENDBRANCH   1  18
TORSDOF 4
ENDMDL
MODEL 7
REMARK VINA RESULT:      -8.2      2.676      7.866
REMARK  Name = 
REMARK  4 active torsions:
REMARK  status: ('A' for Active; 'I' for Inactive)
REMARK    1  A    between atoms: C_2  and  C_11
REMARK    2  A    between atoms: N_3  and  C_4
REMARK    3  A    between atoms: C_4  and  C_5
REMARK    4  A    between atoms: C_13  and  C_14
REMARK                            x       y       z     vdW  Elec       q    Type
REMARK                         _______ _______ _______ _____ _____    ______ ____
ROOT
ATOM      1  C   UNL     1       5.219   5.701  17.147  0.00  0.00    +0.000 A 
ATOM      2  C   UNL     1       5.903   4.642  17.777  0.00  0.00    +0.000 A 
ATOM      3  C   UNL     1       5.202   4.035  18.783  0.00  0.00    +0.000 A 
ATOM      4  N   UNL     1       4.868   4.904  19.723  0.00  0.00    +0.000 NA
ATOM      5  C   UNL     1       4.124   5.920  19.273  0.00  0.00    +0.000 A 
ATOM      6  C   UNL     1       3.125   6.347  20.134  0.00  0.00    +0.000 A 
ATOM      7  C   UNL     1       2.137   7.210  19.712  0.00  0.00    +0.000 A 
ATOM      8  C   UNL     1       2.237   7.762  18.426  0.00  0.00    +0.000 A 
ATOM      9  C   UNL     1       3.247   7.362  17.536  0.00  0.00    +0.000 A 
ATOM     10  C   UNL     1       4.192   6.368  17.916  0.00  0.00    +0.000 A 
ENDROOT
BRANCH   3  11
ATOM     11  C   UNL     1       3.970   3.200  18.404  0.00  0.00    +0.000 A 
ATOM     12  C   UNL     1       3.167   3.525  17.299  0.00  0.00    +0.000 A 
ATOM     13  C   UNL     1       1.787   3.295  17.329  0.00  0.00    +0.000 A 
ATOM     14  C   UNL     1       1.208   2.676  18.434  0.00  0.00    +0.000 A 
ATOM     15  C   UNL     1       2.017   2.173  19.448  0.00  0.00    +0.000 A 
ATOM     16  C   UNL     1       3.395   2.376  19.396  0.00  0.00    +0.000 A 
ENDBRANCH   3  11
BRANCH   1  18
ATOM     17  O   UNL     1       5.379   6.742  15.030  0.00  0.00    +0.000 OA
ATOM     18  C   UNL     1       5.558   5.700  15.678  0.00  0.00    +0.000 C 
ATOM     19  N   UNL     1       6.263   4.650  15.136  0.00  0.00    +0.000 N 
ATOM     20  H   UNL     1       6.486   3.845  15.705  0.00  0.00    +0.000 HD
BRANCH  19  21
ATOM     21  C   UNL     1       7.038   4.826  13.902  0.00  0.00    +0.000 C 
BRANCH  21  22
ATOM     22  C   UNL     1       6.458   3.958  12.811  0.00  0.00    +0.000 A 
ATOM     23  C   UNL     1       5.077   3.968  12.579  0.00  0.00    +0.000 A 
ATOM     24  C   UNL     1       4.489   3.007  11.754  0.00  0.00    +0.000 A 
ATOM     25  C   UNL     1       5.282   2.045  11.133  0.00  0.00    +0.000 A 
ATOM     26  C   UNL     1       6.667   2.076  11.287  0.00  0.00    +0.000 A 
ATOM     27  C   UNL     1       7.256   3.036  12.117  0.00  0.00    +0.000 A 
ENDBRANCH  21  22
ENDBRANCH  19  21
ENDBRANCH   1  18
TORSDOF 4
ENDMDL
MODEL 8
REMARK VINA RESULT:      -8.2      2.232      7.569
REMARK  Name = 
REMARK  4 active torsions:
REMARK  status: ('A' for Active; 'I' for Inactive)
REMARK    1  A    between atoms: C_2  and  C_11
REMARK    2  A    between atoms: N_3  and  C_4
REMARK    3  A    between atoms: C_4  and  C_5
REMARK    4  A    between atoms: C_13  and  C_14
REMARK                            x       y       z     vdW  Elec       q    Type
REMARK                         _______ _______ _______ _____ _____    ______ ____
ROOT
ATOM      1  C   UNL     1       4.506   6.451  17.842  0.00  0.00    +0.000 A 
ATOM      2  C   UNL     1       4.820   5.450  18.785  0.00  0.00    +0.000 A 
ATOM      3  C   UNL     1       3.776   5.083  19.589  0.00  0.00    +0.000 A 
ATOM      4  N   UNL     1       3.302   6.122  20.259  0.00  0.00    +0.000 NA
ATOM      5  C   UNL     1       2.872   7.115  19.472  0.00  0.00    +0.000 A 
ATOM      6  C   UNL     1       1.732   7.767  19.915  0.00  0.00    +0.000 A 
ATOM      7  C   UNL     1       1.042   8.637  19.097  0.00  0.00    +0.000 A 
ATOM      8  C   UNL     1       1.593   8.958  17.848  0.00  0.00    +0.000 A 
ATOM      9  C   UNL     1       2.757   8.327  17.379  0.00  0.00    +0.000 A 
ATOM     10  C   UNL     1       3.400   7.326  18.159  0.00  0.00    +0.000 A 
ENDROOT
BRANCH   3  11
ATOM     11  C   UNL     1       2.609   4.314  18.953  0.00  0.00    +0.000 A 
ATOM     12  C   UNL     1       1.397   4.113  19.634  0.00  0.00    +0.000 A 
ATOM     13  C   UNL     1       0.662   2.937  19.447  0.00  0.00    +0.000 A 
ATOM     14  C   UNL     1       1.095   1.983  18.530  0.00  0.00    +0.000 A 
ATOM     15  C   UNL     1       2.185   2.257  17.709  0.00  0.00    +0.000 A 
ATOM     16  C   UNL     1       2.893   3.446  17.876  0.00  0.00    +0.000 A 
ENDBRANCH   3  11
BRANCH   1  18
ATOM     17  O   UNL     1       5.319   7.073  15.711  0.00  0.00    +0.000 OA
ATOM     18  C   UNL     1       5.262   6.178  16.566  0.00  0.00    +0.000 C 
ATOM     19  N   UNL     1       6.056   5.058  16.463  0.00  0.00    +0.000 N 
ATOM     20  H   UNL     1       6.071   4.381  17.213  0.00  0.00    +0.000 HD
BRANCH  19  21
ATOM     21  C   UNL     1       7.164   5.012  15.503  0.00  0.00    +0.000 C 
BRANCH  21  22
ATOM     22  C   UNL     1       6.649   4.571  14.154  0.00  0.00    +0.000 A 
ATOM     23  C   UNL     1       5.397   3.951  14.060  0.00  0.00    +0.000 A 
ATOM     24  C   UNL     1       5.006   3.319  12.879  0.00  0.00    +0.000 A 
ATOM     25  C   UNL     1       5.852   3.326  11.772  0.00  0.00    +0.000 A 
ATOM     26  C   UNL     1       7.064   4.013  11.825  0.00  0.00    +0.000 A 
ATOM     27  C   UNL     1       7.459   4.643  13.010  0.00  0.00    +0.000 A 
ENDBRANCH  21  22
ENDBRANCH  19  21
ENDBRANCH   1  18
TORSDOF 4
ENDMDL
MODEL 9
REMARK VINA RESULT:      -8.1      6.586      8.931
REMARK  Name = 
REMARK  4 active torsions:
REMARK  status: ('A' for Active; 'I' for Inactive)
REMARK    1  A    between atoms: C_2  and  C_11
REMARK    2  A    between atoms: N_3  and  C_4
REMARK    3  A    between atoms: C_4  and  C_5
REMARK    4  A    between atoms: C_13  and  C_14
REMARK                            x       y       z     vdW  Elec       q    Type
REMARK                         _______ _______ _______ _____ _____    ______ ____
ROOT
ATOM      1  C   UNL     1      -1.720  12.678  21.761  0.00  0.00    +0.000 A 
ATOM      2  C   UNL     1      -1.464  13.342  20.544  0.00  0.00    +0.000 A 
ATOM      3  C   UNL     1      -0.885  12.560  19.583  0.00  0.00    +0.000 A 
ATOM      4  N   UNL     1       0.263  12.056  20.007  0.00  0.00    +0.000 NA
ATOM      5  C   UNL     1       0.146  11.312  21.112  0.00  0.00    +0.000 A 
ATOM      6  C   UNL     1       0.956  10.188  21.156  0.00  0.00    +0.000 A 
ATOM      7  C   UNL     1       0.769   9.209  22.108  0.00  0.00    +0.000 A 
ATOM      8  C   UNL     1      -0.171   9.435  23.123  0.00  0.00    +0.000 A 
ATOM      9  C   UNL     1      -0.995  10.573  23.117  0.00  0.00    +0.000 A 
ATOM     10  C   UNL     1      -0.905  11.522  22.061  0.00  0.00    +0.000 A 
ENDROOT
BRANCH   3  11
ATOM     11  C   UNL     1      -1.729  11.441  18.956  0.00  0.00    +0.000 A 
ATOM     12  C   UNL     1      -1.149  10.417  18.189  0.00  0.00    +0.000 A 
ATOM     13  C   UNL     1      -1.837   9.863  17.103  0.00  0.00    +0.000 A 
ATOM     14  C   UNL     1      -3.134  10.278  16.817  0.00  0.00    +0.000 A 
ATOM     15  C   UNL     1      -3.791  11.146  17.683  0.00  0.00    +0.000 A 
ATOM     16  C   UNL     1      -3.112  11.669  18.782  0.00  0.00    +0.000 A 
ENDBRANCH   3  11
BRANCH   1  18
ATOM     17  O   UNL     1      -3.066  14.392  22.677  0.00  0.00    +0.000 OA
ATOM     18  C   UNL     1      -3.009  13.199  22.343  0.00  0.00    +0.000 C 
ATOM     19  N   UNL     1      -4.150  12.433  22.283  0.00  0.00    +0.000 N 
ATOM     20  H   UNL     1      -4.106  11.491  21.918  0.00  0.00    +0.000 HD
BRANCH  19  21
ATOM     21  C   UNL     1      -5.476  13.057  22.351  0.00  0.00    +0.000 C 
BRANCH  21  22
ATOM     22  C   UNL     1      -6.201  12.851  21.043  0.00  0.00    +0.000 A 
ATOM     23  C   UNL     1      -6.914  11.666  20.824  0.00  0.00    +0.000 A 
ATOM     24  C   UNL     1      -7.384  11.344  19.550  0.00  0.00    +0.000 A 
ATOM     25  C   UNL     1      -7.168  12.220  18.488  0.00  0.00    +0.000 A 
ATOM     26  C   UNL     1      -6.535  13.442  18.708  0.00  0.00    +0.000 A 
ATOM     27  C   UNL     1      -6.061  13.763  19.985  0.00  0.00    +0.000 A 
ENDBRANCH  21  22
ENDBRANCH  19  21
ENDBRANCH   1  18
TORSDOF 4
ENDMDL
