MODEL 1
REMARK VINA RESULT:      -8.5      0.000      0.000
REMARK  Name = 
REMARK  3 active torsions:
REMARK  status: ('A' for Active; 'I' for Inactive)
REMARK    1  A    between atoms: C_2  and  C_3
REMARK    2  A    between atoms: C_3  and  C_4
REMARK    3  A    between atoms: C_16  and  C_17
REMARK                            x       y       z     vdW  Elec       q    Type
REMARK                         _______ _______ _______ _____ _____    ______ ____
ROOT
ATOM      1  O   UNL     1       8.426   4.127  16.890  0.00  0.00    +0.000 OA
ATOM      2  C   UNL     1       7.266   4.555  16.879  0.00  0.00    +0.000 C 
ATOM      3  N   UNL     1       6.428   4.161  17.884  0.00  0.00    +0.000 N 
ATOM      4  C   UNL     1       5.139   4.568  18.024  0.00  0.00    +0.000 A 
ATOM      5  N   UNL     1       4.497   5.418  17.276  0.00  0.00    +0.000 NA
ATOM      6  C   UNL     1       3.226   5.580  17.746  0.00  0.00    +0.000 A 
ATOM      7  C   UNL     1       2.879   4.815  18.844  0.00  0.00    +0.000 A 
ATOM      8  S   UNL     1       4.261   3.895  19.323  0.00  0.00    +0.000 S 
ATOM      9  H   UNL     1       6.820   3.549  18.582  0.00  0.00    +0.000 HD
ENDROOT
BRANCH   7  10
ATOM     10  C   UNL     1       1.573   4.739  19.599  0.00  0.00    +0.000 C 
ATOM     11  C   UNL     1       1.753   4.870  21.121  0.00  0.00    +0.000 C 
ATOM     12  C   UNL     1       2.277   3.594  21.782  0.00  0.00    +0.000 C 
ATOM     13  N   UNL     1       1.510   2.405  21.415  0.00  0.00    +0.000 NA
ATOM     14  C   UNL     1       1.374   2.225  19.971  0.00  0.00    +0.000 C 
ATOM     15  C   UNL     1       0.798   3.457  19.274  0.00  0.00    +0.000 C 
ATOM     16  H   UNL     1       0.579   2.468  21.831  0.00  0.00    +0.000 HD
ENDBRANCH   7  10
BRANCH   2  17
ATOM     17  C   UNL     1       6.791   5.457  15.745  0.00  0.00    +0.000 C 
BRANCH  17  18
ATOM     18  C   UNL     1       6.704   4.844  14.368  0.00  0.00    +0.000 A 
ATOM     19  C   UNL     1       7.638   5.054  13.353  0.00  0.00    +0.000 A 
ATOM     20  F   UNL     1       8.694   5.856  13.546  0.00  0.00    +0.000 F 
ATOM     21  C   UNL     1       7.509   4.448  12.102  0.00  0.00    +0.000 A 
ATOM     22  C   UNL     1       6.430   3.607  11.838  0.00  0.00    +0.000 A 
ATOM     23  C   UNL     1       5.483   3.382  12.832  0.00  0.00    +0.000 A 
ATOM     24  C   UNL     1       5.626   3.997  14.077  0.00  0.00    +0.000 A 
ATOM     25  F   UNL     1       4.697   3.759  15.014  0.00  0.00    +0.000 F 
ENDBRANCH  17  18
ENDBRANCH   2  17
TORSDOF 3
ENDMDL
MODEL 2
REMARK VINA RESULT:      -8.4      0.124      1.723
REMARK  Name = 
REMARK  3 active torsions:
REMARK  status: ('A' for Active; 'I' for Inactive)
REMARK    1  A    between atoms: C_2  and  C_3
REMARK    2  A    between atoms: C_3  and  C_4
REMARK    3  A    between atoms: C_16  and  C_17
REMARK                            x       y       z     vdW  Elec       q    Type
REMARK                         _______ _______ _______ _____ _____    ______ ____
ROOT
ATOM      1  O   UNL     1       8.483   4.151  17.071  0.00  0.00    +0.000 OA
ATOM      2  C   UNL     1       7.320   4.567  17.017  0.00  0.00    +0.000 C 
ATOM      3  N   UNL     1       6.448   4.160  17.987  0.00  0.00    +0.000 N 
ATOM      4  C   UNL     1       5.150   4.554  18.079  0.00  0.00    +0.000 A 
ATOM      5  N   UNL     1       4.528   5.399  17.310  0.00  0.00    +0.000 NA
ATOM      6  C   UNL     1       3.238   5.546  17.731  0.00  0.00    +0.000 A 
ATOM      7  C   UNL     1       2.858   4.774  18.813  0.00  0.00    +0.000 A 
ATOM      8  S   UNL     1       4.231   3.867  19.342  0.00  0.00    +0.000 S 
ATOM      9  H   UNL     1       6.819   3.550  18.698  0.00  0.00    +0.000 HD
ENDROOT
BRANCH   7  10
ATOM     10  C   UNL     1       1.525   4.682  19.517  0.00  0.00    +0.000 C 
ATOM     11  C   UNL     1       1.639   4.866  21.040  0.00  0.00    +0.000 C 
ATOM     12  C   UNL     1       2.172   3.628  21.762  0.00  0.00    +0.000 C 
ATOM     13  N   UNL     1       1.456   2.405  21.405  0.00  0.00    +0.000 NA
ATOM     14  C   UNL     1       1.385   2.175  19.963  0.00  0.00    +0.000 C 
ATOM     15  C   UNL     1       0.802   3.366  19.203  0.00  0.00    +0.000 C 
ATOM     16  H   UNL     1       0.508   2.452  21.781  0.00  0.00    +0.000 HD
ENDBRANCH   7  10
BRANCH   2  17
ATOM     17  C   UNL     1       6.878   5.468  15.868  0.00  0.00    +0.000 C 
BRANCH  17  18
ATOM     18  C   UNL     1       6.704   4.822  14.515  0.00  0.00    +0.000 A 
ATOM     19  C   UNL     1       5.642   3.983  14.174  0.00  0.00    +0.000 A 
ATOM     20  F   UNL     1       4.693   3.678  15.068  0.00  0.00    +0.000 F 
ATOM     21  C   UNL     1       5.531   3.424  12.899  0.00  0.00    +0.000 A 
ATOM     22  C   UNL     1       6.488   3.700  11.926  0.00  0.00    +0.000 A 
ATOM     23  C   UNL     1       7.559   4.532  12.240  0.00  0.00    +0.000 A 
ATOM     24  C   UNL     1       7.656   5.081  13.520  0.00  0.00    +0.000 A 
ATOM     25  F   UNL     1       8.698   5.880  13.790  0.00  0.00    +0.000 F 
ENDBRANCH  17  18
ENDBRANCH   2  17
TORSDOF 3
ENDMDL
MODEL 3
REMARK VINA RESULT:      -8.1      5.019      6.215
REMARK  Name = 
REMARK  3 active torsions:
REMARK  status: ('A' for Active; 'I' for Inactive)
REMARK    1  A    between atoms: C_2  and  C_3
REMARK    2  A    between atoms: C_3  and  C_4
REMARK    3  A    between atoms: C_16  and  C_17
REMARK                            x       y       z     vdW  Elec       q    Type
REMARK                         _______ _______ _______ _____ _____    ______ ____
ROOT
ATOM      1  O   UNL     1       3.756   5.109  19.848  0.00  0.00    +0.000 OA
ATOM      2  C   UNL     1       3.237   6.116  19.352  0.00  0.00    +0.000 C 
ATOM      3  N   UNL     1       2.456   6.897  20.157  0.00  0.00    +0.000 N 
ATOM      4  C   UNL     1       1.844   8.046  19.766  0.00  0.00    +0.000 A 
ATOM      5  N   UNL     1       1.924   8.622  18.602  0.00  0.00    +0.000 NA
ATOM      6  C   UNL     1       1.182   9.768  18.601  0.00  0.00    +0.000 A 
ATOM      7  C   UNL     1       0.495  10.051  19.767  0.00  0.00    +0.000 A 
ATOM      8  S   UNL     1       0.865   8.824  20.926  0.00  0.00    +0.000 S 
ATOM      9  H   UNL     1       2.363   6.602  21.116  0.00  0.00    +0.000 HD
ENDROOT
BRANCH   7  10
ATOM     10  C   UNL     1      -0.415  11.210  20.099  0.00  0.00    +0.000 C 
ATOM     11  C   UNL     1      -1.732  11.183  19.306  0.00  0.00    +0.000 C 
ATOM     12  C   UNL     1      -1.577  11.642  17.856  0.00  0.00    +0.000 C 
ATOM     13  N   UNL     1      -0.884  12.924  17.734  0.00  0.00    +0.000 NA
ATOM     14  C   UNL     1       0.401  12.957  18.430  0.00  0.00    +0.000 C 
ATOM     15  C   UNL     1       0.285  12.560  19.901  0.00  0.00    +0.000 C 
ATOM     16  H   UNL     1      -1.483  13.663  18.106  0.00  0.00    +0.000 HD
ENDBRANCH   7  10
BRANCH   2  17
ATOM     17  C   UNL     1       3.437   6.435  17.874  0.00  0.00    +0.000 C 
BRANCH  17  18
ATOM     18  C   UNL     1       4.621   5.798  17.187  0.00  0.00    +0.000 A 
ATOM     19  C   UNL     1       5.866   6.410  17.036  0.00  0.00    +0.000 A 
ATOM     20  F   UNL     1       6.082   7.650  17.495  0.00  0.00    +0.000 F 
ATOM     21  C   UNL     1       6.928   5.763  16.399  0.00  0.00    +0.000 A 
ATOM     22  C   UNL     1       6.764   4.474  15.898  0.00  0.00    +0.000 A 
ATOM     23  C   UNL     1       5.531   3.841  16.033  0.00  0.00    +0.000 A 
ATOM     24  C   UNL     1       4.480   4.503  16.670  0.00  0.00    +0.000 A 
ATOM     25  F   UNL     1       3.307   3.865  16.786  0.00  0.00    +0.000 F 
ENDBRANCH  17  18
ENDBRANCH   2  17
TORSDOF 3
ENDMDL
MODEL 4
REMARK VINA RESULT:      -8.1      5.023      6.400
REMARK  Name = 
REMARK  3 active torsions:
REMARK  status: ('A' for Active; 'I' for Inactive)
REMARK    1  A    between atoms: C_2  and  C_3
REMARK    2  A    between atoms: C_3  and  C_4
REMARK    3  A    between atoms: C_16  and  C_17
REMARK                            x       y       z     vdW  Elec       q    Type
REMARK                         _______ _______ _______ _____ _____    ______ ____
ROOT
ATOM      1  O   UNL     1       3.899   5.253  19.915  0.00  0.00    +0.000 OA
ATOM      2  C   UNL     1       3.319   6.211  19.390  0.00  0.00    +0.000 C 
ATOM      3  N   UNL     1       2.509   6.980  20.179  0.00  0.00    +0.000 N 
ATOM      4  C   UNL     1       1.830   8.079  19.756  0.00  0.00    +0.000 A 
ATOM      5  N   UNL     1       1.859   8.612  18.569  0.00  0.00    +0.000 NA
ATOM      6  C   UNL     1       1.055   9.716  18.538  0.00  0.00    +0.000 A 
ATOM      7  C   UNL     1       0.373  10.006  19.705  0.00  0.00    +0.000 A 
ATOM      8  S   UNL     1       0.829   8.847  20.903  0.00  0.00    +0.000 S 
ATOM      9  H   UNL     1       2.448   6.719  21.150  0.00  0.00    +0.000 HD
ENDROOT
BRANCH   7  10
ATOM     10  C   UNL     1      -0.592  11.128  20.009  0.00  0.00    +0.000 C 
ATOM     11  C   UNL     1      -1.843  11.098  19.115  0.00  0.00    +0.000 C 
ATOM     12  C   UNL     1      -1.590  11.620  17.700  0.00  0.00    +0.000 C 
ATOM     13  N   UNL     1      -0.927  12.923  17.682  0.00  0.00    +0.000 NA
ATOM     14  C   UNL     1       0.299  12.961  18.477  0.00  0.00    +0.000 C 
ATOM     15  C   UNL     1       0.082  12.502  19.919  0.00  0.00    +0.000 C 
ATOM     16  H   UNL     1      -1.574  13.631  18.034  0.00  0.00    +0.000 HD
ENDBRANCH   7  10
BRANCH   2  17
ATOM     17  C   UNL     1       3.476   6.482  17.898  0.00  0.00    +0.000 C 
BRANCH  17  18
ATOM     18  C   UNL     1       4.586   5.753  17.180  0.00  0.00    +0.000 A 
ATOM     19  C   UNL     1       4.462   4.475  16.632  0.00  0.00    +0.000 A 
ATOM     20  F   UNL     1       3.314   3.792  16.734  0.00  0.00    +0.000 F 
ATOM     21  C   UNL     1       5.524   3.857  15.968  0.00  0.00    +0.000 A 
ATOM     22  C   UNL     1       6.744   4.514  15.833  0.00  0.00    +0.000 A 
ATOM     23  C   UNL     1       6.895   5.789  16.371  0.00  0.00    +0.000 A 
ATOM     24  C   UNL     1       5.824   6.391  17.034  0.00  0.00    +0.000 A 
ATOM     25  F   UNL     1       6.002   7.620  17.539  0.00  0.00    +0.000 F 
ENDBRANCH  17  18
ENDBRANCH   2  17
TORSDOF 3
ENDMDL
MODEL 5
REMARK VINA RESULT:      -8.0      5.515      8.105
REMARK  Name = 
REMARK  3 active torsions:
REMARK  status: ('A' for Active; 'I' for Inactive)
REMARK    1  A    between atoms: C_2  and  C_3
REMARK    2  A    between atoms: C_3  and  C_4
REMARK    3  A    between atoms: C_16  and  C_17
REMARK                            x       y       z     vdW  Elec       q    Type
REMARK                         _______ _______ _______ _____ _____    ______ ____
ROOT
ATOM      1  O   UNL     1       2.031  10.410  17.423  0.00  0.00    +0.000 OA
ATOM      2  C   UNL     1       1.956   9.424  18.165  0.00  0.00    +0.000 C 
ATOM      3  N   UNL     1       2.720   8.332  17.860  0.00  0.00    +0.000 N 
ATOM      4  C   UNL     1       2.767   7.189  18.593  0.00  0.00    +0.000 A 
ATOM      5  N   UNL     1       2.148   6.945  19.712  0.00  0.00    +0.000 NA
ATOM      6  C   UNL     1       2.461   5.691  20.150  0.00  0.00    +0.000 A 
ATOM      7  C   UNL     1       3.300   4.952  19.338  0.00  0.00    +0.000 A 
ATOM      8  S   UNL     1       3.747   5.931  17.986  0.00  0.00    +0.000 S 
ATOM      9  H   UNL     1       3.310   8.409  17.047  0.00  0.00    +0.000 HD
ENDROOT
BRANCH   7  10
ATOM     10  C   UNL     1       3.830   3.548  19.513  0.00  0.00    +0.000 C 
ATOM     11  C   UNL     1       3.890   2.763  18.192  0.00  0.00    +0.000 C 
ATOM     12  C   UNL     1       2.526   2.253  17.726  0.00  0.00    +0.000 C 
ATOM     13  N   UNL     1       1.800   1.529  18.768  0.00  0.00    +0.000 NA
ATOM     14  C   UNL     1       1.677   2.279  20.017  0.00  0.00    +0.000 C 
ATOM     15  C   UNL     1       3.025   2.760  20.553  0.00  0.00    +0.000 C 
ATOM     16  H   UNL     1       2.280   0.647  18.956  0.00  0.00    +0.000 HD
ENDBRANCH   7  10
BRANCH   2  17
ATOM     17  C   UNL     1       0.999   9.426  19.352  0.00  0.00    +0.000 C 
BRANCH  17  18
ATOM     18  C   UNL     1      -0.052  10.509  19.387  0.00  0.00    +0.000 A 
ATOM     19  C   UNL     1      -1.153  10.566  18.530  0.00  0.00    +0.000 A 
ATOM     20  F   UNL     1      -1.333   9.638  17.581  0.00  0.00    +0.000 F 
ATOM     21  C   UNL     1      -2.098  11.590  18.619  0.00  0.00    +0.000 A 
ATOM     22  C   UNL     1      -1.964  12.587  19.582  0.00  0.00    +0.000 A 
ATOM     23  C   UNL     1      -0.875  12.555  20.448  0.00  0.00    +0.000 A 
ATOM     24  C   UNL     1       0.063  11.526  20.344  0.00  0.00    +0.000 A 
ATOM     25  F   UNL     1       1.099  11.524  21.195  0.00  0.00    +0.000 F 
ENDBRANCH  17  18
ENDBRANCH   2  17
TORSDOF 3
ENDMDL
MODEL 6
REMARK VINA RESULT:      -7.9      5.530      7.992
REMARK  Name = 
REMARK  3 active torsions:
REMARK  status: ('A' for Active; 'I' for Inactive)
REMARK    1  A    between atoms: C_2  and  C_3
REMARK    2  A    between atoms: C_3  and  C_4
REMARK    3  A    between atoms: C_16  and  C_17
REMARK                            x       y       z     vdW  Elec       q    Type
REMARK                         _______ _______ _______ _____ _____    ______ ____
ROOT
ATOM      1  O   UNL     1       2.169  10.478  17.419  0.00  0.00    +0.000 OA
ATOM      2  C   UNL     1       2.061   9.469  18.126  0.00  0.00    +0.000 C 
ATOM      3  N   UNL     1       2.837   8.386  17.820  0.00  0.00    +0.000 N 
ATOM      4  C   UNL     1       2.852   7.220  18.519  0.00  0.00    +0.000 A 
ATOM      5  N   UNL     1       2.186   6.944  19.602  0.00  0.00    +0.000 NA
ATOM      6  C   UNL     1       2.479   5.676  20.014  0.00  0.00    +0.000 A 
ATOM      7  C   UNL     1       3.351   4.960  19.215  0.00  0.00    +0.000 A 
ATOM      8  S   UNL     1       3.856   5.980  17.915  0.00  0.00    +0.000 S 
ATOM      9  H   UNL     1       3.461   8.487  17.036  0.00  0.00    +0.000 HD
ENDROOT
BRANCH   7  10
ATOM     10  C   UNL     1       3.872   3.551  19.369  0.00  0.00    +0.000 C 
ATOM     11  C   UNL     1       3.852   2.759  18.051  0.00  0.00    +0.000 C 
ATOM     12  C   UNL     1       2.459   2.265  17.660  0.00  0.00    +0.000 C 
ATOM     13  N   UNL     1       1.781   1.555  18.743  0.00  0.00    +0.000 NA
ATOM     14  C   UNL     1       1.733   2.311  19.993  0.00  0.00    +0.000 C 
ATOM     15  C   UNL     1       3.113   2.777  20.454  0.00  0.00    +0.000 C 
ATOM     16  H   UNL     1       2.259   0.667  18.909  0.00  0.00    +0.000 HD
ENDBRANCH   7  10
BRANCH   2  17
ATOM     17  C   UNL     1       1.055   9.437  19.271  0.00  0.00    +0.000 C 
BRANCH  17  18
ATOM     18  C   UNL     1       0.109  10.608  19.389  0.00  0.00    +0.000 A 
ATOM     19  C   UNL     1       0.290  11.682  20.262  0.00  0.00    +0.000 A 
ATOM     20  F   UNL     1       1.344  11.725  21.088  0.00  0.00    +0.000 F 
ATOM     21  C   UNL     1      -0.616  12.743  20.317  0.00  0.00    +0.000 A 
ATOM     22  C   UNL     1      -1.734  12.753  19.486  0.00  0.00    +0.000 A 
ATOM     23  C   UNL     1      -1.940  11.694  18.607  0.00  0.00    +0.000 A 
ATOM     24  C   UNL     1      -1.025  10.640  18.567  0.00  0.00    +0.000 A 
ATOM     25  F   UNL     1      -1.252   9.635  17.708  0.00  0.00    +0.000 F 
ENDBRANCH  17  18
ENDBRANCH   2  17
TORSDOF 3
ENDMDL
MODEL 7
REMARK VINA RESULT:      -7.9      5.755      8.724
REMARK  Name = 
REMARK  3 active torsions:
REMARK  status: ('A' for Active; 'I' for Inactive)
REMARK    1  A    between atoms: C_2  and  C_3
REMARK    2  A    between atoms: C_3  and  C_4
REMARK    3  A    between atoms: C_16  and  C_17
REMARK                            x       y       z     vdW  Elec       q    Type
REMARK                         _______ _______ _______ _____ _____    ______ ____
ROOT
ATOM      1  O   UNL     1       0.110   8.951  22.095  0.00  0.00    +0.000 OA
ATOM      2  C   UNL     1       0.779   8.867  21.058  0.00  0.00    +0.000 C 
ATOM      3  N   UNL     1       1.420   7.688  20.802  0.00  0.00    +0.000 N 
ATOM      4  C   UNL     1       2.166   7.434  19.695  0.00  0.00    +0.000 A 
ATOM      5  N   UNL     1       2.365   8.227  18.683  0.00  0.00    +0.000 NA
ATOM      6  C   UNL     1       3.158   7.607  17.759  0.00  0.00    +0.000 A 
ATOM      7  C   UNL     1       3.601   6.339  18.087  0.00  0.00    +0.000 A 
ATOM      8  S   UNL     1       2.924   5.908  19.618  0.00  0.00    +0.000 S 
ATOM      9  H   UNL     1       1.292   6.951  21.478  0.00  0.00    +0.000 HD
ENDROOT
BRANCH   7  10
ATOM     10  C   UNL     1       4.487   5.393  17.313  0.00  0.00    +0.000 C 
ATOM     11  C   UNL     1       5.313   4.468  18.223  0.00  0.00    +0.000 C 
ATOM     12  C   UNL     1       6.515   5.163  18.865  0.00  0.00    +0.000 C 
ATOM     13  N   UNL     1       7.347   5.873  17.896  0.00  0.00    +0.000 NA
ATOM     14  C   UNL     1       6.595   6.804  17.056  0.00  0.00    +0.000 C 
ATOM     15  C   UNL     1       5.415   6.139  16.348  0.00  0.00    +0.000 C 
ATOM     16  H   UNL     1       7.817   5.192  17.297  0.00  0.00    +0.000 HD
ENDBRANCH   7  10
BRANCH   2  17
ATOM     17  C   UNL     1       0.912  10.070  20.130  0.00  0.00    +0.000 C 
BRANCH  17  18
ATOM     18  C   UNL     1      -0.360  10.630  19.542  0.00  0.00    +0.000 A 
ATOM     19  C   UNL     1      -0.878  10.268  18.297  0.00  0.00    +0.000 A 
ATOM     20  F   UNL     1      -0.241   9.383  17.519  0.00  0.00    +0.000 F 
ATOM     21  C   UNL     1      -2.069  10.813  17.812  0.00  0.00    +0.000 A 
ATOM     22  C   UNL     1      -2.776  11.741  18.573  0.00  0.00    +0.000 A 
ATOM     23  C   UNL     1      -2.281  12.122  19.817  0.00  0.00    +0.000 A 
ATOM     24  C   UNL     1      -1.088  11.568  20.286  0.00  0.00    +0.000 A 
ATOM     25  F   UNL     1      -0.639  11.954  21.488  0.00  0.00    +0.000 F 
ENDBRANCH  17  18
ENDBRANCH   2  17
TORSDOF 3
ENDMDL
MODEL 8
REMARK VINA RESULT:      -7.8      5.740      8.706
REMARK  Name = 
REMARK  3 active torsions:
REMARK  status: ('A' for Active; 'I' for Inactive)
REMARK    1  A    between atoms: C_2  and  C_3
REMARK    2  A    between atoms: C_3  and  C_4
REMARK    3  A    between atoms: C_16  and  C_17
REMARK                            x       y       z     vdW  Elec       q    Type
REMARK                         _______ _______ _______ _____ _____    ______ ____
ROOT
ATOM      1  O   UNL     1       0.103   8.968  22.016  0.00  0.00    +0.000 OA
ATOM      2  C   UNL     1       0.787   8.860  20.991  0.00  0.00    +0.000 C 
ATOM      3  N   UNL     1       1.447   7.682  20.782  0.00  0.00    +0.000 N 
ATOM      4  C   UNL     1       2.211   7.403  19.694  0.00  0.00    +0.000 A 
ATOM      5  N   UNL     1       2.413   8.165  18.659  0.00  0.00    +0.000 NA
ATOM      6  C   UNL     1       3.227   7.528  17.766  0.00  0.00    +0.000 A 
ATOM      7  C   UNL     1       3.683   6.277  18.142  0.00  0.00    +0.000 A 
ATOM      8  S   UNL     1       2.992   5.886  19.677  0.00  0.00    +0.000 S 
ATOM      9  H   UNL     1       1.321   6.966  21.480  0.00  0.00    +0.000 HD
ENDROOT
BRANCH   7  10
ATOM     10  C   UNL     1       4.592   5.319  17.411  0.00  0.00    +0.000 C 
ATOM     11  C   UNL     1       5.489   4.505  18.358  0.00  0.00    +0.000 C 
ATOM     12  C   UNL     1       6.673   5.302  18.908  0.00  0.00    +0.000 C 
ATOM     13  N   UNL     1       7.441   5.977  17.863  0.00  0.00    +0.000 NA
ATOM     14  C   UNL     1       6.619   6.805  16.983  0.00  0.00    +0.000 C 
ATOM     15  C   UNL     1       5.454   6.034  16.363  0.00  0.00    +0.000 C 
ATOM     16  H   UNL     1       7.927   5.275  17.301  0.00  0.00    +0.000 HD
ENDBRANCH   7  10
BRANCH   2  17
ATOM     17  C   UNL     1       0.916  10.034  20.026  0.00  0.00    +0.000 C 
BRANCH  17  18
ATOM     18  C   UNL     1      -0.364  10.631  19.494  0.00  0.00    +0.000 A 
ATOM     19  C   UNL     1      -1.153  11.549  20.188  0.00  0.00    +0.000 A 
ATOM     20  F   UNL     1      -0.814  11.953  21.420  0.00  0.00    +0.000 F 
ATOM     21  C   UNL     1      -2.323  12.075  19.636  0.00  0.00    +0.000 A 
ATOM     22  C   UNL     1      -2.731  11.691  18.361  0.00  0.00    +0.000 A 
ATOM     23  C   UNL     1      -1.964  10.775  17.647  0.00  0.00    +0.000 A 
ATOM     24  C   UNL     1      -0.798  10.258  18.215  0.00  0.00    +0.000 A 
ATOM     25  F   UNL     1      -0.081   9.379  17.500  0.00  0.00    +0.000 F 
ENDBRANCH  17  18
ENDBRANCH   2  17
TORSDOF 3
ENDMDL
MODEL 9
REMARK VINA RESULT:      -7.8      4.853      6.015
REMARK  Name = 
REMARK  3 active torsions:
REMARK  status: ('A' for Active; 'I' for Inactive)
REMARK    1  A    between atoms: C_2  and  C_3
REMARK    2  A    between atoms: C_3  and  C_4
REMARK    3  A    between atoms: C_16  and  C_17
REMARK                            x       y       z     vdW  Elec       q    Type
REMARK                         _______ _______ _______ _____ _____    ______ ____
ROOT
ATOM      1  O   UNL     1       4.058   4.981  19.765  0.00  0.00    +0.000 OA
ATOM      2  C   UNL     1       3.456   5.945  19.277  0.00  0.00    +0.000 C 
ATOM      3  N   UNL     1       2.691   6.711  20.110  0.00  0.00    +0.000 N 
ATOM      4  C   UNL     1       1.996   7.816  19.728  0.00  0.00    +0.000 A 
ATOM      5  N   UNL     1       1.967   8.356  18.545  0.00  0.00    +0.000 NA
ATOM      6  C   UNL     1       1.168   9.463  18.562  0.00  0.00    +0.000 A 
ATOM      7  C   UNL     1       0.547   9.749  19.764  0.00  0.00    +0.000 A 
ATOM      8  S   UNL     1       1.058   8.581  20.930  0.00  0.00    +0.000 S 
ATOM      9  H   UNL     1       2.678   6.445  21.081  0.00  0.00    +0.000 HD
ENDROOT
BRANCH   7  10
ATOM     10  C   UNL     1      -0.397  10.872  20.123  0.00  0.00    +0.000 C 
ATOM     11  C   UNL     1      -0.754  11.761  18.920  0.00  0.00    +0.000 C 
ATOM     12  C   UNL     1       0.358  12.739  18.536  0.00  0.00    +0.000 C 
ATOM     13  N   UNL     1       0.851  13.516  19.672  0.00  0.00    +0.000 NA
ATOM     14  C   UNL     1       1.254  12.690  20.809  0.00  0.00    +0.000 C 
ATOM     15  C   UNL     1       0.151  11.736  21.265  0.00  0.00    +0.000 C 
ATOM     16  H   UNL     1       0.122  14.165  19.974  0.00  0.00    +0.000 HD
ENDBRANCH   7  10
BRANCH   2  17
ATOM     17  C   UNL     1       3.539   6.224  17.780  0.00  0.00    +0.000 C 
BRANCH  17  18
ATOM     18  C   UNL     1       4.736   5.675  17.042  0.00  0.00    +0.000 A 
ATOM     19  C   UNL     1       5.951   6.347  16.902  0.00  0.00    +0.000 A 
ATOM     20  F   UNL     1       6.122   7.572  17.418  0.00  0.00    +0.000 F 
ATOM     21  C   UNL     1       7.028   5.780  16.217  0.00  0.00    +0.000 A 
ATOM     22  C   UNL     1       6.911   4.511  15.654  0.00  0.00    +0.000 A 
ATOM     23  C   UNL     1       5.710   3.819  15.778  0.00  0.00    +0.000 A 
ATOM     24  C   UNL     1       4.643   4.402  16.464  0.00  0.00    +0.000 A 
ATOM     25  F   UNL     1       3.500   3.708  16.567  0.00  0.00    +0.000 F 
ENDBRANCH  17  18
ENDBRANCH   2  17
TORSDOF 3
ENDMDL
