MODEL 1
REMARK VINA RESULT:      -7.8      0.000      0.000
REMARK  Name = 
REMARK  8 active torsions:
REMARK  status: ('A' for Active; 'I' for Inactive)
REMARK    1  A    between atoms: C_2  and  CA_3
REMARK    2  A    between atoms: CA_3  and  CB_4
REMARK    3  A    between atoms: CA_3  and  N_11
REMARK    4  A    between atoms: CB_4  and  CG_5
REMARK    5  A    between atoms: C_12  and  C_14
REMARK    6  A    between atoms: C_20  and  O_21
REMARK    7  A    between atoms: O_21  and  C_22
REMARK    8  A    between atoms: C_22  and  C_23
REMARK                            x       y       z     vdW  Elec       q    Type
REMARK                         _______ _______ _______ _____ _____    ______ ____
ROOT
ATOM      1  C   UNK A   0       4.951   4.818  18.792  0.00  0.00    +0.000 A 
ATOM      2  C   UNK A   0       4.786   3.426  18.852  0.00  0.00    +0.000 A 
ATOM      3  C   UNK A   0       3.683   2.826  18.259  0.00  0.00    +0.000 A 
ATOM      4 CL   UNK A   0       3.662   1.121  18.034  0.00  0.00    +0.000 Cl
ATOM      5  C   UNK A   0       2.654   3.604  17.753  0.00  0.00    +0.000 A 
ATOM      6  C   UNK A   0       2.722   4.990  17.877  0.00  0.00    +0.000 A 
ATOM      7  C   UNK A   0       3.858   5.622  18.423  0.00  0.00    +0.000 A 
ENDROOT
BRANCH   1   9
ATOM      8  N   PHE A   1       7.045   5.884  17.962  0.00  0.00    +0.000 N 
ATOM      9  C   UNK A   0       6.322   5.363  19.036  0.00  0.00    +0.000 C 
ATOM     10  O   UNK A   0       6.807   5.366  20.167  0.00  0.00    +0.000 OA
ATOM     11  H   PHE A   1       8.013   6.080  18.216  0.00  0.00    +0.000 HD
BRANCH   8  12
ATOM     12  CA  PHE A   1       6.741   5.874  16.521  0.00  0.00    +0.000 C 
BRANCH  12  14
ATOM     13  O   PHE A   1       4.898   6.915  15.289  0.00  0.00    +0.000 OA
ATOM     14  C   PHE A   1       5.790   7.002  16.130  0.00  0.00    +0.000 C 
ENDBRANCH  12  14
BRANCH  12  15
ATOM     15  CB  PHE A   1       6.298   4.529  15.938  0.00  0.00    +0.000 C 
BRANCH  15  16
ATOM     16  CG  PHE A   1       6.526   4.313  14.472  0.00  0.00    +0.000 A 
ATOM     17  CD1 PHE A   1       5.708   3.435  13.738  0.00  0.00    +0.000 A 
ATOM     18  CE1 PHE A   1       5.885   3.292  12.362  0.00  0.00    +0.000 A 
ATOM     19  CZ  PHE A   1       6.873   4.025  11.710  0.00  0.00    +0.000 A 
ATOM     20  CE2 PHE A   1       7.693   4.891  12.433  0.00  0.00    +0.000 A 
ATOM     21  CD2 PHE A   1       7.522   5.029  13.811  0.00  0.00    +0.000 A 
ENDBRANCH  15  16
ENDBRANCH  12  15
ENDBRANCH   8  12
ENDBRANCH   1   9
BRANCH   7  22
ATOM     22  O   UNK A   0       3.921   6.986  18.576  0.00  0.00    +0.000 OA
BRANCH  22  23
ATOM     23  C   UNK A   0       2.772   7.686  18.060  0.00  0.00    +0.000 C 
BRANCH  23  24
ATOM     24  C   UNK A   0       1.912   8.338  19.115  0.00  0.00    +0.000 A 
ATOM     25  C   UNK A   0       1.213   9.514  18.784  0.00  0.00    +0.000 A 
ATOM     26  C   UNK A   0       0.411  10.158  19.728  0.00  0.00    +0.000 A 
ATOM     27  C   UNK A   0       0.284   9.620  21.005  0.00  0.00    +0.000 A 
ATOM     28  C   UNK A   0       0.936   8.431  21.329  0.00  0.00    +0.000 A 
ATOM     29  C   UNK A   0       1.740   7.785  20.387  0.00  0.00    +0.000 A 
ENDBRANCH  23  24
ENDBRANCH  22  23
ENDBRANCH   7  22
TORSDOF 8
ENDMDL
MODEL 2
REMARK VINA RESULT:      -7.7      1.306      2.473
REMARK  Name = 
REMARK  8 active torsions:
REMARK  status: ('A' for Active; 'I' for Inactive)
REMARK    1  A    between atoms: C_2  and  CA_3
REMARK    2  A    between atoms: CA_3  and  CB_4
REMARK    3  A    between atoms: CA_3  and  N_11
REMARK    4  A    between atoms: CB_4  and  CG_5
REMARK    5  A    between atoms: C_12  and  C_14
REMARK    6  A    between atoms: C_20  and  O_21
REMARK    7  A    between atoms: O_21  and  C_22
REMARK    8  A    between atoms: C_22  and  C_23
REMARK                            x       y       z     vdW  Elec       q    Type
REMARK                         _______ _______ _______ _____ _____    ______ ____
ROOT
ATOM      1  C   UNK A   0       3.474   5.720  18.379  0.00  0.00    +0.000 A 
ATOM      2  C   UNK A   0       3.526   4.357  18.045  0.00  0.00    +0.000 A 
ATOM      3  C   UNK A   0       2.520   3.496  18.459  0.00  0.00    +0.000 A 
ATOM      4 CL   UNK A   0       2.407   1.926  17.766  0.00  0.00    +0.000 Cl
ATOM      5  C   UNK A   0       1.548   3.934  19.344  0.00  0.00    +0.000 A 
ATOM      6  C   UNK A   0       1.612   5.234  19.839  0.00  0.00    +0.000 A 
ATOM      7  C   UNK A   0       2.590   6.143  19.388  0.00  0.00    +0.000 A 
ENDROOT
BRANCH   1   9
ATOM      8  N   PHE A   1       5.661   6.399  17.396  0.00  0.00    +0.000 N 
ATOM      9  C   UNK A   0       4.301   6.663  17.567  0.00  0.00    +0.000 C 
ATOM     10  O   UNK A   0       3.793   7.654  17.041  0.00  0.00    +0.000 OA
ATOM     11  H   PHE A   1       6.148   7.181  16.961  0.00  0.00    +0.000 HD
BRANCH   8  12
ATOM     12  CA  PHE A   1       6.512   5.371  18.019  0.00  0.00    +0.000 C 
BRANCH  12  14
ATOM     13  O   PHE A   1       7.501   5.343  20.260  0.00  0.00    +0.000 OA
ATOM     14  C   PHE A   1       7.311   5.927  19.195  0.00  0.00    +0.000 C 
ENDBRANCH  12  14
BRANCH  12  15
ATOM     15  CB  PHE A   1       7.394   4.562  17.064  0.00  0.00    +0.000 C 
BRANCH  15  16
ATOM     16  CG  PHE A   1       6.925   4.437  15.645  0.00  0.00    +0.000 A 
ATOM     17  CD1 PHE A   1       7.633   5.052  14.596  0.00  0.00    +0.000 A 
ATOM     18  CE1 PHE A   1       7.228   4.874  13.274  0.00  0.00    +0.000 A 
ATOM     19  CZ  PHE A   1       6.121   4.081  12.988  0.00  0.00    +0.000 A 
ATOM     20  CE2 PHE A   1       5.410   3.474  14.023  0.00  0.00    +0.000 A 
ATOM     21  CD2 PHE A   1       5.809   3.658  15.348  0.00  0.00    +0.000 A 
ENDBRANCH  15  16
ENDBRANCH  12  15
ENDBRANCH   8  12
ENDBRANCH   1   9
BRANCH   7  22
ATOM     22  O   UNK A   0       2.678   7.418  19.892  0.00  0.00    +0.000 OA
BRANCH  22  23
ATOM     23  C   UNK A   0       1.609   8.287  19.474  0.00  0.00    +0.000 C 
BRANCH  23  24
ATOM     24  C   UNK A   0       0.899   8.995  20.603  0.00  0.00    +0.000 A 
ATOM     25  C   UNK A   0       0.008  10.039  20.291  0.00  0.00    +0.000 A 
ATOM     26  C   UNK A   0      -0.665  10.727  21.302  0.00  0.00    +0.000 A 
ATOM     27  C   UNK A   0      -0.470  10.365  22.631  0.00  0.00    +0.000 A 
ATOM     28  C   UNK A   0       0.376   9.302  22.947  0.00  0.00    +0.000 A 
ATOM     29  C   UNK A   0       1.052   8.611  21.938  0.00  0.00    +0.000 A 
ENDBRANCH  23  24
ENDBRANCH  22  23
ENDBRANCH   7  22
TORSDOF 8
ENDMDL
MODEL 3
REMARK VINA RESULT:      -7.7      1.355      2.436
REMARK  Name = 
REMARK  8 active torsions:
REMARK  status: ('A' for Active; 'I' for Inactive)
REMARK    1  A    between atoms: C_2  and  CA_3
REMARK    2  A    between atoms: CA_3  and  CB_4
REMARK    3  A    between atoms: CA_3  and  N_11
REMARK    4  A    between atoms: CB_4  and  CG_5
REMARK    5  A    between atoms: C_12  and  C_14
REMARK    6  A    between atoms: C_20  and  O_21
REMARK    7  A    between atoms: O_21  and  C_22
REMARK    8  A    between atoms: C_22  and  C_23
REMARK                            x       y       z     vdW  Elec       q    Type
REMARK                         _______ _______ _______ _____ _____    ______ ____
ROOT
ATOM      1  C   UNK A   0       3.184   5.901  18.419  0.00  0.00    +0.000 A 
ATOM      2  C   UNK A   0       3.391   4.586  17.973  0.00  0.00    +0.000 A 
ATOM      3  C   UNK A   0       2.561   3.562  18.407  0.00  0.00    +0.000 A 
ATOM      4 CL   UNK A   0       2.598   2.041  17.602  0.00  0.00    +0.000 Cl
ATOM      5  C   UNK A   0       1.631   3.793  19.408  0.00  0.00    +0.000 A 
ATOM      6  C   UNK A   0       1.564   5.053  19.998  0.00  0.00    +0.000 A 
ATOM      7  C   UNK A   0       2.357   6.123  19.535  0.00  0.00    +0.000 A 
ENDROOT
BRANCH   1   9
ATOM      8  N   PHE A   1       5.092   6.871  17.144  0.00  0.00    +0.000 N 
ATOM      9  C   UNK A   0       3.786   7.007  17.614  0.00  0.00    +0.000 C 
ATOM     10  O   UNK A   0       3.138   8.021  17.353  0.00  0.00    +0.000 OA
ATOM     11  H   PHE A   1       5.445   7.740  16.745  0.00  0.00    +0.000 HD
BRANCH   8  12
ATOM     12  CA  PHE A   1       6.097   5.831  17.426  0.00  0.00    +0.000 C 
BRANCH  12  14
ATOM     13  O   PHE A   1       6.630   5.122  19.709  0.00  0.00    +0.000 OA
ATOM     14  C   PHE A   1       6.689   5.975  18.826  0.00  0.00    +0.000 C 
ENDBRANCH  12  14
BRANCH  12  15
ATOM     15  CB  PHE A   1       7.185   5.645  16.365  0.00  0.00    +0.000 C 
BRANCH  15  16
ATOM     16  CG  PHE A   1       6.794   4.930  15.106  0.00  0.00    +0.000 A 
ATOM     17  CD1 PHE A   1       5.662   4.095  15.074  0.00  0.00    +0.000 A 
ATOM     18  CE1 PHE A   1       5.268   3.488  13.882  0.00  0.00    +0.000 A 
ATOM     19  CZ  PHE A   1       5.994   3.712  12.717  0.00  0.00    +0.000 A 
ATOM     20  CE2 PHE A   1       7.122   4.532  12.742  0.00  0.00    +0.000 A 
ATOM     21  CD2 PHE A   1       7.523   5.134  13.936  0.00  0.00    +0.000 A 
ENDBRANCH  15  16
ENDBRANCH  12  15
ENDBRANCH   8  12
ENDBRANCH   1   9
BRANCH   7  22
ATOM     22  O   UNK A   0       2.317   7.361  20.130  0.00  0.00    +0.000 OA
BRANCH  22  23
ATOM     23  C   UNK A   0       1.370   7.459  21.211  0.00  0.00    +0.000 C 
BRANCH  23  24
ATOM     24  C   UNK A   0       0.740   8.822  21.368  0.00  0.00    +0.000 A 
ATOM     25  C   UNK A   0       0.761   9.706  20.273  0.00  0.00    +0.000 A 
ATOM     26  C   UNK A   0       0.197  10.979  20.373  0.00  0.00    +0.000 A 
ATOM     27  C   UNK A   0      -0.412  11.372  21.561  0.00  0.00    +0.000 A 
ATOM     28  C   UNK A   0      -0.478  10.487  22.636  0.00  0.00    +0.000 A 
ATOM     29  C   UNK A   0       0.086   9.212  22.540  0.00  0.00    +0.000 A 
ENDBRANCH  23  24
ENDBRANCH  22  23
ENDBRANCH   7  22
TORSDOF 8
ENDMDL
MODEL 4
REMARK VINA RESULT:      -7.6      0.572      1.076
REMARK  Name = 
REMARK  8 active torsions:
REMARK  status: ('A' for Active; 'I' for Inactive)
REMARK    1  A    between atoms: C_2  and  CA_3
REMARK    2  A    between atoms: CA_3  and  CB_4
REMARK    3  A    between atoms: CA_3  and  N_11
REMARK    4  A    between atoms: CB_4  and  CG_5
REMARK    5  A    between atoms: C_12  and  C_14
REMARK    6  A    between atoms: C_20  and  O_21
REMARK    7  A    between atoms: O_21  and  C_22
REMARK    8  A    between atoms: C_22  and  C_23
REMARK                            x       y       z     vdW  Elec       q    Type
REMARK                         _______ _______ _______ _____ _____    ______ ____
ROOT
ATOM      1  C   UNK A   0       4.386   4.946  18.744  0.00  0.00    +0.000 A 
ATOM      2  C   UNK A   0       4.143   3.566  18.646  0.00  0.00    +0.000 A 
ATOM      3  C   UNK A   0       2.951   3.102  18.109  0.00  0.00    +0.000 A 
ATOM      4 CL   UNK A   0       2.803   1.444  17.675  0.00  0.00    +0.000 Cl
ATOM      5  C   UNK A   0       1.924   3.987  17.821  0.00  0.00    +0.000 A 
ATOM      6  C   UNK A   0       2.088   5.340  18.111  0.00  0.00    +0.000 A 
ATOM      7  C   UNK A   0       3.311   5.841  18.602  0.00  0.00    +0.000 A 
ENDROOT
BRANCH   1   9
ATOM      8  N   PHE A   1       6.499   5.847  17.780  0.00  0.00    +0.000 N 
ATOM      9  C   UNK A   0       5.805   5.389  18.900  0.00  0.00    +0.000 C 
ATOM     10  O   UNK A   0       6.355   5.365  20.001  0.00  0.00    +0.000 OA
ATOM     11  H   PHE A   1       7.492   5.973  17.974  0.00  0.00    +0.000 HD
BRANCH   8  12
ATOM     12  CA  PHE A   1       6.111   5.848  16.359  0.00  0.00    +0.000 C 
BRANCH  12  14
ATOM     13  O   PHE A   1       4.770   7.366  14.983  0.00  0.00    +0.000 OA
ATOM     14  C   PHE A   1       4.992   6.846  16.074  0.00  0.00    +0.000 C 
ENDBRANCH  12  14
BRANCH  12  15
ATOM     15  CB  PHE A   1       5.821   4.477  15.742  0.00  0.00    +0.000 C 
BRANCH  15  16
ATOM     16  CG  PHE A   1       6.254   4.263  14.322  0.00  0.00    +0.000 A 
ATOM     17  CD1 PHE A   1       5.547   3.390  13.477  0.00  0.00    +0.000 A 
ATOM     18  CE1 PHE A   1       5.916   3.249  12.140  0.00  0.00    +0.000 A 
ATOM     19  CZ  PHE A   1       6.988   3.980  11.636  0.00  0.00    +0.000 A 
ATOM     20  CE2 PHE A   1       7.700   4.843  12.470  0.00  0.00    +0.000 A 
ATOM     21  CD2 PHE A   1       7.336   4.978  13.811  0.00  0.00    +0.000 A 
ENDBRANCH  15  16
ENDBRANCH  12  15
ENDBRANCH   8  12
ENDBRANCH   1   9
BRANCH   7  22
ATOM     22  O   UNK A   0       3.472   7.169  18.917  0.00  0.00    +0.000 OA
BRANCH  22  23
ATOM     23  C   UNK A   0       2.488   8.035  18.319  0.00  0.00    +0.000 C 
BRANCH  23  24
ATOM     24  C   UNK A   0       1.545   8.684  19.304  0.00  0.00    +0.000 A 
ATOM     25  C   UNK A   0       1.538   8.225  20.635  0.00  0.00    +0.000 A 
ATOM     26  C   UNK A   0       0.678   8.789  21.579  0.00  0.00    +0.000 A 
ATOM     27  C   UNK A   0      -0.166   9.831  21.207  0.00  0.00    +0.000 A 
ATOM     28  C   UNK A   0      -0.134  10.322  19.903  0.00  0.00    +0.000 A 
ATOM     29  C   UNK A   0       0.724   9.760  18.955  0.00  0.00    +0.000 A 
ENDBRANCH  23  24
ENDBRANCH  22  23
ENDBRANCH   7  22
TORSDOF 8
ENDMDL
MODEL 5
REMARK VINA RESULT:      -7.6      5.882     10.948
REMARK  Name = 
REMARK  8 active torsions:
REMARK  status: ('A' for Active; 'I' for Inactive)
REMARK    1  A    between atoms: C_2  and  CA_3
REMARK    2  A    between atoms: CA_3  and  CB_4
REMARK    3  A    between atoms: CA_3  and  N_11
REMARK    4  A    between atoms: CB_4  and  CG_5
REMARK    5  A    between atoms: C_12  and  C_14
REMARK    6  A    between atoms: C_20  and  O_21
REMARK    7  A    between atoms: O_21  and  C_22
REMARK    8  A    between atoms: C_22  and  C_23
REMARK                            x       y       z     vdW  Elec       q    Type
REMARK                         _______ _______ _______ _____ _____    ______ ____
ROOT
ATOM      1  C   UNK A   0      -1.411  12.221  19.784  0.00  0.00    +0.000 A 
ATOM      2  C   UNK A   0      -2.389  12.927  20.502  0.00  0.00    +0.000 A 
ATOM      3  C   UNK A   0      -2.468  12.806  21.882  0.00  0.00    +0.000 A 
ATOM      4 CL   UNK A   0      -3.424  13.920  22.779  0.00  0.00    +0.000 Cl
ATOM      5  C   UNK A   0      -1.697  11.864  22.545  0.00  0.00    +0.000 A 
ATOM      6  C   UNK A   0      -0.871  11.018  21.808  0.00  0.00    +0.000 A 
ATOM      7  C   UNK A   0      -0.732  11.162  20.413  0.00  0.00    +0.000 A 
ENDROOT
BRANCH   1   9
ATOM      8  N   PHE A   1      -1.822  12.238  17.327  0.00  0.00    +0.000 N 
ATOM      9  C   UNK A   0      -1.077  12.706  18.410  0.00  0.00    +0.000 C 
ATOM     10  O   UNK A   0      -0.168  13.516  18.231  0.00  0.00    +0.000 OA
ATOM     11  H   PHE A   1      -1.410  12.513  16.436  0.00  0.00    +0.000 HD
BRANCH   8  12
ATOM     12  CA  PHE A   1      -2.853  11.188  17.268  0.00  0.00    +0.000 C 
BRANCH  12  14
ATOM     13  O   PHE A   1      -2.693   9.406  15.595  0.00  0.00    +0.000 OA
ATOM     14  C   PHE A   1      -2.317   9.895  16.658  0.00  0.00    +0.000 C 
ENDBRANCH  12  14
BRANCH  12  15
ATOM     15  CB  PHE A   1      -4.192  11.596  16.647  0.00  0.00    +0.000 C 
BRANCH  15  16
ATOM     16  CG  PHE A   1      -5.319  11.892  17.592  0.00  0.00    +0.000 A 
ATOM     17  CD1 PHE A   1      -6.410  12.681  17.186  0.00  0.00    +0.000 A 
ATOM     18  CE1 PHE A   1      -7.485  12.895  18.049  0.00  0.00    +0.000 A 
ATOM     19  CZ  PHE A   1      -7.480  12.321  19.317  0.00  0.00    +0.000 A 
ATOM     20  CE2 PHE A   1      -6.398  11.544  19.729  0.00  0.00    +0.000 A 
ATOM     21  CD2 PHE A   1      -5.318  11.336  18.870  0.00  0.00    +0.000 A 
ENDBRANCH  15  16
ENDBRANCH  12  15
ENDBRANCH   8  12
ENDBRANCH   1   9
BRANCH   7  22
ATOM     22  O   UNK A   0       0.058  10.313  19.675  0.00  0.00    +0.000 OA
BRANCH  22  23
ATOM     23  C   UNK A   0       0.853   9.414  20.472  0.00  0.00    +0.000 C 
BRANCH  23  24
ATOM     24  C   UNK A   0       1.656   8.415  19.675  0.00  0.00    +0.000 A 
ATOM     25  C   UNK A   0       1.913   7.152  20.239  0.00  0.00    +0.000 A 
ATOM     26  C   UNK A   0       2.657   6.198  19.543  0.00  0.00    +0.000 A 
ATOM     27  C   UNK A   0       3.133   6.490  18.268  0.00  0.00    +0.000 A 
ATOM     28  C   UNK A   0       2.845   7.722  17.683  0.00  0.00    +0.000 A 
ATOM     29  C   UNK A   0       2.101   8.680  18.376  0.00  0.00    +0.000 A 
ENDBRANCH  23  24
ENDBRANCH  22  23
ENDBRANCH   7  22
TORSDOF 8
ENDMDL
MODEL 6
REMARK VINA RESULT:      -7.6      1.838      2.323
REMARK  Name = 
REMARK  8 active torsions:
REMARK  status: ('A' for Active; 'I' for Inactive)
REMARK    1  A    between atoms: C_2  and  CA_3
REMARK    2  A    between atoms: CA_3  and  CB_4
REMARK    3  A    between atoms: CA_3  and  N_11
REMARK    4  A    between atoms: CB_4  and  CG_5
REMARK    5  A    between atoms: C_12  and  C_14
REMARK    6  A    between atoms: C_20  and  O_21
REMARK    7  A    between atoms: O_21  and  C_22
REMARK    8  A    between atoms: C_22  and  C_23
REMARK                            x       y       z     vdW  Elec       q    Type
REMARK                         _______ _______ _______ _____ _____    ______ ____
ROOT
ATOM      1  C   UNK A   0       2.853   4.413  18.522  0.00  0.00    +0.000 A 
ATOM      2  C   UNK A   0       3.155   3.437  19.485  0.00  0.00    +0.000 A 
ATOM      3  C   UNK A   0       2.718   3.587  20.794  0.00  0.00    +0.000 A 
ATOM      4 CL   UNK A   0       2.788   2.247  21.871  0.00  0.00    +0.000 Cl
ATOM      5  C   UNK A   0       2.127   4.772  21.201  0.00  0.00    +0.000 A 
ATOM      6  C   UNK A   0       2.011   5.823  20.294  0.00  0.00    +0.000 A 
ATOM      7  C   UNK A   0       2.395   5.673  18.946  0.00  0.00    +0.000 A 
ENDROOT
BRANCH   1   9
ATOM      8  N   PHE A   1       4.122   4.281  16.382  0.00  0.00    +0.000 N 
ATOM      9  C   UNK A   0       2.945   4.017  17.084  0.00  0.00    +0.000 C 
ATOM     10  O   UNK A   0       2.005   3.452  16.525  0.00  0.00    +0.000 OA
ATOM     11  H   PHE A   1       4.014   4.110  15.383  0.00  0.00    +0.000 HD
BRANCH   8  12
ATOM     12  CA  PHE A   1       5.314   5.047  16.784  0.00  0.00    +0.000 C 
BRANCH  12  14
ATOM     13  O   PHE A   1       4.939   7.024  15.388  0.00  0.00    +0.000 OA
ATOM     14  C   PHE A   1       5.159   6.538  16.495  0.00  0.00    +0.000 C 
ENDBRANCH  12  14
BRANCH  12  15
ATOM     15  CB  PHE A   1       6.657   4.508  16.284  0.00  0.00    +0.000 C 
BRANCH  15  16
ATOM     16  CG  PHE A   1       6.853   4.438  14.799  0.00  0.00    +0.000 A 
ATOM     17  CD1 PHE A   1       6.101   3.546  14.014  0.00  0.00    +0.000 A 
ATOM     18  CE1 PHE A   1       6.242   3.536  12.627  0.00  0.00    +0.000 A 
ATOM     19  CZ  PHE A   1       7.129   4.417  12.014  0.00  0.00    +0.000 A 
ATOM     20  CE2 PHE A   1       7.884   5.299  12.786  0.00  0.00    +0.000 A 
ATOM     21  CD2 PHE A   1       7.750   5.304  14.175  0.00  0.00    +0.000 A 
ENDBRANCH  15  16
ENDBRANCH  12  15
ENDBRANCH   8  12
ENDBRANCH   1   9
BRANCH   7  22
ATOM     22  O   UNK A   0       2.311   6.713  18.052  0.00  0.00    +0.000 OA
BRANCH  22  23
ATOM     23  C   UNK A   0       2.636   7.998  18.617  0.00  0.00    +0.000 C 
BRANCH  23  24
ATOM     24  C   UNK A   0       1.441   8.870  18.918  0.00  0.00    +0.000 A 
ATOM     25  C   UNK A   0       0.683   9.370  17.843  0.00  0.00    +0.000 A 
ATOM     26  C   UNK A   0      -0.426  10.187  18.071  0.00  0.00    +0.000 A 
ATOM     27  C   UNK A   0      -0.800  10.493  19.376  0.00  0.00    +0.000 A 
ATOM     28  C   UNK A   0      -0.082   9.966  20.448  0.00  0.00    +0.000 A 
ATOM     29  C   UNK A   0       1.029   9.149  20.224  0.00  0.00    +0.000 A 
ENDBRANCH  23  24
ENDBRANCH  22  23
ENDBRANCH   7  22
TORSDOF 8
ENDMDL
MODEL 7
REMARK VINA RESULT:      -7.6      1.603      2.636
REMARK  Name = 
REMARK  8 active torsions:
REMARK  status: ('A' for Active; 'I' for Inactive)
REMARK    1  A    between atoms: C_2  and  CA_3
REMARK    2  A    between atoms: CA_3  and  CB_4
REMARK    3  A    between atoms: CA_3  and  N_11
REMARK    4  A    between atoms: CB_4  and  CG_5
REMARK    5  A    between atoms: C_12  and  C_14
REMARK    6  A    between atoms: C_20  and  O_21
REMARK    7  A    between atoms: O_21  and  C_22
REMARK    8  A    between atoms: C_22  and  C_23
REMARK                            x       y       z     vdW  Elec       q    Type
REMARK                         _______ _______ _______ _____ _____    ______ ____
ROOT
ATOM      1  C   UNK A   0       3.091   5.877  18.556  0.00  0.00    +0.000 A 
ATOM      2  C   UNK A   0       3.192   4.524  18.197  0.00  0.00    +0.000 A 
ATOM      3  C   UNK A   0       2.372   3.578  18.795  0.00  0.00    +0.000 A 
ATOM      4 CL   UNK A   0       2.256   2.002  18.115  0.00  0.00    +0.000 Cl
ATOM      5  C   UNK A   0       1.567   3.929  19.868  0.00  0.00    +0.000 A 
ATOM      6  C   UNK A   0       1.619   5.231  20.360  0.00  0.00    +0.000 A 
ATOM      7  C   UNK A   0       2.400   6.223  19.732  0.00  0.00    +0.000 A 
ENDROOT
BRANCH   1   9
ATOM      8  N   PHE A   1       5.014   6.876  17.327  0.00  0.00    +0.000 N 
ATOM      9  C   UNK A   0       3.647   6.888  17.607  0.00  0.00    +0.000 C 
ATOM     10  O   UNK A   0       2.912   7.714  17.065  0.00  0.00    +0.000 OA
ATOM     11  H   PHE A   1       5.300   7.696  16.795  0.00  0.00    +0.000 HD
BRANCH   8  12
ATOM     12  CA  PHE A   1       6.099   6.087  17.936  0.00  0.00    +0.000 C 
BRANCH  12  14
ATOM     13  O   PHE A   1       7.775   7.724  17.223  0.00  0.00    +0.000 OA
ATOM     14  C   PHE A   1       7.397   6.884  18.036  0.00  0.00    +0.000 C 
ENDBRANCH  12  14
BRANCH  12  15
ATOM     15  CB  PHE A   1       6.331   4.695  17.341  0.00  0.00    +0.000 C 
BRANCH  15  16
ATOM     16  CG  PHE A   1       6.337   4.585  15.845  0.00  0.00    +0.000 A 
ATOM     17  CD1 PHE A   1       7.441   5.028  15.096  0.00  0.00    +0.000 A 
ATOM     18  CE1 PHE A   1       7.466   4.861  13.712  0.00  0.00    +0.000 A 
ATOM     19  CZ  PHE A   1       6.395   4.248  13.068  0.00  0.00    +0.000 A 
ATOM     20  CE2 PHE A   1       5.293   3.813  13.804  0.00  0.00    +0.000 A 
ATOM     21  CD2 PHE A   1       5.263   3.988  15.188  0.00  0.00    +0.000 A 
ENDBRANCH  15  16
ENDBRANCH  12  15
ENDBRANCH   8  12
ENDBRANCH   1   9
BRANCH   7  22
ATOM     22  O   UNK A   0       2.478   7.501  20.228  0.00  0.00    +0.000 OA
BRANCH  22  23
ATOM     23  C   UNK A   0       1.324   7.905  20.989  0.00  0.00    +0.000 C 
BRANCH  23  24
ATOM     24  C   UNK A   0       0.663   9.171  20.501  0.00  0.00    +0.000 A 
ATOM     25  C   UNK A   0      -0.072   9.946  21.417  0.00  0.00    +0.000 A 
ATOM     26  C   UNK A   0      -0.707  11.121  21.010  0.00  0.00    +0.000 A 
ATOM     27  C   UNK A   0      -0.595  11.543  19.689  0.00  0.00    +0.000 A 
ATOM     28  C   UNK A   0       0.169  10.806  18.785  0.00  0.00    +0.000 A 
ATOM     29  C   UNK A   0       0.805   9.630  19.188  0.00  0.00    +0.000 A 
ENDBRANCH  23  24
ENDBRANCH  22  23
ENDBRANCH   7  22
TORSDOF 8
ENDMDL
MODEL 8
REMARK VINA RESULT:      -7.6      0.494      1.076
REMARK  Name = 
REMARK  8 active torsions:
REMARK  status: ('A' for Active; 'I' for Inactive)
REMARK    1  A    between atoms: C_2  and  CA_3
REMARK    2  A    between atoms: CA_3  and  CB_4
REMARK    3  A    between atoms: CA_3  and  N_11
REMARK    4  A    between atoms: CB_4  and  CG_5
REMARK    5  A    between atoms: C_12  and  C_14
REMARK    6  A    between atoms: C_20  and  O_21
REMARK    7  A    between atoms: O_21  and  C_22
REMARK    8  A    between atoms: C_22  and  C_23
REMARK                            x       y       z     vdW  Elec       q    Type
REMARK                         _______ _______ _______ _____ _____    ______ ____
ROOT
ATOM      1  C   UNK A   0       4.732   4.883  18.767  0.00  0.00    +0.000 A 
ATOM      2  C   UNK A   0       4.599   3.488  18.683  0.00  0.00    +0.000 A 
ATOM      3  C   UNK A   0       3.449   2.926  18.148  0.00  0.00    +0.000 A 
ATOM      4 CL   UNK A   0       3.434   1.256  17.733  0.00  0.00    +0.000 Cl
ATOM      5  C   UNK A   0       2.356   3.723  17.847  0.00  0.00    +0.000 A 
ATOM      6  C   UNK A   0       2.413   5.088  18.122  0.00  0.00    +0.000 A 
ATOM      7  C   UNK A   0       3.590   5.690  18.611  0.00  0.00    +0.000 A 
ENDROOT
BRANCH   1   9
ATOM      8  N   PHE A   1       6.800   5.869  17.788  0.00  0.00    +0.000 N 
ATOM      9  C   UNK A   0       6.111   5.438  18.922  0.00  0.00    +0.000 C 
ATOM     10  O   UNK A   0       6.632   5.529  20.034  0.00  0.00    +0.000 OA
ATOM     11  H   PHE A   1       7.776   6.081  17.994  0.00  0.00    +0.000 HD
BRANCH   8  12
ATOM     12  CA  PHE A   1       6.450   5.747  16.362  0.00  0.00    +0.000 C 
BRANCH  12  14
ATOM     13  O   PHE A   1       4.929   7.272  15.195  0.00  0.00    +0.000 OA
ATOM     14  C   PHE A   1       5.108   6.402  16.045  0.00  0.00    +0.000 C 
ENDBRANCH  12  14
BRANCH  12  15
ATOM     15  CB  PHE A   1       6.551   4.340  15.766  0.00  0.00    +0.000 C 
BRANCH  15  16
ATOM     16  CG  PHE A   1       6.611   4.237  14.271  0.00  0.00    +0.000 A 
ATOM     17  CD1 PHE A   1       7.550   4.980  13.535  0.00  0.00    +0.000 A 
ATOM     18  CE1 PHE A   1       7.644   4.827  12.152  0.00  0.00    +0.000 A 
ATOM     19  CZ  PHE A   1       6.806   3.930  11.496  0.00  0.00    +0.000 A 
ATOM     20  CE2 PHE A   1       5.866   3.195  12.218  0.00  0.00    +0.000 A 
ATOM     21  CD2 PHE A   1       5.766   3.353  13.601  0.00  0.00    +0.000 A 
ENDBRANCH  15  16
ENDBRANCH  12  15
ENDBRANCH   8  12
ENDBRANCH   1   9
BRANCH   7  22
ATOM     22  O   UNK A   0       3.645   7.029  18.911  0.00  0.00    +0.000 OA
BRANCH  22  23
ATOM     23  C   UNK A   0       2.849   7.856  18.041  0.00  0.00    +0.000 C 
BRANCH  23  24
ATOM     24  C   UNK A   0       1.778   8.655  18.743  0.00  0.00    +0.000 A 
ATOM     25  C   UNK A   0       0.910   9.447  17.969  0.00  0.00    +0.000 A 
ATOM     26  C   UNK A   0      -0.091  10.209  18.575  0.00  0.00    +0.000 A 
ATOM     27  C   UNK A   0      -0.246  10.170  19.957  0.00  0.00    +0.000 A 
ATOM     28  C   UNK A   0       0.580   9.353  20.728  0.00  0.00    +0.000 A 
ATOM     29  C   UNK A   0       1.583   8.590  20.126  0.00  0.00    +0.000 A 
ENDBRANCH  23  24
ENDBRANCH  22  23
ENDBRANCH   7  22
TORSDOF 8
ENDMDL
MODEL 9
REMARK VINA RESULT:      -7.5      5.283      9.489
REMARK  Name = 
REMARK  8 active torsions:
REMARK  status: ('A' for Active; 'I' for Inactive)
REMARK    1  A    between atoms: C_2  and  CA_3
REMARK    2  A    between atoms: CA_3  and  CB_4
REMARK    3  A    between atoms: CA_3  and  N_11
REMARK    4  A    between atoms: CB_4  and  CG_5
REMARK    5  A    between atoms: C_12  and  C_14
REMARK    6  A    between atoms: C_20  and  O_21
REMARK    7  A    between atoms: O_21  and  C_22
REMARK    8  A    between atoms: C_22  and  C_23
REMARK                            x       y       z     vdW  Elec       q    Type
REMARK                         _______ _______ _______ _____ _____    ______ ____
ROOT
ATOM      1  C   UNK A   0       0.700  11.469  20.597  0.00  0.00    +0.000 A 
ATOM      2  C   UNK A   0       1.343  12.691  20.341  0.00  0.00    +0.000 A 
ATOM      3  C   UNK A   0       1.988  12.901  19.130  0.00  0.00    +0.000 A 
ATOM      4 CL   UNK A   0       2.465  14.493  18.687  0.00  0.00    +0.000 Cl
ATOM      5  C   UNK A   0       2.149  11.856  18.235  0.00  0.00    +0.000 A 
ATOM      6  C   UNK A   0       1.689  10.587  18.578  0.00  0.00    +0.000 A 
ATOM      7  C   UNK A   0       0.981  10.363  19.776  0.00  0.00    +0.000 A 
ENDROOT
BRANCH   1   9
ATOM      8  N   PHE A   1      -1.590  11.986  21.433  0.00  0.00    +0.000 N 
ATOM      9  C   UNK A   0      -0.329  11.444  21.682  0.00  0.00    +0.000 C 
ATOM     10  O   UNK A   0      -0.077  10.940  22.776  0.00  0.00    +0.000 OA
ATOM     11  H   PHE A   1      -2.149  12.052  22.283  0.00  0.00    +0.000 HD
BRANCH   8  12
ATOM     12  CA  PHE A   1      -2.082  12.748  20.272  0.00  0.00    +0.000 C 
BRANCH  12  14
ATOM     13  O   PHE A   1      -1.480  14.840  21.393  0.00  0.00    +0.000 OA
ATOM     14  C   PHE A   1      -2.163  14.244  20.564  0.00  0.00    +0.000 C 
ENDBRANCH  12  14
BRANCH  12  15
ATOM     15  CB  PHE A   1      -3.366  12.224  19.623  0.00  0.00    +0.000 C 
BRANCH  15  16
ATOM     16  CG  PHE A   1      -3.217  11.435  18.356  0.00  0.00    +0.000 A 
ATOM     17  CD1 PHE A   1      -4.132  11.590  17.300  0.00  0.00    +0.000 A 
ATOM     18  CE1 PHE A   1      -3.946  10.903  16.100  0.00  0.00    +0.000 A 
ATOM     19  CZ  PHE A   1      -2.848  10.062  15.946  0.00  0.00    +0.000 A 
ATOM     20  CE2 PHE A   1      -1.940   9.897  16.993  0.00  0.00    +0.000 A 
ATOM     21  CD2 PHE A   1      -2.129  10.578  18.196  0.00  0.00    +0.000 A 
ENDBRANCH  15  16
ENDBRANCH  12  15
ENDBRANCH   8  12
ENDBRANCH   1   9
BRANCH   7  22
ATOM     22  O   UNK A   0       0.549   9.109  20.136  0.00  0.00    +0.000 OA
BRANCH  22  23
ATOM     23  C   UNK A   0       1.559   8.304  20.774  0.00  0.00    +0.000 C 
BRANCH  23  24
ATOM     24  C   UNK A   0       1.908   7.036  20.033  0.00  0.00    +0.000 A 
ATOM     25  C   UNK A   0       2.557   7.137  18.789  0.00  0.00    +0.000 A 
ATOM     26  C   UNK A   0       2.893   5.992  18.064  0.00  0.00    +0.000 A 
ATOM     27  C   UNK A   0       2.603   4.735  18.586  0.00  0.00    +0.000 A 
ATOM     28  C   UNK A   0       2.001   4.624  19.838  0.00  0.00    +0.000 A 
ATOM     29  C   UNK A   0       1.663   5.767  20.567  0.00  0.00    +0.000 A 
ENDBRANCH  23  24
ENDBRANCH  22  23
ENDBRANCH   7  22
TORSDOF 8
ENDMDL
