MODEL 1
REMARK VINA RESULT:      -8.3      0.000      0.000
REMARK  Name = 
REMARK  8 active torsions:
REMARK  status: ('A' for Active; 'I' for Inactive)
REMARK    1  A    between atoms: C_1  and  C_2
REMARK    2  A    between atoms: C_2  and  C_3
REMARK    3  A    between atoms: C_2  and  N_4
REMARK    4  A    between atoms: C_2  and  C_15
REMARK    5  A    between atoms: N_4  and  S_5
REMARK    6  A    between atoms: S_5  and  C_8
REMARK    7  A    between atoms: N_17  and  C_18
REMARK    8  A    between atoms: C_25  and  C_26
REMARK                            x       y       z     vdW  Elec       q    Type
REMARK                         _______ _______ _______ _____ _____    ______ ____
ROOT
ATOM      1  C   UNL     1       1.964   8.746  18.262  0.00  0.00    +0.000 C 
ATOM      2  O   UNL     1       2.611   8.928  17.227  0.00  0.00    +0.000 OA
ATOM      3  N   UNL     1       2.110   7.565  18.979  0.00  0.00    +0.000 N 
ATOM      4  H   UNL     1       1.558   7.403  19.813  0.00  0.00    +0.000 HD
ENDROOT
BRANCH   3   5
ATOM      5  C   UNL     1       3.172   6.609  18.619  0.00  0.00    +0.000 C 
ATOM      6  C   UNL     1       3.663   5.748  19.809  0.00  0.00    +0.000 C 
ATOM      7  C   UNL     1       4.891   4.924  19.360  0.00  0.00    +0.000 C 
ATOM      8  C   UNL     1       4.505   3.984  18.203  0.00  0.00    +0.000 C 
ATOM      9  C   UNL     1       4.006   4.840  17.025  0.00  0.00    +0.000 C 
ATOM     10  C   UNL     1       2.775   5.671  17.452  0.00  0.00    +0.000 C 
ATOM     11  C   UNL     1       1.669   4.702  17.900  0.00  0.00    +0.000 C 
ATOM     12  C   UNL     1       2.140   3.838  19.094  0.00  0.00    +0.000 C 
ATOM     13  C   UNL     1       3.381   3.027  18.654  0.00  0.00    +0.000 C 
ATOM     14  C   UNL     1       2.574   4.764  20.259  0.00  0.00    +0.000 C 
BRANCH  12  15
ATOM     15  C   UNL     1       0.994   2.936  19.570  0.00  0.00    +0.000 C 
ATOM     16  N   UNL     1       0.747   2.905  20.909  0.00  0.00    +0.000 N 
ATOM     17  O   UNL     1       0.319   2.241  18.817  0.00  0.00    +0.000 OA
ATOM     18  H   UNL     1       1.373   3.293  21.599  0.00  0.00    +0.000 HD
ATOM     19  H   UNL     1       0.058   2.232  21.221  0.00  0.00    +0.000 HD
ENDBRANCH  12  15
ENDBRANCH   3   5
BRANCH   1  21
ATOM     20  C   UNL     1       0.675   9.466  20.277  0.00  0.00    +0.000 C 
ATOM     21  C   UNL     1       0.978   9.834  18.817  0.00  0.00    +0.000 C 
ATOM     22  C   UNL     1      -0.307   9.809  17.984  0.00  0.00    +0.000 C 
BRANCH  21  23
ATOM     23  N   UNL     1       1.630  11.170  18.752  0.00  0.00    +0.000 NA
ATOM     24  H   UNL     1       2.037  11.454  17.861  0.00  0.00    +0.000 HD
BRANCH  23  25
ATOM     25  S   UNL     1       1.147  12.496  19.674  0.00  0.00    +0.000 S 
ATOM     26  O   UNL     1      -0.281  12.598  19.472  0.00  0.00    +0.000 OA
ATOM     27  O   UNL     1       1.705  12.382  21.004  0.00  0.00    +0.000 OA
BRANCH  25  28
ATOM     28  C   UNL     1       1.870  13.919  18.883  0.00  0.00    +0.000 A 
ATOM     29  C   UNL     1       3.149  13.839  18.317  0.00  0.00    +0.000 A 
ATOM     30  C   UNL     1       3.761  14.986  17.803  0.00  0.00    +0.000 A 
ATOM     31  C   UNL     1       3.101  16.212  17.877  0.00  0.00    +0.000 A 
ATOM     32  C   UNL     1       1.833  16.288  18.456  0.00  0.00    +0.000 A 
ATOM     33 CL   UNL     1       1.046  17.812  18.581  0.00  0.00    +0.000 Cl
ATOM     34  C   UNL     1       1.210  15.149  18.963  0.00  0.00    +0.000 A 
ENDBRANCH  25  28
ENDBRANCH  23  25
ENDBRANCH  21  23
ENDBRANCH   1  21
TORSDOF 6
ENDMDL
MODEL 2
REMARK VINA RESULT:      -8.3      1.029      1.349
REMARK  Name = 
REMARK  8 active torsions:
REMARK  status: ('A' for Active; 'I' for Inactive)
REMARK    1  A    between atoms: C_1  and  C_2
REMARK    2  A    between atoms: C_2  and  C_3
REMARK    3  A    between atoms: C_2  and  N_4
REMARK    4  A    between atoms: C_2  and  C_15
REMARK    5  A    between atoms: N_4  and  S_5
REMARK    6  A    between atoms: S_5  and  C_8
REMARK    7  A    between atoms: N_17  and  C_18
REMARK    8  A    between atoms: C_25  and  C_26
REMARK                            x       y       z     vdW  Elec       q    Type
REMARK                         _______ _______ _______ _____ _____    ______ ____
ROOT
ATOM      1  C   UNL     1       1.921   8.780  18.269  0.00  0.00    +0.000 C 
ATOM      2  O   UNL     1       2.625   9.005  17.281  0.00  0.00    +0.000 OA
ATOM      3  N   UNL     1       2.026   7.568  18.940  0.00  0.00    +0.000 N 
ATOM      4  H   UNL     1       1.429   7.371  19.735  0.00  0.00    +0.000 HD
ENDROOT
BRANCH   3   5
ATOM      5  C   UNL     1       3.106   6.625  18.598  0.00  0.00    +0.000 C 
ATOM      6  C   UNL     1       3.616   5.800  19.805  0.00  0.00    +0.000 C 
ATOM      7  C   UNL     1       4.859   4.991  19.371  0.00  0.00    +0.000 C 
ATOM      8  C   UNL     1       4.489   4.019  18.235  0.00  0.00    +0.000 C 
ATOM      9  C   UNL     1       3.971   4.838  17.041  0.00  0.00    +0.000 C 
ATOM     10  C   UNL     1       2.724   5.654  17.453  0.00  0.00    +0.000 C 
ATOM     11  C   UNL     1       1.639   4.674  17.925  0.00  0.00    +0.000 C 
ATOM     12  C   UNL     1       2.130   3.846  19.136  0.00  0.00    +0.000 C 
ATOM     13  C   UNL     1       3.385   3.050  18.710  0.00  0.00    +0.000 C 
ATOM     14  C   UNL     1       2.548   4.805  20.279  0.00  0.00    +0.000 C 
BRANCH  12  15
ATOM     15  C   UNL     1       1.002   2.932  19.634  0.00  0.00    +0.000 C 
ATOM     16  N   UNL     1       0.825   2.849  20.982  0.00  0.00    +0.000 N 
ATOM     17  O   UNL     1       0.284   2.272  18.890  0.00  0.00    +0.000 OA
ATOM     18  H   UNL     1       1.489   3.205  21.653  0.00  0.00    +0.000 HD
ATOM     19  H   UNL     1       0.148   2.168  21.303  0.00  0.00    +0.000 HD
ENDBRANCH  12  15
ENDBRANCH   3   5
BRANCH   1  21
ATOM     20  C   UNL     1       0.574   9.452  20.262  0.00  0.00    +0.000 C 
ATOM     21  C   UNL     1       0.907   9.846  18.816  0.00  0.00    +0.000 C 
ATOM     22  C   UNL     1      -0.357   9.815  17.951  0.00  0.00    +0.000 C 
BRANCH  21  23
ATOM     23  N   UNL     1       1.541  11.192  18.786  0.00  0.00    +0.000 NA
ATOM     24  H   UNL     1       1.924  11.514  17.897  0.00  0.00    +0.000 HD
BRANCH  23  25
ATOM     25  S   UNL     1       1.064  12.476  19.768  0.00  0.00    +0.000 S 
ATOM     26  O   UNL     1      -0.334  12.685  19.465  0.00  0.00    +0.000 OA
ATOM     27  O   UNL     1       1.504  12.230  21.124  0.00  0.00    +0.000 OA
BRANCH  25  28
ATOM     28  C   UNL     1       1.932  13.902  19.147  0.00  0.00    +0.000 A 
ATOM     29  C   UNL     1       1.240  15.091  18.881  0.00  0.00    +0.000 A 
ATOM     30  C   UNL     1       1.900  16.168  18.284  0.00  0.00    +0.000 A 
ATOM     31  C   UNL     1       3.245  16.045  17.933  0.00  0.00    +0.000 A 
ATOM     32  C   UNL     1       3.924  14.851  18.186  0.00  0.00    +0.000 A 
ATOM     33 CL   UNL     1       5.570  14.695  17.711  0.00  0.00    +0.000 Cl
ATOM     34  C   UNL     1       3.278  13.775  18.790  0.00  0.00    +0.000 A 
ENDBRANCH  25  28
ENDBRANCH  23  25
ENDBRANCH  21  23
ENDBRANCH   1  21
TORSDOF 6
ENDMDL
MODEL 3
REMARK VINA RESULT:      -8.2      4.290      6.389
REMARK  Name = 
REMARK  8 active torsions:
REMARK  status: ('A' for Active; 'I' for Inactive)
REMARK    1  A    between atoms: C_1  and  C_2
REMARK    2  A    between atoms: C_2  and  C_3
REMARK    3  A    between atoms: C_2  and  N_4
REMARK    4  A    between atoms: C_2  and  C_15
REMARK    5  A    between atoms: N_4  and  S_5
REMARK    6  A    between atoms: S_5  and  C_8
REMARK    7  A    between atoms: N_17  and  C_18
REMARK    8  A    between atoms: C_25  and  C_26
REMARK                            x       y       z     vdW  Elec       q    Type
REMARK                         _______ _______ _______ _____ _____    ______ ____
ROOT
ATOM      1  C   UNL     1       2.662   3.495  17.655  0.00  0.00    +0.000 C 
ATOM      2  O   UNL     1       2.022   3.695  16.619  0.00  0.00    +0.000 OA
ATOM      3  N   UNL     1       4.045   3.636  17.659  0.00  0.00    +0.000 N 
ATOM      4  H   UNL     1       4.574   3.445  18.501  0.00  0.00    +0.000 HD
ENDROOT
BRANCH   3   5
ATOM      5  C   UNL     1       4.732   4.208  16.488  0.00  0.00    +0.000 C 
ATOM      6  C   UNL     1       4.705   5.756  16.446  0.00  0.00    +0.000 C 
ATOM      7  C   UNL     1       5.286   6.232  15.096  0.00  0.00    +0.000 C 
ATOM      8  C   UNL     1       6.746   5.765  14.952  0.00  0.00    +0.000 C 
ATOM      9  C   UNL     1       6.774   4.228  15.006  0.00  0.00    +0.000 C 
ATOM     10  C   UNL     1       6.199   3.729  16.351  0.00  0.00    +0.000 C 
ATOM     11  C   UNL     1       7.057   4.308  17.488  0.00  0.00    +0.000 C 
ATOM     12  C   UNL     1       7.034   5.855  17.466  0.00  0.00    +0.000 C 
ATOM     13  C   UNL     1       7.597   6.334  16.108  0.00  0.00    +0.000 C 
ATOM     14  C   UNL     1       5.569   6.350  17.567  0.00  0.00    +0.000 C 
BRANCH  12  15
ATOM     15  C   UNL     1       7.834   6.405  18.654  0.00  0.00    +0.000 C 
ATOM     16  N   UNL     1       7.873   5.639  19.780  0.00  0.00    +0.000 N 
ATOM     17  O   UNL     1       8.409   7.489  18.643  0.00  0.00    +0.000 OA
ATOM     18  H   UNL     1       7.275   4.840  19.929  0.00  0.00    +0.000 HD
ATOM     19  H   UNL     1       8.316   6.056  20.588  0.00  0.00    +0.000 HD
ENDBRANCH  12  15
ENDBRANCH   3   5
BRANCH   1  21
ATOM     20  C   UNL     1       2.998   2.389  19.869  0.00  0.00    +0.000 C 
ATOM     21  C   UNL     1       1.952   3.100  18.997  0.00  0.00    +0.000 C 
ATOM     22  C   UNL     1       0.790   2.153  18.682  0.00  0.00    +0.000 C 
BRANCH  21  23
ATOM     23  N   UNL     1       1.467   4.330  19.680  0.00  0.00    +0.000 NA
ATOM     24  H   UNL     1       0.569   4.280  20.161  0.00  0.00    +0.000 HD
BRANCH  23  25
ATOM     25  S   UNL     1       2.484   5.486  20.366  0.00  0.00    +0.000 S 
ATOM     26  O   UNL     1       2.145   5.503  21.771  0.00  0.00    +0.000 OA
ATOM     27  O   UNL     1       3.843   5.245  19.930  0.00  0.00    +0.000 OA
BRANCH  25  28
ATOM     28  C   UNL     1       1.951   7.049  19.700  0.00  0.00    +0.000 A 
ATOM     29  C   UNL     1       2.222   7.377  18.365  0.00  0.00    +0.000 A 
ATOM     30  C   UNL     1       1.908   8.650  17.879  0.00  0.00    +0.000 A 
ATOM     31  C   UNL     1       1.345   9.596  18.735  0.00  0.00    +0.000 A 
ATOM     32  C   UNL     1       1.093   9.268  20.068  0.00  0.00    +0.000 A 
ATOM     33 CL   UNL     1       0.438  10.455  21.126  0.00  0.00    +0.000 Cl
ATOM     34  C   UNL     1       1.393   7.999  20.560  0.00  0.00    +0.000 A 
ENDBRANCH  25  28
ENDBRANCH  23  25
ENDBRANCH  21  23
ENDBRANCH   1  21
TORSDOF 6
ENDMDL
MODEL 4
REMARK VINA RESULT:      -8.2      2.776      3.676
REMARK  Name = 
REMARK  8 active torsions:
REMARK  status: ('A' for Active; 'I' for Inactive)
REMARK    1  A    between atoms: C_1  and  C_2
REMARK    2  A    between atoms: C_2  and  C_3
REMARK    3  A    between atoms: C_2  and  N_4
REMARK    4  A    between atoms: C_2  and  C_15
REMARK    5  A    between atoms: N_4  and  S_5
REMARK    6  A    between atoms: S_5  and  C_8
REMARK    7  A    between atoms: N_17  and  C_18
REMARK    8  A    between atoms: C_25  and  C_26
REMARK                            x       y       z     vdW  Elec       q    Type
REMARK                         _______ _______ _______ _____ _____    ______ ____
ROOT
ATOM      1  C   UNL     1       1.891   8.898  18.339  0.00  0.00    +0.000 C 
ATOM      2  O   UNL     1       2.692   9.194  17.449  0.00  0.00    +0.000 OA
ATOM      3  N   UNL     1       1.935   7.639  18.928  0.00  0.00    +0.000 N 
ATOM      4  H   UNL     1       1.260   7.385  19.639  0.00  0.00    +0.000 HD
ENDROOT
BRANCH   3   5
ATOM      5  C   UNL     1       3.052   6.725  18.633  0.00  0.00    +0.000 C 
ATOM      6  C   UNL     1       3.528   5.909  19.860  0.00  0.00    +0.000 C 
ATOM      7  C   UNL     1       4.809   5.132  19.482  0.00  0.00    +0.000 C 
ATOM      8  C   UNL     1       4.515   4.155  18.328  0.00  0.00    +0.000 C 
ATOM      9  C   UNL     1       4.032   4.966  17.113  0.00  0.00    +0.000 C 
ATOM     10  C   UNL     1       2.748   5.749  17.470  0.00  0.00    +0.000 C 
ATOM     11  C   UNL     1       1.667   4.741  17.889  0.00  0.00    +0.000 C 
ATOM     12  C   UNL     1       2.122   3.921  19.120  0.00  0.00    +0.000 C 
ATOM     13  C   UNL     1       3.415   3.157  18.750  0.00  0.00    +0.000 C 
ATOM     14  C   UNL     1       2.464   4.886  20.283  0.00  0.00    +0.000 C 
BRANCH  12  15
ATOM     15  C   UNL     1       0.996   2.978  19.564  0.00  0.00    +0.000 C 
ATOM     16  N   UNL     1       0.749   2.897  20.901  0.00  0.00    +0.000 N 
ATOM     17  O   UNL     1       0.338   2.293  18.788  0.00  0.00    +0.000 OA
ATOM     18  H   UNL     1       1.366   3.276  21.604  0.00  0.00    +0.000 HD
ATOM     19  H   UNL     1       0.076   2.200  21.190  0.00  0.00    +0.000 HD
ENDBRANCH  12  15
ENDBRANCH   3   5
BRANCH   1  21
ATOM     20  C   UNL     1      -0.415   9.773  17.948  0.00  0.00    +0.000 C 
ATOM     21  C   UNL     1       0.816   9.920  18.852  0.00  0.00    +0.000 C 
ATOM     22  C   UNL     1       1.390  11.336  18.744  0.00  0.00    +0.000 C 
BRANCH  21  23
ATOM     23  N   UNL     1       0.459   9.596  20.260  0.00  0.00    +0.000 NA
ATOM     24  H   UNL     1       0.629   8.643  20.583  0.00  0.00    +0.000 HD
BRANCH  23  25
ATOM     25  S   UNL     1       0.519  10.709  21.524  0.00  0.00    +0.000 S 
ATOM     26  O   UNL     1       0.642   9.912  22.724  0.00  0.00    +0.000 OA
ATOM     27  O   UNL     1       1.487  11.737  21.209  0.00  0.00    +0.000 OA
BRANCH  25  28
ATOM     28  C   UNL     1      -1.095  11.458  21.580  0.00  0.00    +0.000 A 
ATOM     29  C   UNL     1      -1.626  12.080  20.442  0.00  0.00    +0.000 A 
ATOM     30  C   UNL     1      -2.840  12.769  20.522  0.00  0.00    +0.000 A 
ATOM     31  C   UNL     1      -3.507  12.853  21.743  0.00  0.00    +0.000 A 
ATOM     32  C   UNL     1      -2.964  12.245  22.878  0.00  0.00    +0.000 A 
ATOM     33 CL   UNL     1      -3.774  12.391  24.388  0.00  0.00    +0.000 Cl
ATOM     34  C   UNL     1      -1.761  11.547  22.807  0.00  0.00    +0.000 A 
ENDBRANCH  25  28
ENDBRANCH  23  25
ENDBRANCH  21  23
ENDBRANCH   1  21
TORSDOF 6
ENDMDL
MODEL 5
REMARK VINA RESULT:      -8.1      3.055      4.188
REMARK  Name = 
REMARK  8 active torsions:
REMARK  status: ('A' for Active; 'I' for Inactive)
REMARK    1  A    between atoms: C_1  and  C_2
REMARK    2  A    between atoms: C_2  and  C_3
REMARK    3  A    between atoms: C_2  and  N_4
REMARK    4  A    between atoms: C_2  and  C_15
REMARK    5  A    between atoms: N_4  and  S_5
REMARK    6  A    between atoms: S_5  and  C_8
REMARK    7  A    between atoms: N_17  and  C_18
REMARK    8  A    between atoms: C_25  and  C_26
REMARK                            x       y       z     vdW  Elec       q    Type
REMARK                         _______ _______ _______ _____ _____    ______ ____
ROOT
ATOM      1  C   UNL     1       2.188   8.227  17.982  0.00  0.00    +0.000 C 
ATOM      2  O   UNL     1       2.764   8.383  16.901  0.00  0.00    +0.000 OA
ATOM      3  N   UNL     1       2.096   6.961  18.548  0.00  0.00    +0.000 N 
ATOM      4  H   UNL     1       1.600   6.828  19.421  0.00  0.00    +0.000 HD
ENDROOT
BRANCH   3   5
ATOM      5  C   UNL     1       2.846   5.835  17.965  0.00  0.00    +0.000 C 
ATOM      6  C   UNL     1       4.047   5.374  18.828  0.00  0.00    +0.000 C 
ATOM      7  C   UNL     1       4.860   4.325  18.038  0.00  0.00    +0.000 C 
ATOM      8  C   UNL     1       3.982   3.098  17.725  0.00  0.00    +0.000 C 
ATOM      9  C   UNL     1       2.784   3.559  16.877  0.00  0.00    +0.000 C 
ATOM     10  C   UNL     1       1.954   4.609  17.651  0.00  0.00    +0.000 C 
ATOM     11  C   UNL     1       1.456   3.965  18.955  0.00  0.00    +0.000 C 
ATOM     12  C   UNL     1       2.643   3.505  19.834  0.00  0.00    +0.000 C 
ATOM     13  C   UNL     1       3.470   2.469  19.038  0.00  0.00    +0.000 C 
ATOM     14  C   UNL     1       3.565   4.715  20.129  0.00  0.00    +0.000 C 
BRANCH  12  15
ATOM     15  C   UNL     1       2.120   2.938  21.161  0.00  0.00    +0.000 C 
ATOM     16  N   UNL     1       0.768   2.873  21.315  0.00  0.00    +0.000 N 
ATOM     17  O   UNL     1       2.849   2.568  22.076  0.00  0.00    +0.000 OA
ATOM     18  H   UNL     1       0.116   3.331  20.695  0.00  0.00    +0.000 HD
ATOM     19  H   UNL     1       0.436   2.593  22.229  0.00  0.00    +0.000 HD
ENDBRANCH  12  15
ENDBRANCH   3   5
BRANCH   1  21
ATOM     20  C   UNL     1       2.423  10.669  18.449  0.00  0.00    +0.000 C 
ATOM     21  C   UNL     1       1.563   9.437  18.762  0.00  0.00    +0.000 C 
ATOM     22  C   UNL     1       1.600   9.130  20.263  0.00  0.00    +0.000 C 
BRANCH  21  23
ATOM     23  N   UNL     1       0.167   9.656  18.297  0.00  0.00    +0.000 NA
ATOM     24  H   UNL     1      -0.291   8.892  17.800  0.00  0.00    +0.000 HD
BRANCH  23  25
ATOM     25  S   UNL     1      -0.944  10.643  19.093  0.00  0.00    +0.000 S 
ATOM     26  O   UNL     1      -1.510   9.813  20.134  0.00  0.00    +0.000 OA
ATOM     27  O   UNL     1      -0.318  11.909  19.408  0.00  0.00    +0.000 OA
BRANCH  25  28
ATOM     28  C   UNL     1      -2.250  10.939  17.919  0.00  0.00    +0.000 A 
ATOM     29  C   UNL     1      -3.461  11.504  18.337  0.00  0.00    +0.000 A 
ATOM     30  C   UNL     1      -4.525  11.626  17.439  0.00  0.00    +0.000 A 
ATOM     31  C   UNL     1      -4.381  11.161  16.131  0.00  0.00    +0.000 A 
ATOM     32  C   UNL     1      -3.176  10.584  15.726  0.00  0.00    +0.000 A 
ATOM     33 CL   UNL     1      -3.023   9.976  14.124  0.00  0.00    +0.000 Cl
ATOM     34  C   UNL     1      -2.106  10.467  16.610  0.00  0.00    +0.000 A 
ENDBRANCH  25  28
ENDBRANCH  23  25
ENDBRANCH  21  23
ENDBRANCH   1  21
TORSDOF 6
ENDMDL
MODEL 6
REMARK VINA RESULT:      -8.0      1.044      1.135
REMARK  Name = 
REMARK  8 active torsions:
REMARK  status: ('A' for Active; 'I' for Inactive)
REMARK    1  A    between atoms: C_1  and  C_2
REMARK    2  A    between atoms: C_2  and  C_3
REMARK    3  A    between atoms: C_2  and  N_4
REMARK    4  A    between atoms: C_2  and  C_15
REMARK    5  A    between atoms: N_4  and  S_5
REMARK    6  A    between atoms: S_5  and  C_8
REMARK    7  A    between atoms: N_17  and  C_18
REMARK    8  A    between atoms: C_25  and  C_26
REMARK                            x       y       z     vdW  Elec       q    Type
REMARK                         _______ _______ _______ _____ _____    ______ ____
ROOT
ATOM      1  C   UNL     1       1.896   8.694  18.308  0.00  0.00    +0.000 C 
ATOM      2  O   UNL     1       2.518   8.879  17.258  0.00  0.00    +0.000 OA
ATOM      3  N   UNL     1       2.076   7.519  19.028  0.00  0.00    +0.000 N 
ATOM      4  H   UNL     1       1.545   7.354  19.875  0.00  0.00    +0.000 HD
ENDROOT
BRANCH   3   5
ATOM      5  C   UNL     1       3.144   6.577  18.650  0.00  0.00    +0.000 C 
ATOM      6  C   UNL     1       3.651   5.708  19.828  0.00  0.00    +0.000 C 
ATOM      7  C   UNL     1       4.884   4.901  19.362  0.00  0.00    +0.000 C 
ATOM      8  C   UNL     1       4.500   3.971  18.197  0.00  0.00    +0.000 C 
ATOM      9  C   UNL     1       3.985   4.834  17.032  0.00  0.00    +0.000 C 
ATOM     10  C   UNL     1       2.749   5.648  17.476  0.00  0.00    +0.000 C 
ATOM     11  C   UNL     1       1.656   4.664  17.920  0.00  0.00    +0.000 C 
ATOM     12  C   UNL     1       2.143   3.792  19.102  0.00  0.00    +0.000 C 
ATOM     13  C   UNL     1       3.388   2.998  18.644  0.00  0.00    +0.000 C 
ATOM     14  C   UNL     1       2.575   4.708  20.274  0.00  0.00    +0.000 C 
BRANCH  12  15
ATOM     15  C   UNL     1       1.008   2.874  19.574  0.00  0.00    +0.000 C 
ATOM     16  N   UNL     1       0.761   2.835  20.913  0.00  0.00    +0.000 N 
ATOM     17  O   UNL     1       0.342   2.172  18.819  0.00  0.00    +0.000 OA
ATOM     18  H   UNL     1       1.383   3.229  21.604  0.00  0.00    +0.000 HD
ATOM     19  H   UNL     1       0.081   2.153  21.223  0.00  0.00    +0.000 HD
ENDBRANCH  12  15
ENDBRANCH   3   5
BRANCH   1  21
ATOM     20  C   UNL     1       0.477   9.294  20.273  0.00  0.00    +0.000 C 
ATOM     21  C   UNL     1       0.906   9.770  18.878  0.00  0.00    +0.000 C 
ATOM     22  C   UNL     1      -0.310   9.864  17.950  0.00  0.00    +0.000 C 
BRANCH  21  23
ATOM     23  N   UNL     1       1.604  11.080  18.977  0.00  0.00    +0.000 NA
ATOM     24  H   UNL     1       1.979  11.482  18.117  0.00  0.00    +0.000 HD
BRANCH  23  25
ATOM     25  S   UNL     1       1.215  12.268  20.109  0.00  0.00    +0.000 S 
ATOM     26  O   UNL     1      -0.063  12.792  19.684  0.00  0.00    +0.000 OA
ATOM     27  O   UNL     1       1.397  11.734  21.441  0.00  0.00    +0.000 OA
BRANCH  25  28
ATOM     28  C   UNL     1       2.402  13.572  19.861  0.00  0.00    +0.000 A 
ATOM     29  C   UNL     1       3.165  14.047  20.936  0.00  0.00    +0.000 A 
ATOM     30  C   UNL     1       4.009  15.148  20.764  0.00  0.00    +0.000 A 
ATOM     31  C   UNL     1       4.069  15.785  19.525  0.00  0.00    +0.000 A 
ATOM     32  C   UNL     1       3.294  15.317  18.462  0.00  0.00    +0.000 A 
ATOM     33 CL   UNL     1       3.343  16.135  16.950  0.00  0.00    +0.000 Cl
ATOM     34  C   UNL     1       2.457  14.214  18.620  0.00  0.00    +0.000 A 
ENDBRANCH  25  28
ENDBRANCH  23  25
ENDBRANCH  21  23
ENDBRANCH   1  21
TORSDOF 6
ENDMDL
MODEL 7
REMARK VINA RESULT:      -8.0      1.212      1.319
REMARK  Name = 
REMARK  8 active torsions:
REMARK  status: ('A' for Active; 'I' for Inactive)
REMARK    1  A    between atoms: C_1  and  C_2
REMARK    2  A    between atoms: C_2  and  C_3
REMARK    3  A    between atoms: C_2  and  N_4
REMARK    4  A    between atoms: C_2  and  C_15
REMARK    5  A    between atoms: N_4  and  S_5
REMARK    6  A    between atoms: S_5  and  C_8
REMARK    7  A    between atoms: N_17  and  C_18
REMARK    8  A    between atoms: C_25  and  C_26
REMARK                            x       y       z     vdW  Elec       q    Type
REMARK                         _______ _______ _______ _____ _____    ______ ____
ROOT
ATOM      1  C   UNL     1       1.987   8.674  18.258  0.00  0.00    +0.000 C 
ATOM      2  O   UNL     1       2.629   8.855  17.220  0.00  0.00    +0.000 OA
ATOM      3  N   UNL     1       2.134   7.493  18.974  0.00  0.00    +0.000 N 
ATOM      4  H   UNL     1       1.587   7.332  19.812  0.00  0.00    +0.000 HD
ENDROOT
BRANCH   3   5
ATOM      5  C   UNL     1       3.193   6.535  18.609  0.00  0.00    +0.000 C 
ATOM      6  C   UNL     1       3.700   5.685  19.800  0.00  0.00    +0.000 C 
ATOM      7  C   UNL     1       4.923   4.859  19.343  0.00  0.00    +0.000 C 
ATOM      8  C   UNL     1       4.523   3.908  18.199  0.00  0.00    +0.000 C 
ATOM      9  C   UNL     1       4.008   4.752  17.021  0.00  0.00    +0.000 C 
ATOM     10  C   UNL     1       2.782   5.586  17.456  0.00  0.00    +0.000 C 
ATOM     11  C   UNL     1       1.683   4.620  17.927  0.00  0.00    +0.000 C 
ATOM     12  C   UNL     1       2.171   3.767  19.123  0.00  0.00    +0.000 C 
ATOM     13  C   UNL     1       3.406   2.954  18.673  0.00  0.00    +0.000 C 
ATOM     14  C   UNL     1       2.619   4.704  20.274  0.00  0.00    +0.000 C 
BRANCH  12  15
ATOM     15  C   UNL     1       1.032   2.868  19.622  0.00  0.00    +0.000 C 
ATOM     16  N   UNL     1       0.853   2.788  20.969  0.00  0.00    +0.000 N 
ATOM     17  O   UNL     1       0.305   2.217  18.878  0.00  0.00    +0.000 OA
ATOM     18  H   UNL     1       1.522   3.136  21.640  0.00  0.00    +0.000 HD
ATOM     19  H   UNL     1       0.167   2.117  21.290  0.00  0.00    +0.000 HD
ENDBRANCH  12  15
ENDBRANCH   3   5
BRANCH   1  21
ATOM     20  C   UNL     1       0.662   9.364  20.260  0.00  0.00    +0.000 C 
ATOM     21  C   UNL     1       1.006   9.764  18.818  0.00  0.00    +0.000 C 
ATOM     22  C   UNL     1      -0.259   9.782  17.954  0.00  0.00    +0.000 C 
BRANCH  21  23
ATOM     23  N   UNL     1       1.681  11.090  18.803  0.00  0.00    +0.000 NA
ATOM     24  H   UNL     1       2.048  11.424  17.911  0.00  0.00    +0.000 HD
BRANCH  23  25
ATOM     25  S   UNL     1       1.273  12.363  19.830  0.00  0.00    +0.000 S 
ATOM     26  O   UNL     1      -0.008  12.836  19.357  0.00  0.00    +0.000 OA
ATOM     27  O   UNL     1       1.451  11.944  21.204  0.00  0.00    +0.000 OA
BRANCH  25  28
ATOM     28  C   UNL     1       2.448  13.655  19.482  0.00  0.00    +0.000 A 
ATOM     29  C   UNL     1       2.734  14.013  18.158  0.00  0.00    +0.000 A 
ATOM     30  C   UNL     1       3.741  14.943  17.885  0.00  0.00    +0.000 A 
ATOM     31  C   UNL     1       4.474  15.495  18.935  0.00  0.00    +0.000 A 
ATOM     32  C   UNL     1       4.195  15.122  20.252  0.00  0.00    +0.000 A 
ATOM     33 CL   UNL     1       5.133  15.777  21.537  0.00  0.00    +0.000 Cl
ATOM     34  C   UNL     1       3.187  14.204  20.535  0.00  0.00    +0.000 A 
ENDBRANCH  25  28
ENDBRANCH  23  25
ENDBRANCH  21  23
ENDBRANCH   1  21
TORSDOF 6
ENDMDL
MODEL 8
REMARK VINA RESULT:      -8.0      3.207      4.055
REMARK  Name = 
REMARK  8 active torsions:
REMARK  status: ('A' for Active; 'I' for Inactive)
REMARK    1  A    between atoms: C_1  and  C_2
REMARK    2  A    between atoms: C_2  and  C_3
REMARK    3  A    between atoms: C_2  and  N_4
REMARK    4  A    between atoms: C_2  and  C_15
REMARK    5  A    between atoms: N_4  and  S_5
REMARK    6  A    between atoms: S_5  and  C_8
REMARK    7  A    between atoms: N_17  and  C_18
REMARK    8  A    between atoms: C_25  and  C_26
REMARK                            x       y       z     vdW  Elec       q    Type
REMARK                         _______ _______ _______ _____ _____    ______ ____
ROOT
ATOM      1  C   UNL     1       1.665   8.700  19.268  0.00  0.00    +0.000 C 
ATOM      2  O   UNL     1       2.207   9.205  18.281  0.00  0.00    +0.000 OA
ATOM      3  N   UNL     1       2.008   7.415  19.672  0.00  0.00    +0.000 N 
ATOM      4  H   UNL     1       1.544   6.989  20.465  0.00  0.00    +0.000 HD
ENDROOT
BRANCH   3   5
ATOM      5  C   UNL     1       3.151   6.726  19.049  0.00  0.00    +0.000 C 
ATOM      6  C   UNL     1       3.815   5.669  19.967  0.00  0.00    +0.000 C 
ATOM      7  C   UNL     1       5.102   5.150  19.286  0.00  0.00    +0.000 C 
ATOM      8  C   UNL     1       4.758   4.484  17.941  0.00  0.00    +0.000 C 
ATOM      9  C   UNL     1       4.089   5.531  17.035  0.00  0.00    +0.000 C 
ATOM     10  C   UNL     1       2.797   6.062  17.696  0.00  0.00    +0.000 C 
ATOM     11  C   UNL     1       1.844   4.876  17.917  0.00  0.00    +0.000 C 
ATOM     12  C   UNL     1       2.489   3.813  18.839  0.00  0.00    +0.000 C 
ATOM     13  C   UNL     1       3.787   3.306  18.169  0.00  0.00    +0.000 C 
ATOM     14  C   UNL     1       2.882   4.470  20.186  0.00  0.00    +0.000 C 
BRANCH  12  15
ATOM     15  C   UNL     1       1.490   2.679  19.105  0.00  0.00    +0.000 C 
ATOM     16  N   UNL     1       1.813   1.446  18.627  0.00  0.00    +0.000 N 
ATOM     17  O   UNL     1       0.427   2.836  19.698  0.00  0.00    +0.000 OA
ATOM     18  H   UNL     1       2.564   1.283  17.973  0.00  0.00    +0.000 HD
ATOM     19  H   UNL     1       1.103   0.731  18.719  0.00  0.00    +0.000 HD
ENDBRANCH  12  15
ENDBRANCH   3   5
BRANCH   1  21
ATOM     20  C   UNL     1       1.332  10.617  20.833  0.00  0.00    +0.000 C 
ATOM     21  C   UNL     1       0.595   9.481  20.108  0.00  0.00    +0.000 C 
ATOM     22  C   UNL     1      -0.034   8.522  21.124  0.00  0.00    +0.000 C 
BRANCH  21  23
ATOM     23  N   UNL     1      -0.438  10.042  19.195  0.00  0.00    +0.000 NA
ATOM     24  H   UNL     1      -1.092   9.389  18.764  0.00  0.00    +0.000 HD
BRANCH  23  25
ATOM     25  S   UNL     1      -1.105  11.581  19.365  0.00  0.00    +0.000 S 
ATOM     26  O   UNL     1      -1.581  11.639  20.729  0.00  0.00    +0.000 OA
ATOM     27  O   UNL     1      -0.172  12.565  18.859  0.00  0.00    +0.000 OA
BRANCH  25  28
ATOM     28  C   UNL     1      -2.551  11.593  18.326  0.00  0.00    +0.000 A 
ATOM     29  C   UNL     1      -3.803  11.927  18.860  0.00  0.00    +0.000 A 
ATOM     30  C   UNL     1      -4.952  11.821  18.072  0.00  0.00    +0.000 A 
ATOM     31  C   UNL     1      -4.849  11.360  16.759  0.00  0.00    +0.000 A 
ATOM     32  C   UNL     1      -3.600  11.014  16.238  0.00  0.00    +0.000 A 
ATOM     33 CL   UNL     1      -3.489  10.408  14.632  0.00  0.00    +0.000 Cl
ATOM     34  C   UNL     1      -2.447  11.126  17.012  0.00  0.00    +0.000 A 
ENDBRANCH  25  28
ENDBRANCH  23  25
ENDBRANCH  21  23
ENDBRANCH   1  21
TORSDOF 6
ENDMDL
MODEL 9
REMARK VINA RESULT:      -7.9      6.065      8.300
REMARK  Name = 
REMARK  8 active torsions:
REMARK  status: ('A' for Active; 'I' for Inactive)
REMARK    1  A    between atoms: C_1  and  C_2
REMARK    2  A    between atoms: C_2  and  C_3
REMARK    3  A    between atoms: C_2  and  N_4
REMARK    4  A    between atoms: C_2  and  C_15
REMARK    5  A    between atoms: N_4  and  S_5
REMARK    6  A    between atoms: S_5  and  C_8
REMARK    7  A    between atoms: N_17  and  C_18
REMARK    8  A    between atoms: C_25  and  C_26
REMARK                            x       y       z     vdW  Elec       q    Type
REMARK                         _______ _______ _______ _____ _____    ______ ____
ROOT
ATOM      1  C   UNL     1       5.170   6.834  17.692  0.00  0.00    +0.000 C 
ATOM      2  O   UNL     1       4.339   7.233  16.873  0.00  0.00    +0.000 OA
ATOM      3  N   UNL     1       4.757   6.159  18.835  0.00  0.00    +0.000 N 
ATOM      4  H   UNL     1       5.436   5.855  19.522  0.00  0.00    +0.000 HD
ENDROOT
BRANCH   3   5
ATOM      5  C   UNL     1       3.349   5.749  18.981  0.00  0.00    +0.000 C 
ATOM      6  C   UNL     1       2.852   4.818  17.847  0.00  0.00    +0.000 C 
ATOM      7  C   UNL     1       1.330   4.606  18.002  0.00  0.00    +0.000 C 
ATOM      8  C   UNL     1       1.023   3.936  19.355  0.00  0.00    +0.000 C 
ATOM      9  C   UNL     1       1.527   4.856  20.480  0.00  0.00    +0.000 C 
ATOM     10  C   UNL     1       3.050   5.079  20.345  0.00  0.00    +0.000 C 
ATOM     11  C   UNL     1       3.749   3.713  20.433  0.00  0.00    +0.000 C 
ATOM     12  C   UNL     1       3.270   2.772  19.302  0.00  0.00    +0.000 C 
ATOM     13  C   UNL     1       1.743   2.574  19.443  0.00  0.00    +0.000 C 
ATOM     14  C   UNL     1       3.530   3.443  17.929  0.00  0.00    +0.000 C 
BRANCH  12  15
ATOM     15  C   UNL     1       4.038   1.446  19.366  0.00  0.00    +0.000 C 
ATOM     16  N   UNL     1       5.057   1.365  20.267  0.00  0.00    +0.000 N 
ATOM     17  O   UNL     1       3.795   0.484  18.644  0.00  0.00    +0.000 OA
ATOM     18  H   UNL     1       5.435   2.165  20.751  0.00  0.00    +0.000 HD
ATOM     19  H   UNL     1       5.620   0.525  20.231  0.00  0.00    +0.000 HD
ENDBRANCH  12  15
ENDBRANCH   3   5
BRANCH   1  21
ATOM     20  C   UNL     1       7.428   6.428  18.680  0.00  0.00    +0.000 C 
ATOM     21  C   UNL     1       6.709   7.048  17.473  0.00  0.00    +0.000 C 
ATOM     22  C   UNL     1       6.994   8.552  17.399  0.00  0.00    +0.000 C 
BRANCH  21  23
ATOM     23  N   UNL     1       7.130   6.363  16.221  0.00  0.00    +0.000 NA
ATOM     24  H   UNL     1       7.917   6.760  15.707  0.00  0.00    +0.000 HD
BRANCH  23  25
ATOM     25  S   UNL     1       6.982   4.704  15.962  0.00  0.00    +0.000 S 
ATOM     26  O   UNL     1       8.183   4.125  16.520  0.00  0.00    +0.000 OA
ATOM     27  O   UNL     1       5.673   4.268  16.398  0.00  0.00    +0.000 OA
BRANCH  25  28
ATOM     28  C   UNL     1       7.087   4.483  14.198  0.00  0.00    +0.000 A 
ATOM     29  C   UNL     1       7.864   5.353  13.422  0.00  0.00    +0.000 A 
ATOM     30  C   UNL     1       7.851   5.249  12.028  0.00  0.00    +0.000 A 
ATOM     31  C   UNL     1       7.043   4.291  11.414  0.00  0.00    +0.000 A 
ATOM     32  C   UNL     1       6.259   3.438  12.194  0.00  0.00    +0.000 A 
ATOM     33 CL   UNL     1       5.235   2.289  11.426  0.00  0.00    +0.000 Cl
ATOM     34  C   UNL     1       6.273   3.526  13.584  0.00  0.00    +0.000 A 
ENDBRANCH  25  28
ENDBRANCH  23  25
ENDBRANCH  21  23
ENDBRANCH   1  21
TORSDOF 6
ENDMDL
