MODEL 1
REMARK VINA RESULT:      -7.8      0.000      0.000
REMARK  Name = 
REMARK  2 active torsions:
REMARK  status: ('A' for Active; 'I' for Inactive)
REMARK    1  A    between atoms: C_2  and  C_12
REMARK    2  A    between atoms: N_3  and  C_4
REMARK                            x       y       z     vdW  Elec       q    Type
REMARK                         _______ _______ _______ _____ _____    ______ ____
ROOT
ATOM      1  O   UNL     1       6.406   4.314  17.278  0.00  0.00    +0.000 OA
ATOM      2  C   UNL     1       5.245   4.364  16.887  0.00  0.00    +0.000 C 
ATOM      3  N   UNL     1       4.828   4.392  15.566  0.00  0.00    +0.000 N 
ATOM      4  H   UNL     1       3.870   4.665  15.384  0.00  0.00    +0.000 HD
ENDROOT
BRANCH   2   5
ATOM      5  C   UNL     1       4.178   4.489  17.908  0.00  0.00    +0.000 A 
ATOM      6  C   UNL     1       3.093   5.369  17.782  0.00  0.00    +0.000 A 
ATOM      7  C   UNL     1       2.095   5.421  18.781  0.00  0.00    +0.000 A 
ATOM      8  C   UNL     1       2.164   4.598  19.912  0.00  0.00    +0.000 A 
ATOM      9  C   UNL     1       3.234   3.736  20.008  0.00  0.00    +0.000 A 
ATOM     10  O   UNL     1       3.463   2.837  21.038  0.00  0.00    +0.000 OA
ATOM     11  C   UNL     1       4.643   2.201  20.627  0.00  0.00    +0.000 A 
ATOM     12  O   UNL     1       5.190   1.310  21.259  0.00  0.00    +0.000 OA
ATOM     13  N   UNL     1       5.087   2.717  19.436  0.00  0.00    +0.000 N 
ATOM     14  C   UNL     1       4.203   3.682  19.030  0.00  0.00    +0.000 A 
ATOM     15  H   UNL     1       5.888   2.387  18.914  0.00  0.00    +0.000 HD
ENDBRANCH   2   5
BRANCH   3  16
ATOM     16  C   UNL     1       5.676   4.285  14.437  0.00  0.00    +0.000 A 
ATOM     17  C   UNL     1       6.770   5.126  14.219  0.00  0.00    +0.000 A 
ATOM     18  C   UNL     1       7.545   4.994  13.066  0.00  0.00    +0.000 A 
ATOM     19 CL   UNL     1       8.886   6.044  12.816  0.00  0.00    +0.000 Cl
ATOM     20  C   UNL     1       7.244   4.024  12.116  0.00  0.00    +0.000 A 
ATOM     21  C   UNL     1       6.170   3.170  12.343  0.00  0.00    +0.000 A 
ATOM     22 CL   UNL     1       5.782   1.967  11.175  0.00  0.00    +0.000 Cl
ATOM     23  C   UNL     1       5.394   3.284  13.500  0.00  0.00    +0.000 A 
ENDBRANCH   3  16
TORSDOF 2
ENDMDL
MODEL 2
REMARK VINA RESULT:      -7.5      5.513      7.779
REMARK  Name = 
REMARK  2 active torsions:
REMARK  status: ('A' for Active; 'I' for Inactive)
REMARK    1  A    between atoms: C_2  and  C_12
REMARK    2  A    between atoms: N_3  and  C_4
REMARK                            x       y       z     vdW  Elec       q    Type
REMARK                         _______ _______ _______ _____ _____    ______ ____
ROOT
ATOM      1  O   UNL     1       2.216   7.422  19.697  0.00  0.00    +0.000 OA
ATOM      2  C   UNL     1       2.447   7.505  18.496  0.00  0.00    +0.000 C 
ATOM      3  N   UNL     1       2.007   8.507  17.646  0.00  0.00    +0.000 N 
ATOM      4  H   UNL     1       2.072   8.337  16.651  0.00  0.00    +0.000 HD
ENDROOT
BRANCH   2   5
ATOM      5  C   UNL     1       3.199   6.397  17.860  0.00  0.00    +0.000 A 
ATOM      6  C   UNL     1       4.425   6.578  17.205  0.00  0.00    +0.000 A 
ATOM      7  C   UNL     1       5.104   5.475  16.640  0.00  0.00    +0.000 A 
ATOM      8  C   UNL     1       4.571   4.182  16.721  0.00  0.00    +0.000 A 
ATOM      9  C   UNL     1       3.369   4.030  17.378  0.00  0.00    +0.000 A 
ATOM     10  O   UNL     1       2.698   2.833  17.576  0.00  0.00    +0.000 OA
ATOM     11  C   UNL     1       1.575   3.234  18.313  0.00  0.00    +0.000 A 
ATOM     12  O   UNL     1       0.715   2.465  18.713  0.00  0.00    +0.000 OA
ATOM     13  N   UNL     1       1.582   4.592  18.512  0.00  0.00    +0.000 N 
ATOM     14  C   UNL     1       2.712   5.105  17.934  0.00  0.00    +0.000 A 
ATOM     15  H   UNL     1       0.905   5.109  19.058  0.00  0.00    +0.000 HD
ENDBRANCH   2   5
BRANCH   3  16
ATOM     16  C   UNL     1       1.278   9.655  18.042  0.00  0.00    +0.000 A 
ATOM     17  C   UNL     1      -0.118   9.711  18.046  0.00  0.00    +0.000 A 
ATOM     18  C   UNL     1      -0.777  10.885  18.410  0.00  0.00    +0.000 A 
ATOM     19 CL   UNL     1      -2.498  10.933  18.404  0.00  0.00    +0.000 Cl
ATOM     20  C   UNL     1      -0.059  12.018  18.777  0.00  0.00    +0.000 A 
ATOM     21  C   UNL     1       1.330  11.957  18.797  0.00  0.00    +0.000 A 
ATOM     22 CL   UNL     1       2.234  13.351  19.245  0.00  0.00    +0.000 Cl
ATOM     23  C   UNL     1       2.002  10.782  18.447  0.00  0.00    +0.000 A 
ENDBRANCH   3  16
TORSDOF 2
ENDMDL
MODEL 3
REMARK VINA RESULT:      -7.5      5.539      7.583
REMARK  Name = 
REMARK  2 active torsions:
REMARK  status: ('A' for Active; 'I' for Inactive)
REMARK    1  A    between atoms: C_2  and  C_12
REMARK    2  A    between atoms: N_3  and  C_4
REMARK                            x       y       z     vdW  Elec       q    Type
REMARK                         _______ _______ _______ _____ _____    ______ ____
ROOT
ATOM      1  O   UNL     1       2.206   7.417  19.695  0.00  0.00    +0.000 OA
ATOM      2  C   UNL     1       2.484   7.524  18.505  0.00  0.00    +0.000 C 
ATOM      3  N   UNL     1       2.054   8.530  17.654  0.00  0.00    +0.000 N 
ATOM      4  H   UNL     1       2.162   8.376  16.659  0.00  0.00    +0.000 HD
ENDROOT
BRANCH   2   5
ATOM      5  C   UNL     1       3.285   6.444  17.883  0.00  0.00    +0.000 A 
ATOM      6  C   UNL     1       4.554   6.653  17.325  0.00  0.00    +0.000 A 
ATOM      7  C   UNL     1       5.278   5.574  16.769  0.00  0.00    +0.000 A 
ATOM      8  C   UNL     1       4.747   4.278  16.763  0.00  0.00    +0.000 A 
ATOM      9  C   UNL     1       3.503   4.096  17.325  0.00  0.00    +0.000 A 
ATOM     10  O   UNL     1       2.827   2.891  17.430  0.00  0.00    +0.000 OA
ATOM     11  C   UNL     1       1.652   3.261  18.099  0.00  0.00    +0.000 A 
ATOM     12  O   UNL     1       0.769   2.474  18.407  0.00  0.00    +0.000 OA
ATOM     13  N   UNL     1       1.636   4.610  18.350  0.00  0.00    +0.000 N 
ATOM     14  C   UNL     1       2.802   5.148  17.873  0.00  0.00    +0.000 A 
ATOM     15  H   UNL     1       0.919   5.104  18.865  0.00  0.00    +0.000 HD
ENDBRANCH   2   5
BRANCH   3  16
ATOM     16  C   UNL     1       1.284   9.654  18.037  0.00  0.00    +0.000 A 
ATOM     17  C   UNL     1       1.844  10.827  18.550  0.00  0.00    +0.000 A 
ATOM     18  C   UNL     1       1.026  11.886  18.945  0.00  0.00    +0.000 A 
ATOM     19 CL   UNL     1       1.737  13.320  19.580  0.00  0.00    +0.000 Cl
ATOM     20  C   UNL     1      -0.356  11.796  18.833  0.00  0.00    +0.000 A 
ATOM     21  C   UNL     1      -0.915  10.639  18.300  0.00  0.00    +0.000 A 
ATOM     22 CL   UNL     1      -2.625  10.509  18.159  0.00  0.00    +0.000 Cl
ATOM     23  C   UNL     1      -0.106   9.576  17.888  0.00  0.00    +0.000 A 
ENDBRANCH   3  16
TORSDOF 2
ENDMDL
MODEL 4
REMARK VINA RESULT:      -7.5      5.543      8.144
REMARK  Name = 
REMARK  2 active torsions:
REMARK  status: ('A' for Active; 'I' for Inactive)
REMARK    1  A    between atoms: C_2  and  C_12
REMARK    2  A    between atoms: N_3  and  C_4
REMARK                            x       y       z     vdW  Elec       q    Type
REMARK                         _______ _______ _______ _____ _____    ______ ____
ROOT
ATOM      1  O   UNL     1       2.526   7.304  18.922  0.00  0.00    +0.000 OA
ATOM      2  C   UNL     1       2.029   6.767  19.906  0.00  0.00    +0.000 C 
ATOM      3  N   UNL     1       1.274   7.394  20.885  0.00  0.00    +0.000 N 
ATOM      4  H   UNL     1       1.122   6.892  21.750  0.00  0.00    +0.000 HD
ENDROOT
BRANCH   2   5
ATOM      5  C   UNL     1       2.318   5.330  20.130  0.00  0.00    +0.000 A 
ATOM      6  C   UNL     1       1.379   4.430  20.652  0.00  0.00    +0.000 A 
ATOM      7  C   UNL     1       1.711   3.067  20.818  0.00  0.00    +0.000 A 
ATOM      8  C   UNL     1       2.977   2.585  20.464  0.00  0.00    +0.000 A 
ATOM      9  C   UNL     1       3.879   3.488  19.944  0.00  0.00    +0.000 A 
ATOM     10  O   UNL     1       5.167   3.197  19.521  0.00  0.00    +0.000 OA
ATOM     11  C   UNL     1       5.622   4.441  19.060  0.00  0.00    +0.000 A 
ATOM     12  O   UNL     1       6.730   4.624  18.581  0.00  0.00    +0.000 OA
ATOM     13  N   UNL     1       4.659   5.405  19.228  0.00  0.00    +0.000 N 
ATOM     14  C   UNL     1       3.552   4.816  19.777  0.00  0.00    +0.000 A 
ATOM     15  H   UNL     1       4.733   6.368  18.926  0.00  0.00    +0.000 HD
ENDBRANCH   2   5
BRANCH   3  16
ATOM     16  C   UNL     1       0.880   8.754  20.870  0.00  0.00    +0.000 A 
ATOM     17  C   UNL     1       1.278   9.655  19.879  0.00  0.00    +0.000 A 
ATOM     18  C   UNL     1       0.887  10.993  19.942  0.00  0.00    +0.000 A 
ATOM     19 CL   UNL     1       1.393  12.087  18.713  0.00  0.00    +0.000 Cl
ATOM     20  C   UNL     1       0.094  11.452  20.987  0.00  0.00    +0.000 A 
ATOM     21  C   UNL     1      -0.324  10.551  21.962  0.00  0.00    +0.000 A 
ATOM     22 CL   UNL     1      -1.302  11.105  23.265  0.00  0.00    +0.000 Cl
ATOM     23  C   UNL     1       0.051   9.206  21.902  0.00  0.00    +0.000 A 
ENDBRANCH   3  16
TORSDOF 2
ENDMDL
MODEL 5
REMARK VINA RESULT:      -7.5      5.306      8.091
REMARK  Name = 
REMARK  2 active torsions:
REMARK  status: ('A' for Active; 'I' for Inactive)
REMARK    1  A    between atoms: C_2  and  C_12
REMARK    2  A    between atoms: N_3  and  C_4
REMARK                            x       y       z     vdW  Elec       q    Type
REMARK                         _______ _______ _______ _____ _____    ______ ____
ROOT
ATOM      1  O   UNL     1       2.891   8.173  17.490  0.00  0.00    +0.000 OA
ATOM      2  C   UNL     1       2.665   7.232  18.243  0.00  0.00    +0.000 C 
ATOM      3  N   UNL     1       2.013   7.302  19.464  0.00  0.00    +0.000 N 
ATOM      4  H   UNL     1       2.096   6.505  20.083  0.00  0.00    +0.000 HD
ENDROOT
BRANCH   2   5
ATOM      5  C   UNL     1       3.201   5.902  17.867  0.00  0.00    +0.000 A 
ATOM      6  C   UNL     1       2.433   4.730  17.892  0.00  0.00    +0.000 A 
ATOM      7  C   UNL     1       2.998   3.496  17.498  0.00  0.00    +0.000 A 
ATOM      8  C   UNL     1       4.330   3.417  17.073  0.00  0.00    +0.000 A 
ATOM      9  C   UNL     1       5.061   4.584  17.049  0.00  0.00    +0.000 A 
ATOM     10  O   UNL     1       6.381   4.708  16.644  0.00  0.00    +0.000 OA
ATOM     11  C   UNL     1       6.612   6.084  16.782  0.00  0.00    +0.000 A 
ATOM     12  O   UNL     1       7.672   6.626  16.509  0.00  0.00    +0.000 OA
ATOM     13  N   UNL     1       5.495   6.721  17.262  0.00  0.00    +0.000 N 
ATOM     14  C   UNL     1       4.507   5.787  17.428  0.00  0.00    +0.000 A 
ATOM     15  H   UNL     1       5.400   7.719  17.397  0.00  0.00    +0.000 HD
ENDBRANCH   2   5
BRANCH   3  16
ATOM     16  C   UNL     1       1.424   8.466  20.014  0.00  0.00    +0.000 A 
ATOM     17  C   UNL     1       1.222   9.639  19.283  0.00  0.00    +0.000 A 
ATOM     18  C   UNL     1       0.672  10.767  19.893  0.00  0.00    +0.000 A 
ATOM     19 CL   UNL     1       0.436  12.204  18.974  0.00  0.00    +0.000 Cl
ATOM     20  C   UNL     1       0.312  10.743  21.236  0.00  0.00    +0.000 A 
ATOM     21  C   UNL     1       0.490   9.568  21.960  0.00  0.00    +0.000 A 
ATOM     22 CL   UNL     1       0.055   9.523  23.624  0.00  0.00    +0.000 Cl
ATOM     23  C   UNL     1       1.029   8.428  21.356  0.00  0.00    +0.000 A 
ENDBRANCH   3  16
TORSDOF 2
ENDMDL
MODEL 6
REMARK VINA RESULT:      -7.4      0.177      1.971
REMARK  Name = 
REMARK  2 active torsions:
REMARK  status: ('A' for Active; 'I' for Inactive)
REMARK    1  A    between atoms: C_2  and  C_12
REMARK    2  A    between atoms: N_3  and  C_4
REMARK                            x       y       z     vdW  Elec       q    Type
REMARK                         _______ _______ _______ _____ _____    ______ ____
ROOT
ATOM      1  O   UNL     1       6.448   4.429  17.151  0.00  0.00    +0.000 OA
ATOM      2  C   UNL     1       5.273   4.474  16.803  0.00  0.00    +0.000 C 
ATOM      3  N   UNL     1       4.805   4.444  15.499  0.00  0.00    +0.000 N 
ATOM      4  H   UNL     1       3.844   4.719  15.341  0.00  0.00    +0.000 HD
ENDROOT
BRANCH   2   5
ATOM      5  C   UNL     1       4.247   4.660  17.857  0.00  0.00    +0.000 A 
ATOM      6  C   UNL     1       3.229   5.620  17.776  0.00  0.00    +0.000 A 
ATOM      7  C   UNL     1       2.266   5.729  18.805  0.00  0.00    +0.000 A 
ATOM      8  C   UNL     1       2.305   4.885  19.921  0.00  0.00    +0.000 A 
ATOM      9  C   UNL     1       3.310   3.944  19.973  0.00  0.00    +0.000 A 
ATOM     10  O   UNL     1       3.501   3.014  20.982  0.00  0.00    +0.000 OA
ATOM     11  C   UNL     1       4.618   2.298  20.527  0.00  0.00    +0.000 A 
ATOM     12  O   UNL     1       5.115   1.359  21.130  0.00  0.00    +0.000 OA
ATOM     13  N   UNL     1       5.065   2.801  19.331  0.00  0.00    +0.000 N 
ATOM     14  C   UNL     1       4.245   3.835  18.966  0.00  0.00    +0.000 A 
ATOM     15  H   UNL     1       5.824   2.421  18.781  0.00  0.00    +0.000 HD
ENDBRANCH   2   5
BRANCH   3  16
ATOM     16  C   UNL     1       5.607   4.273  14.345  0.00  0.00    +0.000 A 
ATOM     17  C   UNL     1       5.371   3.282  13.388  0.00  0.00    +0.000 A 
ATOM     18  C   UNL     1       6.222   3.142  12.292  0.00  0.00    +0.000 A 
ATOM     19 CL   UNL     1       5.915   1.911  11.127  0.00  0.00    +0.000 Cl
ATOM     20  C   UNL     1       7.317   3.983  12.129  0.00  0.00    +0.000 A 
ATOM     21  C   UNL     1       7.540   4.986  13.068  0.00  0.00    +0.000 A 
ATOM     22 CL   UNL     1       8.893   6.034  12.884  0.00  0.00    +0.000 Cl
ATOM     23  C   UNL     1       6.687   5.145  14.164  0.00  0.00    +0.000 A 
ENDBRANCH   3  16
TORSDOF 2
ENDMDL
MODEL 7
REMARK VINA RESULT:      -7.4      4.956      6.360
REMARK  Name = 
REMARK  2 active torsions:
REMARK  status: ('A' for Active; 'I' for Inactive)
REMARK    1  A    between atoms: C_2  and  C_12
REMARK    2  A    between atoms: N_3  and  C_4
REMARK                            x       y       z     vdW  Elec       q    Type
REMARK                         _______ _______ _______ _____ _____    ______ ____
ROOT
ATOM      1  O   UNL     1       2.134   6.878  20.308  0.00  0.00    +0.000 OA
ATOM      2  C   UNL     1       2.118   7.582  19.304  0.00  0.00    +0.000 C 
ATOM      3  N   UNL     1       2.744   7.300  18.099  0.00  0.00    +0.000 N 
ATOM      4  H   UNL     1       2.846   8.059  17.438  0.00  0.00    +0.000 HD
ENDROOT
BRANCH   2   5
ATOM      5  C   UNL     1       1.441   8.897  19.392  0.00  0.00    +0.000 A 
ATOM      6  C   UNL     1       1.151   9.689  18.272  0.00  0.00    +0.000 A 
ATOM      7  C   UNL     1       0.481  10.923  18.422  0.00  0.00    +0.000 A 
ATOM      8  C   UNL     1       0.090  11.381  19.686  0.00  0.00    +0.000 A 
ATOM      9  C   UNL     1       0.377  10.581  20.770  0.00  0.00    +0.000 A 
ATOM     10  O   UNL     1       0.055  10.855  22.090  0.00  0.00    +0.000 OA
ATOM     11  C   UNL     1       0.536   9.722  22.761  0.00  0.00    +0.000 A 
ATOM     12  O   UNL     1       0.438   9.552  23.966  0.00  0.00    +0.000 OA
ATOM     13  N   UNL     1       1.126   8.848  21.881  0.00  0.00    +0.000 N 
ATOM     14  C   UNL     1       1.026   9.374  20.621  0.00  0.00    +0.000 A 
ATOM     15  H   UNL     1       1.501   7.939  22.119  0.00  0.00    +0.000 HD
ENDBRANCH   2   5
BRANCH   3  16
ATOM     16  C   UNL     1       3.443   6.106  17.799  0.00  0.00    +0.000 A 
ATOM     17  C   UNL     1       4.801   6.076  17.472  0.00  0.00    +0.000 A 
ATOM     18  C   UNL     1       5.424   4.870  17.148  0.00  0.00    +0.000 A 
ATOM     19 CL   UNL     1       7.097   4.857  16.744  0.00  0.00    +0.000 Cl
ATOM     20  C   UNL     1       4.707   3.679  17.147  0.00  0.00    +0.000 A 
ATOM     21  C   UNL     1       3.360   3.703  17.496  0.00  0.00    +0.000 A 
ATOM     22 CL   UNL     1       2.458   2.238  17.495  0.00  0.00    +0.000 Cl
ATOM     23  C   UNL     1       2.729   4.903  17.835  0.00  0.00    +0.000 A 
ENDBRANCH   3  16
TORSDOF 2
ENDMDL
MODEL 8
REMARK VINA RESULT:      -7.4      5.015      6.679
REMARK  Name = 
REMARK  2 active torsions:
REMARK  status: ('A' for Active; 'I' for Inactive)
REMARK    1  A    between atoms: C_2  and  C_12
REMARK    2  A    between atoms: N_3  and  C_4
REMARK                            x       y       z     vdW  Elec       q    Type
REMARK                         _______ _______ _______ _____ _____    ______ ____
ROOT
ATOM      1  O   UNL     1       1.936   6.856  20.308  0.00  0.00    +0.000 OA
ATOM      2  C   UNL     1       2.040   7.599  19.339  0.00  0.00    +0.000 C 
ATOM      3  N   UNL     1       2.705   7.312  18.156  0.00  0.00    +0.000 N 
ATOM      4  H   UNL     1       2.911   8.085  17.537  0.00  0.00    +0.000 HD
ENDROOT
BRANCH   2   5
ATOM      5  C   UNL     1       1.479   8.966  19.452  0.00  0.00    +0.000 A 
ATOM      6  C   UNL     1       1.313   9.822  18.354  0.00  0.00    +0.000 A 
ATOM      7  C   UNL     1       0.748  11.105  18.527  0.00  0.00    +0.000 A 
ATOM      8  C   UNL     1       0.341  11.549  19.792  0.00  0.00    +0.000 A 
ATOM      9  C   UNL     1       0.506  10.686  20.853  0.00  0.00    +0.000 A 
ATOM     10  O   UNL     1       0.148  10.938  22.168  0.00  0.00    +0.000 OA
ATOM     11  C   UNL     1       0.496   9.742  22.811  0.00  0.00    +0.000 A 
ATOM     12  O   UNL     1       0.327   9.537  24.003  0.00  0.00    +0.000 OA
ATOM     13  N   UNL     1       1.046   8.852  21.922  0.00  0.00    +0.000 N 
ATOM     14  C   UNL     1       1.051   9.432  20.682  0.00  0.00    +0.000 A 
ATOM     15  H   UNL     1       1.327   7.905  22.137  0.00  0.00    +0.000 HD
ENDBRANCH   2   5
BRANCH   3  16
ATOM     16  C   UNL     1       3.310   6.072  17.838  0.00  0.00    +0.000 A 
ATOM     17  C   UNL     1       2.621   4.857  17.850  0.00  0.00    +0.000 A 
ATOM     18  C   UNL     1       3.285   3.665  17.564  0.00  0.00    +0.000 A 
ATOM     19 CL   UNL     1       2.416   2.178  17.590  0.00  0.00    +0.000 Cl
ATOM     20  C   UNL     1       4.641   3.663  17.258  0.00  0.00    +0.000 A 
ATOM     21  C   UNL     1       5.325   4.874  17.221  0.00  0.00    +0.000 A 
ATOM     22 CL   UNL     1       7.005   4.889  16.849  0.00  0.00    +0.000 Cl
ATOM     23  C   UNL     1       4.667   6.077  17.494  0.00  0.00    +0.000 A 
ENDBRANCH   3  16
TORSDOF 2
ENDMDL
MODEL 9
REMARK VINA RESULT:      -7.4      5.654      7.908
REMARK  Name = 
REMARK  2 active torsions:
REMARK  status: ('A' for Active; 'I' for Inactive)
REMARK    1  A    between atoms: C_2  and  C_12
REMARK    2  A    between atoms: N_3  and  C_4
REMARK                            x       y       z     vdW  Elec       q    Type
REMARK                         _______ _______ _______ _____ _____    ______ ____
ROOT
ATOM      1  O   UNL     1       1.828   7.986  20.402  0.00  0.00    +0.000 OA
ATOM      2  C   UNL     1       2.123   7.884  19.216  0.00  0.00    +0.000 C 
ATOM      3  N   UNL     1       1.756   8.759  18.205  0.00  0.00    +0.000 N 
ATOM      4  H   UNL     1       1.866   8.440  17.251  0.00  0.00    +0.000 HD
ENDROOT
BRANCH   2   5
ATOM      5  C   UNL     1       2.873   6.678  18.792  0.00  0.00    +0.000 A 
ATOM      6  C   UNL     1       3.667   6.634  17.638  0.00  0.00    +0.000 A 
ATOM      7  C   UNL     1       4.377   5.459  17.303  0.00  0.00    +0.000 A 
ATOM      8  C   UNL     1       4.305   4.318  18.112  0.00  0.00    +0.000 A 
ATOM      9  C   UNL     1       3.526   4.390  19.245  0.00  0.00    +0.000 A 
ATOM     10  O   UNL     1       3.347   3.376  20.173  0.00  0.00    +0.000 OA
ATOM     11  C   UNL     1       2.507   3.978  21.121  0.00  0.00    +0.000 A 
ATOM     12  O   UNL     1       2.113   3.418  22.132  0.00  0.00    +0.000 OA
ATOM     13  N   UNL     1       2.197   5.263  20.752  0.00  0.00    +0.000 N 
ATOM     14  C   UNL     1       2.839   5.538  19.574  0.00  0.00    +0.000 A 
ATOM     15  H   UNL     1       1.650   5.916  21.298  0.00  0.00    +0.000 HD
ENDBRANCH   2   5
BRANCH   3  16
ATOM     16  C   UNL     1       1.042   9.967  18.386  0.00  0.00    +0.000 A 
ATOM     17  C   UNL     1      -0.352  10.046  18.349  0.00  0.00    +0.000 A 
ATOM     18  C   UNL     1      -0.995  11.276  18.497  0.00  0.00    +0.000 A 
ATOM     19 CL   UNL     1      -2.714  11.350  18.443  0.00  0.00    +0.000 Cl
ATOM     20  C   UNL     1      -0.262  12.442  18.686  0.00  0.00    +0.000 A 
ATOM     21  C   UNL     1       1.125  12.362  18.748  0.00  0.00    +0.000 A 
ATOM     22 CL   UNL     1       2.047  13.797  18.977  0.00  0.00    +0.000 Cl
ATOM     23  C   UNL     1       1.780  11.135  18.614  0.00  0.00    +0.000 A 
ENDBRANCH   3  16
TORSDOF 2
ENDMDL
