MODEL 1
REMARK VINA RESULT:     -10.0      0.000      0.000
REMARK  Name = 
REMARK  5 active torsions:
REMARK  status: ('A' for Active; 'I' for Inactive)
REMARK    1  A    between atoms: C_1  and  C_2
REMARK    2  A    between atoms: C_6  and  N_7
REMARK    3  A    between atoms: N_7  and  N_8
REMARK    4  A    between atoms: C_9  and  C_10
REMARK    5  A    between atoms: C_27  and  C_28
REMARK                            x       y       z     vdW  Elec       q    Type
REMARK                         _______ _______ _______ _____ _____    ______ ____
ROOT
ATOM      1  C   UNL     1       6.819   6.800  17.410  0.00  0.00    +0.000 C 
ATOM      2  C   UNL     1       6.443   5.329  17.453  0.00  0.00    +0.000 C 
ATOM      3  C   UNL     1       6.314   4.737  18.647  0.00  0.00    +0.000 C 
ATOM      4  C   UNL     1       4.831   4.643  18.801  0.00  0.00    +0.000 C 
ATOM      5  N   UNL     1       4.302   5.575  19.569  0.00  0.00    +0.000 NA
ATOM      6  C   UNL     1       3.025   5.910  19.153  0.00  0.00    +0.000 C 
ATOM      7  C   UNL     1       2.212   4.853  18.992  0.00  0.00    +0.000 C 
ATOM      8  C   UNL     1       1.470   4.151  20.099  0.00  0.00    +0.000 C 
ATOM      9  C   UNL     1       0.998   2.928  19.369  0.00  0.00    +0.000 C 
ATOM     10  C   UNL     1       1.697   2.815  18.225  0.00  0.00    +0.000 C 
ATOM     11  N   UNL     1       2.564   3.893  17.996  0.00  0.00    +0.000 N 
ATOM     12  C   UNL     1       4.057   3.719  17.803  0.00  0.00    +0.000 C 
ATOM     13  C   UNL     1       4.609   4.048  16.420  0.00  0.00    +0.000 C 
ATOM     14  C   UNL     1       5.773   4.737  16.268  0.00  0.00    +0.000 C 
ATOM     15  C   UNL     1       6.606   4.736  15.011  0.00  0.00    +0.000 C 
ENDROOT
BRANCH   6  16
ATOM     16  N   UNL     1       2.941   6.829  18.067  0.00  0.00    +0.000 N 
ATOM     17  H   UNL     1       2.654   6.262  17.260  0.00  0.00    +0.000 HD
BRANCH  16  18
ATOM     18  N   UNL     1       2.147   7.953  18.089  0.00  0.00    +0.000 NA
ATOM     19  C   UNL     1       1.831   8.371  19.272  0.00  0.00    +0.000 C 
BRANCH  19  20
ATOM     20  C   UNL     1       1.096   9.627  19.486  0.00  0.00    +0.000 A 
ATOM     21  C   UNL     1       1.162  10.608  18.501  0.00  0.00    +0.000 A 
ATOM     22  C   UNL     1       0.710  11.861  18.833  0.00  0.00    +0.000 A 
ATOM     23  N   UNL     1       0.202  12.178  20.043  0.00  0.00    +0.000 NA
ATOM     24  C   UNL     1       0.047  11.198  20.950  0.00  0.00    +0.000 A 
ATOM     25  C   UNL     1      -0.565  11.502  22.157  0.00  0.00    +0.000 A 
ATOM     26  C   UNL     1      -0.878  10.516  23.097  0.00  0.00    +0.000 A 
ATOM     27  C   UNL     1      -0.529   9.196  22.854  0.00  0.00    +0.000 A 
ATOM     28  C   UNL     1       0.159   8.875  21.686  0.00  0.00    +0.000 A 
ATOM     29  C   UNL     1       0.453   9.869  20.717  0.00  0.00    +0.000 A 
ENDBRANCH  19  20
ENDBRANCH  16  18
ENDBRANCH   6  16
TORSDOF 3
ENDMDL
MODEL 2
REMARK VINA RESULT:      -9.5      1.854      2.016
REMARK  Name = 
REMARK  5 active torsions:
REMARK  status: ('A' for Active; 'I' for Inactive)
REMARK    1  A    between atoms: C_1  and  C_2
REMARK    2  A    between atoms: C_6  and  N_7
REMARK    3  A    between atoms: N_7  and  N_8
REMARK    4  A    between atoms: C_9  and  C_10
REMARK    5  A    between atoms: C_27  and  C_28
REMARK                            x       y       z     vdW  Elec       q    Type
REMARK                         _______ _______ _______ _____ _____    ______ ____
ROOT
ATOM      1  C   UNL     1       6.496   6.791  17.315  0.00  0.00    +0.000 C 
ATOM      2  C   UNL     1       6.141   5.318  17.407  0.00  0.00    +0.000 C 
ATOM      3  C   UNL     1       6.087   4.748  18.617  0.00  0.00    +0.000 C 
ATOM      4  C   UNL     1       4.617   4.641  18.859  0.00  0.00    +0.000 C 
ATOM      5  N   UNL     1       4.122   5.582  19.638  0.00  0.00    +0.000 NA
ATOM      6  C   UNL     1       2.820   5.897  19.291  0.00  0.00    +0.000 C 
ATOM      7  C   UNL     1       2.011   4.828  19.197  0.00  0.00    +0.000 C 
ATOM      8  C   UNL     1       1.342   4.141  20.359  0.00  0.00    +0.000 C 
ATOM      9  C   UNL     1       0.843   2.899  19.680  0.00  0.00    +0.000 C 
ATOM     10  C   UNL     1       1.476   2.770  18.500  0.00  0.00    +0.000 C 
ATOM     11  N   UNL     1       2.315   3.852  18.201  0.00  0.00    +0.000 N 
ATOM     12  C   UNL     1       3.797   3.690  17.924  0.00  0.00    +0.000 C 
ATOM     13  C   UNL     1       4.264   3.998  16.506  0.00  0.00    +0.000 C 
ATOM     14  C   UNL     1       5.410   4.696  16.274  0.00  0.00    +0.000 C 
ATOM     15  C   UNL     1       6.169   4.679  14.971  0.00  0.00    +0.000 C 
ENDROOT
BRANCH   6  16
ATOM     16  N   UNL     1       2.663   6.794  18.194  0.00  0.00    +0.000 N 
ATOM     17  H   UNL     1       1.821   6.468  17.704  0.00  0.00    +0.000 HD
BRANCH  16  18
ATOM     18  N   UNL     1       2.557   8.157  18.344  0.00  0.00    +0.000 NA
ATOM     19  C   UNL     1       1.461   8.670  17.885  0.00  0.00    +0.000 C 
BRANCH  19  20
ATOM     20  C   UNL     1       1.125  10.089  18.071  0.00  0.00    +0.000 A 
ATOM     21  C   UNL     1       2.162  10.991  18.291  0.00  0.00    +0.000 A 
ATOM     22  C   UNL     1       1.820  12.245  18.735  0.00  0.00    +0.000 A 
ATOM     23  N   UNL     1       0.547  12.641  18.953  0.00  0.00    +0.000 NA
ATOM     24  C   UNL     1      -0.449  11.796  18.637  0.00  0.00    +0.000 A 
ATOM     25  C   UNL     1      -1.758  12.236  18.767  0.00  0.00    +0.000 A 
ATOM     26  C   UNL     1      -2.844  11.467  18.341  0.00  0.00    +0.000 A 
ATOM     27  C   UNL     1      -2.628  10.203  17.813  0.00  0.00    +0.000 A 
ATOM     28  C   UNL     1      -1.331   9.703  17.747  0.00  0.00    +0.000 A 
ATOM     29  C   UNL     1      -0.224  10.493  18.153  0.00  0.00    +0.000 A 
ENDBRANCH  19  20
ENDBRANCH  16  18
ENDBRANCH   6  16
TORSDOF 3
ENDMDL
MODEL 3
REMARK VINA RESULT:      -9.0      1.080      3.651
REMARK  Name = 
REMARK  5 active torsions:
REMARK  status: ('A' for Active; 'I' for Inactive)
REMARK    1  A    between atoms: C_1  and  C_2
REMARK    2  A    between atoms: C_6  and  N_7
REMARK    3  A    between atoms: N_7  and  N_8
REMARK    4  A    between atoms: C_9  and  C_10
REMARK    5  A    between atoms: C_27  and  C_28
REMARK                            x       y       z     vdW  Elec       q    Type
REMARK                         _______ _______ _______ _____ _____    ______ ____
ROOT
ATOM      1  C   UNL     1       0.726   3.214  19.109  0.00  0.00    +0.000 C 
ATOM      2  C   UNL     1       2.149   2.687  19.177  0.00  0.00    +0.000 C 
ATOM      3  C   UNL     1       2.799   2.454  18.031  0.00  0.00    +0.000 C 
ATOM      4  C   UNL     1       3.729   3.621  17.945  0.00  0.00    +0.000 C 
ATOM      5  N   UNL     1       3.324   4.584  17.141  0.00  0.00    +0.000 NA
ATOM      6  C   UNL     1       3.739   5.826  17.587  0.00  0.00    +0.000 C 
ATOM      7  C   UNL     1       5.056   5.895  17.850  0.00  0.00    +0.000 C 
ATOM      8  C   UNL     1       6.137   6.104  16.822  0.00  0.00    +0.000 C 
ATOM      9  C   UNL     1       7.351   5.799  17.649  0.00  0.00    +0.000 C 
ATOM     10  C   UNL     1       6.960   5.162  18.767  0.00  0.00    +0.000 C 
ATOM     11  N   UNL     1       5.567   5.062  18.890  0.00  0.00    +0.000 N 
ATOM     12  C   UNL     1       4.849   3.735  19.032  0.00  0.00    +0.000 C 
ATOM     13  C   UNL     1       4.159   3.471  20.367  0.00  0.00    +0.000 C 
ATOM     14  C   UNL     1       2.923   2.905  20.425  0.00  0.00    +0.000 C 
ATOM     15  C   UNL     1       2.355   2.222  21.644  0.00  0.00    +0.000 C 
ENDROOT
BRANCH   6  16
ATOM     16  N   UNL     1       2.950   6.420  18.614  0.00  0.00    +0.000 N 
ATOM     17  H   UNL     1       3.573   6.477  19.429  0.00  0.00    +0.000 HD
BRANCH  16  18
ATOM     18  N   UNL     1       2.329   7.640  18.478  0.00  0.00    +0.000 NA
ATOM     19  C   UNL     1       1.729   8.065  19.543  0.00  0.00    +0.000 C 
BRANCH  19  20
ATOM     20  C   UNL     1       1.122   9.403  19.617  0.00  0.00    +0.000 A 
ATOM     21  C   UNL     1       1.332  10.283  18.559  0.00  0.00    +0.000 A 
ATOM     22  C   UNL     1       1.001  11.600  18.763  0.00  0.00    +0.000 A 
ATOM     23  N   UNL     1       0.479  12.071  19.916  0.00  0.00    +0.000 NA
ATOM     24  C   UNL     1       0.184  11.193  20.891  0.00  0.00    +0.000 A 
ATOM     25  C   UNL     1      -0.443  11.661  22.036  0.00  0.00    +0.000 A 
ATOM     26  C   UNL     1      -0.897  10.798  23.037  0.00  0.00    +0.000 A 
ATOM     27  C   UNL     1      -0.680   9.433  22.920  0.00  0.00    +0.000 A 
ATOM     28  C   UNL     1       0.019   8.944  21.820  0.00  0.00    +0.000 A 
ATOM     29  C   UNL     1       0.456   9.815  20.789  0.00  0.00    +0.000 A 
ENDBRANCH  19  20
ENDBRANCH  16  18
ENDBRANCH   6  16
TORSDOF 3
ENDMDL
MODEL 4
REMARK VINA RESULT:      -8.8      1.121      2.058
REMARK  Name = 
REMARK  5 active torsions:
REMARK  status: ('A' for Active; 'I' for Inactive)
REMARK    1  A    between atoms: C_1  and  C_2
REMARK    2  A    between atoms: C_6  and  N_7
REMARK    3  A    between atoms: N_7  and  N_8
REMARK    4  A    between atoms: C_9  and  C_10
REMARK    5  A    between atoms: C_27  and  C_28
REMARK                            x       y       z     vdW  Elec       q    Type
REMARK                         _______ _______ _______ _____ _____    ______ ____
ROOT
ATOM      1  C   UNL     1       6.447   6.866  17.309  0.00  0.00    +0.000 C 
ATOM      2  C   UNL     1       6.150   5.378  17.264  0.00  0.00    +0.000 C 
ATOM      3  C   UNL     1       6.339   4.655  18.375  0.00  0.00    +0.000 C 
ATOM      4  C   UNL     1       4.943   4.447  18.866  0.00  0.00    +0.000 C 
ATOM      5  N   UNL     1       4.583   5.255  19.843  0.00  0.00    +0.000 NA
ATOM      6  C   UNL     1       3.231   5.548  19.786  0.00  0.00    +0.000 C 
ATOM      7  C   UNL     1       2.445   4.462  19.699  0.00  0.00    +0.000 C 
ATOM      8  C   UNL     1       2.023   3.599  20.860  0.00  0.00    +0.000 C 
ATOM      9  C   UNL     1       1.435   2.432  20.123  0.00  0.00    +0.000 C 
ATOM     10  C   UNL     1       1.837   2.487  18.841  0.00  0.00    +0.000 C 
ATOM     11  N   UNL     1       2.579   3.638  18.541  0.00  0.00    +0.000 N 
ATOM     12  C   UNL     1       3.986   3.585  17.978  0.00  0.00    +0.000 C 
ATOM     13  C   UNL     1       4.170   4.095  16.553  0.00  0.00    +0.000 C 
ATOM     14  C   UNL     1       5.234   4.872  16.211  0.00  0.00    +0.000 C 
ATOM     15  C   UNL     1       5.734   5.059  14.801  0.00  0.00    +0.000 C 
ENDROOT
BRANCH   6  16
ATOM     16  N   UNL     1       2.849   6.569  18.869  0.00  0.00    +0.000 N 
ATOM     17  H   UNL     1       2.193   6.114  18.223  0.00  0.00    +0.000 HD
BRANCH  16  18
ATOM     18  N   UNL     1       2.288   7.763  19.260  0.00  0.00    +0.000 NA
ATOM     19  C   UNL     1       1.490   7.681  20.275  0.00  0.00    +0.000 C 
BRANCH  19  20
ATOM     20  C   UNL     1       0.901   8.873  20.904  0.00  0.00    +0.000 A 
ATOM     21  C   UNL     1       1.028   9.023  22.283  0.00  0.00    +0.000 A 
ATOM     22  C   UNL     1       0.247   9.979  22.885  0.00  0.00    +0.000 A 
ATOM     23  N   UNL     1      -0.613  10.774  22.213  0.00  0.00    +0.000 NA
ATOM     24  C   UNL     1      -0.649  10.691  20.872  0.00  0.00    +0.000 A 
ATOM     25  C   UNL     1      -1.459  11.575  20.174  0.00  0.00    +0.000 A 
ATOM     26  C   UNL     1      -1.455  11.639  18.779  0.00  0.00    +0.000 A 
ATOM     27  C   UNL     1      -0.659  10.766  18.051  0.00  0.00    +0.000 A 
ATOM     28  C   UNL     1       0.102   9.814  18.723  0.00  0.00    +0.000 A 
ATOM     29  C   UNL     1       0.121   9.766  20.141  0.00  0.00    +0.000 A 
ENDBRANCH  19  20
ENDBRANCH  16  18
ENDBRANCH   6  16
TORSDOF 3
ENDMDL
MODEL 5
REMARK VINA RESULT:      -8.6      2.147      4.186
REMARK  Name = 
REMARK  5 active torsions:
REMARK  status: ('A' for Active; 'I' for Inactive)
REMARK    1  A    between atoms: C_1  and  C_2
REMARK    2  A    between atoms: C_6  and  N_7
REMARK    3  A    between atoms: N_7  and  N_8
REMARK    4  A    between atoms: C_9  and  C_10
REMARK    5  A    between atoms: C_27  and  C_28
REMARK                            x       y       z     vdW  Elec       q    Type
REMARK                         _______ _______ _______ _____ _____    ______ ____
ROOT
ATOM      1  C   UNL     1       0.694   3.262  18.534  0.00  0.00    +0.000 C 
ATOM      2  C   UNL     1       2.077   2.851  19.008  0.00  0.00    +0.000 C 
ATOM      3  C   UNL     1       2.985   2.493  18.093  0.00  0.00    +0.000 C 
ATOM      4  C   UNL     1       3.872   3.694  18.031  0.00  0.00    +0.000 C 
ATOM      5  N   UNL     1       3.636   4.494  17.010  0.00  0.00    +0.000 NA
ATOM      6  C   UNL     1       3.895   5.815  17.329  0.00  0.00    +0.000 C 
ATOM      7  C   UNL     1       5.110   6.014  17.868  0.00  0.00    +0.000 C 
ATOM      8  C   UNL     1       6.395   6.139  17.093  0.00  0.00    +0.000 C 
ATOM      9  C   UNL     1       7.390   6.047  18.212  0.00  0.00    +0.000 C 
ATOM     10  C   UNL     1       6.768   5.562  19.301  0.00  0.00    +0.000 C 
ATOM     11  N   UNL     1       5.389   5.386  19.120  0.00  0.00    +0.000 N 
ATOM     12  C   UNL     1       4.700   4.049  19.310  0.00  0.00    +0.000 C 
ATOM     13  C   UNL     1       3.725   3.944  20.478  0.00  0.00    +0.000 C 
ATOM     14  C   UNL     1       2.529   3.309  20.346  0.00  0.00    +0.000 C 
ATOM     15  C   UNL     1       1.713   2.781  21.499  0.00  0.00    +0.000 C 
ENDROOT
BRANCH   6  16
ATOM     16  N   UNL     1       2.868   6.502  18.039  0.00  0.00    +0.000 N 
ATOM     17  H   UNL     1       2.935   6.157  19.004  0.00  0.00    +0.000 HD
BRANCH  16  18
ATOM     18  N   UNL     1       2.774   7.873  18.092  0.00  0.00    +0.000 NA
ATOM     19  C   UNL     1       1.587   8.345  17.887  0.00  0.00    +0.000 C 
BRANCH  19  20
ATOM     20  C   UNL     1       1.279   9.776  18.030  0.00  0.00    +0.000 A 
ATOM     21  C   UNL     1       2.330  10.658  18.261  0.00  0.00    +0.000 A 
ATOM     22  C   UNL     1       2.004  11.930  18.666  0.00  0.00    +0.000 A 
ATOM     23  N   UNL     1       0.736  12.360  18.834  0.00  0.00    +0.000 NA
ATOM     24  C   UNL     1      -0.271  11.531  18.506  0.00  0.00    +0.000 A 
ATOM     25  C   UNL     1      -1.572  12.005  18.585  0.00  0.00    +0.000 A 
ATOM     26  C   UNL     1      -2.662  11.252  18.142  0.00  0.00    +0.000 A 
ATOM     27  C   UNL     1      -2.461   9.970  17.651  0.00  0.00    +0.000 A 
ATOM     28  C   UNL     1      -1.174   9.439  17.637  0.00  0.00    +0.000 A 
ATOM     29  C   UNL     1      -0.062  10.212  18.060  0.00  0.00    +0.000 A 
ENDBRANCH  19  20
ENDBRANCH  16  18
ENDBRANCH   6  16
TORSDOF 3
ENDMDL
MODEL 6
REMARK VINA RESULT:      -8.6      1.376      3.546
REMARK  Name = 
REMARK  5 active torsions:
REMARK  status: ('A' for Active; 'I' for Inactive)
REMARK    1  A    between atoms: C_1  and  C_2
REMARK    2  A    between atoms: C_6  and  N_7
REMARK    3  A    between atoms: N_7  and  N_8
REMARK    4  A    between atoms: C_9  and  C_10
REMARK    5  A    between atoms: C_27  and  C_28
REMARK                            x       y       z     vdW  Elec       q    Type
REMARK                         _______ _______ _______ _____ _____    ______ ____
ROOT
ATOM      1  C   UNL     1       1.710   3.435  17.155  0.00  0.00    +0.000 C 
ATOM      2  C   UNL     1       3.107   3.013  17.575  0.00  0.00    +0.000 C 
ATOM      3  C   UNL     1       4.096   3.100  16.678  0.00  0.00    +0.000 C 
ATOM      4  C   UNL     1       4.833   4.320  17.127  0.00  0.00    +0.000 C 
ATOM      5  N   UNL     1       4.553   5.409  16.439  0.00  0.00    +0.000 NA
ATOM      6  C   UNL     1       4.635   6.543  17.229  0.00  0.00    +0.000 C 
ATOM      7  C   UNL     1       5.788   6.646  17.911  0.00  0.00    +0.000 C 
ATOM      8  C   UNL     1       7.086   7.166  17.350  0.00  0.00    +0.000 C 
ATOM      9  C   UNL     1       8.028   6.769  18.448  0.00  0.00    +0.000 C 
ATOM     10  C   UNL     1       7.415   5.865  19.233  0.00  0.00    +0.000 C 
ATOM     11  N   UNL     1       6.078   5.637  18.878  0.00  0.00    +0.000 N 
ATOM     12  C   UNL     1       5.547   4.263  18.518  0.00  0.00    +0.000 C 
ATOM     13  C   UNL     1       4.536   3.649  19.479  0.00  0.00    +0.000 C 
ATOM     14  C   UNL     1       3.433   2.995  19.023  0.00  0.00    +0.000 C 
ATOM     15  C   UNL     1       2.630   2.010  19.835  0.00  0.00    +0.000 C 
ENDROOT
BRANCH   6  16
ATOM     16  N   UNL     1       3.498   6.825  18.041  0.00  0.00    +0.000 N 
ATOM     17  H   UNL     1       3.790   6.590  18.997  0.00  0.00    +0.000 HD
BRANCH  16  18
ATOM     18  N   UNL     1       2.886   8.056  18.082  0.00  0.00    +0.000 NA
ATOM     19  C   UNL     1       2.002   8.192  19.016  0.00  0.00    +0.000 C 
BRANCH  19  20
ATOM     20  C   UNL     1       1.342   9.478  19.286  0.00  0.00    +0.000 A 
ATOM     21  C   UNL     1       1.507  10.512  18.368  0.00  0.00    +0.000 A 
ATOM     22  C   UNL     1       1.124  11.770  18.764  0.00  0.00    +0.000 A 
ATOM     23  N   UNL     1       0.593  12.045  19.974  0.00  0.00    +0.000 NA
ATOM     24  C   UNL     1       0.343  11.023  20.811  0.00  0.00    +0.000 A 
ATOM     25  C   UNL     1      -0.293  11.292  22.015  0.00  0.00    +0.000 A 
ATOM     26  C   UNL     1      -0.703  10.274  22.879  0.00  0.00    +0.000 A 
ATOM     27  C   UNL     1      -0.431   8.951  22.564  0.00  0.00    +0.000 A 
ATOM     28  C   UNL     1       0.277   8.657  21.402  0.00  0.00    +0.000 A 
ATOM     29  C   UNL     1       0.670   9.687  20.508  0.00  0.00    +0.000 A 
ENDBRANCH  19  20
ENDBRANCH  16  18
ENDBRANCH   6  16
TORSDOF 3
ENDMDL
MODEL 7
REMARK VINA RESULT:      -8.4      1.679      2.043
REMARK  Name = 
REMARK  5 active torsions:
REMARK  status: ('A' for Active; 'I' for Inactive)
REMARK    1  A    between atoms: C_1  and  C_2
REMARK    2  A    between atoms: C_6  and  N_7
REMARK    3  A    between atoms: N_7  and  N_8
REMARK    4  A    between atoms: C_9  and  C_10
REMARK    5  A    between atoms: C_27  and  C_28
REMARK                            x       y       z     vdW  Elec       q    Type
REMARK                         _______ _______ _______ _____ _____    ______ ____
ROOT
ATOM      1  C   UNL     1       6.596   7.011  17.141  0.00  0.00    +0.000 C 
ATOM      2  C   UNL     1       6.144   5.566  17.262  0.00  0.00    +0.000 C 
ATOM      3  C   UNL     1       6.110   5.007  18.478  0.00  0.00    +0.000 C 
ATOM      4  C   UNL     1       4.649   5.004  18.791  0.00  0.00    +0.000 C 
ATOM      5  N   UNL     1       4.260   5.981  19.586  0.00  0.00    +0.000 NA
ATOM      6  C   UNL     1       2.968   6.385  19.299  0.00  0.00    +0.000 C 
ATOM      7  C   UNL     1       2.082   5.374  19.253  0.00  0.00    +0.000 C 
ATOM      8  C   UNL     1       1.425   4.741  20.451  0.00  0.00    +0.000 C 
ATOM      9  C   UNL     1       0.808   3.534  19.807  0.00  0.00    +0.000 C 
ATOM     10  C   UNL     1       1.372   3.356  18.599  0.00  0.00    +0.000 C 
ATOM     11  N   UNL     1       2.269   4.376  18.251  0.00  0.00    +0.000 N 
ATOM     12  C   UNL     1       3.721   4.109  17.905  0.00  0.00    +0.000 C 
ATOM     13  C   UNL     1       4.139   4.377  16.463  0.00  0.00    +0.000 C 
ATOM     14  C   UNL     1       5.318   4.992  16.171  0.00  0.00    +0.000 C 
ATOM     15  C   UNL     1       6.009   4.916  14.832  0.00  0.00    +0.000 C 
ENDROOT
BRANCH   6  16
ATOM     16  N   UNL     1       2.820   7.285  18.205  0.00  0.00    +0.000 N 
ATOM     17  H   UNL     1       3.005   6.719  17.368  0.00  0.00    +0.000 HD
BRANCH  16  18
ATOM     18  N   UNL     1       1.674   8.010  17.973  0.00  0.00    +0.000 NA
ATOM     19  C   UNL     1       1.500   9.019  18.765  0.00  0.00    +0.000 C 
BRANCH  19  20
ATOM     20  C   UNL     1       0.398   9.975  18.583  0.00  0.00    +0.000 A 
ATOM     21  C   UNL     1      -0.702   9.579  17.826  0.00  0.00    +0.000 A 
ATOM     22  C   UNL     1      -1.580  10.560  17.436  0.00  0.00    +0.000 A 
ATOM     23  N   UNL     1      -1.438  11.864  17.756  0.00  0.00    +0.000 NA
ATOM     24  C   UNL     1      -0.430  12.216  18.574  0.00  0.00    +0.000 A 
ATOM     25  C   UNL     1      -0.340  13.539  18.983  0.00  0.00    +0.000 A 
ATOM     26  C   UNL     1       0.598  13.958  19.930  0.00  0.00    +0.000 A 
ATOM     27  C   UNL     1       1.506  13.048  20.451  0.00  0.00    +0.000 A 
ATOM     28  C   UNL     1       1.490  11.732  19.997  0.00  0.00    +0.000 A 
ATOM     29  C   UNL     1       0.521  11.297  19.056  0.00  0.00    +0.000 A 
ENDBRANCH  19  20
ENDBRANCH  16  18
ENDBRANCH   6  16
TORSDOF 3
ENDMDL
MODEL 8
REMARK VINA RESULT:      -8.4      1.514      4.274
REMARK  Name = 
REMARK  5 active torsions:
REMARK  status: ('A' for Active; 'I' for Inactive)
REMARK    1  A    between atoms: C_1  and  C_2
REMARK    2  A    between atoms: C_6  and  N_7
REMARK    3  A    between atoms: N_7  and  N_8
REMARK    4  A    between atoms: C_9  and  C_10
REMARK    5  A    between atoms: C_27  and  C_28
REMARK                            x       y       z     vdW  Elec       q    Type
REMARK                         _______ _______ _______ _____ _____    ______ ____
ROOT
ATOM      1  C   UNL     1       0.821   2.472  18.562  0.00  0.00    +0.000 C 
ATOM      2  C   UNL     1       2.198   2.279  19.173  0.00  0.00    +0.000 C 
ATOM      3  C   UNL     1       3.208   1.918  18.371  0.00  0.00    +0.000 C 
ATOM      4  C   UNL     1       3.967   3.196  18.214  0.00  0.00    +0.000 C 
ATOM      5  N   UNL     1       3.730   3.836  17.086  0.00  0.00    +0.000 NA
ATOM      6  C   UNL     1       3.825   5.207  17.251  0.00  0.00    +0.000 C 
ATOM      7  C   UNL     1       4.967   5.603  17.838  0.00  0.00    +0.000 C 
ATOM      8  C   UNL     1       6.288   5.779  17.137  0.00  0.00    +0.000 C 
ATOM      9  C   UNL     1       7.198   5.934  18.321  0.00  0.00    +0.000 C 
ATOM     10  C   UNL     1       6.546   5.516  19.420  0.00  0.00    +0.000 C 
ATOM     11  N   UNL     1       5.211   5.165  19.174  0.00  0.00    +0.000 N 
ATOM     12  C   UNL     1       4.652   3.791  19.488  0.00  0.00    +0.000 C 
ATOM     13  C   UNL     1       3.605   3.717  20.595  0.00  0.00    +0.000 C 
ATOM     14  C   UNL     1       2.495   2.941  20.468  0.00  0.00    +0.000 C 
ATOM     15  C   UNL     1       1.650   2.466  21.624  0.00  0.00    +0.000 C 
ENDROOT
BRANCH   6  16
ATOM     16  N   UNL     1       2.680   5.853  17.800  0.00  0.00    +0.000 N 
ATOM     17  H   UNL     1       2.075   5.090  18.126  0.00  0.00    +0.000 HD
BRANCH  16  18
ATOM     18  N   UNL     1       2.751   6.789  18.806  0.00  0.00    +0.000 NA
ATOM     19  C   UNL     1       1.749   7.605  18.860  0.00  0.00    +0.000 C 
BRANCH  19  20
ATOM     20  C   UNL     1       1.597   8.586  19.945  0.00  0.00    +0.000 A 
ATOM     21  C   UNL     1       1.489   8.115  21.251  0.00  0.00    +0.000 A 
ATOM     22  C   UNL     1       1.074   9.009  22.208  0.00  0.00    +0.000 A 
ATOM     23  N   UNL     1       0.784  10.302  21.949  0.00  0.00    +0.000 NA
ATOM     24  C   UNL     1       0.992  10.769  20.706  0.00  0.00    +0.000 A 
ATOM     25  C   UNL     1       0.788  12.119  20.462  0.00  0.00    +0.000 A 
ATOM     26  C   UNL     1       1.105  12.706  19.234  0.00  0.00    +0.000 A 
ATOM     27  C   UNL     1       1.594  11.921  18.200  0.00  0.00    +0.000 A 
ATOM     28  C   UNL     1       1.732  10.548  18.392  0.00  0.00    +0.000 A 
ATOM     29  C   UNL     1       1.437   9.954  19.647  0.00  0.00    +0.000 A 
ENDBRANCH  19  20
ENDBRANCH  16  18
ENDBRANCH   6  16
TORSDOF 3
ENDMDL
MODEL 9
REMARK VINA RESULT:      -8.3      1.880      4.188
REMARK  Name = 
REMARK  5 active torsions:
REMARK  status: ('A' for Active; 'I' for Inactive)
REMARK    1  A    between atoms: C_1  and  C_2
REMARK    2  A    between atoms: C_6  and  N_7
REMARK    3  A    between atoms: N_7  and  N_8
REMARK    4  A    between atoms: C_9  and  C_10
REMARK    5  A    between atoms: C_27  and  C_28
REMARK                            x       y       z     vdW  Elec       q    Type
REMARK                         _______ _______ _______ _____ _____    ______ ____
ROOT
ATOM      1  C   UNL     1       0.467   3.729  20.405  0.00  0.00    +0.000 C 
ATOM      2  C   UNL     1       1.682   3.217  19.653  0.00  0.00    +0.000 C 
ATOM      3  C   UNL     1       1.694   3.311  18.318  0.00  0.00    +0.000 C 
ATOM      4  C   UNL     1       2.613   4.465  18.084  0.00  0.00    +0.000 C 
ATOM      5  N   UNL     1       2.003   5.607  17.835  0.00  0.00    +0.000 NA
ATOM      6  C   UNL     1       2.726   6.684  18.314  0.00  0.00    +0.000 C 
ATOM      7  C   UNL     1       4.012   6.691  17.922  0.00  0.00    +0.000 C 
ATOM      8  C   UNL     1       4.510   7.183  16.588  0.00  0.00    +0.000 C 
ATOM      9  C   UNL     1       5.922   6.675  16.629  0.00  0.00    +0.000 C 
ATOM     10  C   UNL     1       6.019   5.755  17.605  0.00  0.00    +0.000 C 
ATOM     11  N   UNL     1       4.841   5.612  18.352  0.00  0.00    +0.000 N 
ATOM     12  C   UNL     1       4.113   4.289  18.493  0.00  0.00    +0.000 C 
ATOM     13  C   UNL     1       4.094   3.666  19.884  0.00  0.00    +0.000 C 
ATOM     14  C   UNL     1       2.966   3.094  20.388  0.00  0.00    +0.000 C 
ATOM     15  C   UNL     1       2.949   2.100  21.522  0.00  0.00    +0.000 C 
ENDROOT
BRANCH   6  16
ATOM     16  N   UNL     1       2.582   6.969  19.703  0.00  0.00    +0.000 N 
ATOM     17  H   UNL     1       3.541   7.088  20.051  0.00  0.00    +0.000 HD
BRANCH  16  18
ATOM     18  N   UNL     1       1.831   8.016  20.184  0.00  0.00    +0.000 NA
ATOM     19  C   UNL     1       1.583   8.949  19.321  0.00  0.00    +0.000 C 
BRANCH  19  20
ATOM     20  C   UNL     1       0.692  10.078  19.625  0.00  0.00    +0.000 A 
ATOM     21  C   UNL     1       0.969  10.856  20.746  0.00  0.00    +0.000 A 
ATOM     22  C   UNL     1      -0.012  11.719  21.169  0.00  0.00    +0.000 A 
ATOM     23  N   UNL     1      -1.206  11.855  20.554  0.00  0.00    +0.000 NA
ATOM     24  C   UNL     1      -1.421  11.175  19.414  0.00  0.00    +0.000 A 
ATOM     25  C   UNL     1      -2.608  11.388  18.729  0.00  0.00    +0.000 A 
ATOM     26  C   UNL     1      -2.851  10.821  17.476  0.00  0.00    +0.000 A 
ATOM     27  C   UNL     1      -1.909   9.977  16.906  0.00  0.00    +0.000 A 
ATOM     28  C   UNL     1      -0.744   9.681  17.609  0.00  0.00    +0.000 A 
ATOM     29  C   UNL     1      -0.482  10.278  18.870  0.00  0.00    +0.000 A 
ENDBRANCH  19  20
ENDBRANCH  16  18
ENDBRANCH   6  16
TORSDOF 3
ENDMDL
