MODEL 1
REMARK VINA RESULT:      -7.1      0.000      0.000
REMARK  Name = 
REMARK  10 active torsions:
REMARK  status: ('A' for Active; 'I' for Inactive)
REMARK    1  A    between atoms: C_2  and  O_14
REMARK    2  A    between atoms: N_3  and  C_4
REMARK    3  A    between atoms: C_4  and  C_5
REMARK    4  A    between atoms: C_5  and  C_6
REMARK    5  A    between atoms: C_6  and  C_7
REMARK    6  A    between atoms: C_7  and  C_8
REMARK    7  A    between atoms: O_14  and  C_15
REMARK    8  A    between atoms: C_15  and  C_16
REMARK    9  A    between atoms: C_16  and  C_17
REMARK   10  A    between atoms: C_17  and  C_18
REMARK                            x       y       z     vdW  Elec       q    Type
REMARK                         _______ _______ _______ _____ _____    ______ ____
ROOT
ATOM      1  O   UNL     1       7.680   5.259  19.444  0.00  0.00    +0.000 OA
ATOM      2  C   UNL     1       7.597   5.464  18.233  0.00  0.00    +0.000 C 
ATOM      3  N   UNL     1       7.310   4.442  17.411  0.00  0.00    +0.000 N 
ATOM      4  H   UNL     1       7.175   3.581  17.928  0.00  0.00    +0.000 HD
ENDROOT
BRANCH   3   5
ATOM      5  C   UNL     1       6.839   4.323  16.053  0.00  0.00    +0.000 C 
BRANCH   5   6
ATOM      6  C   UNL     1       5.459   4.978  15.970  0.00  0.00    +0.000 C 
BRANCH   6   7
ATOM      7  C   UNL     1       4.382   4.155  16.686  0.00  0.00    +0.000 C 
BRANCH   7   8
ATOM      8  C   UNL     1       4.069   4.664  18.103  0.00  0.00    +0.000 C 
BRANCH   8   9
ATOM      9  C   UNL     1       2.596   5.107  18.261  0.00  0.00    +0.000 C 
ATOM     10  C   UNL     1       1.619   3.991  17.856  0.00  0.00    +0.000 C 
ATOM     11  C   UNL     1       1.348   3.011  18.986  0.00  0.00    +0.000 C 
ATOM     12  C   UNL     1       0.743   3.760  20.161  0.00  0.00    +0.000 C 
ATOM     13  C   UNL     1       1.742   4.770  20.709  0.00  0.00    +0.000 C 
ATOM     14  C   UNL     1       2.280   5.718  19.640  0.00  0.00    +0.000 C 
ENDBRANCH   8   9
ENDBRANCH   7   8
ENDBRANCH   6   7
ENDBRANCH   5   6
ENDBRANCH   3   5
BRANCH   2  15
ATOM     15  O   UNL     1       7.761   6.673  17.665  0.00  0.00    +0.000 OA
BRANCH  15  16
ATOM     16  C   UNL     1       8.270   7.670  18.564  0.00  0.00    +0.000 C 
BRANCH  16  17
ATOM     17  C   UNL     1       8.381   9.137  18.088  0.00  0.00    +0.000 C 
BRANCH  17  18
ATOM     18  C   UNL     1       9.020   9.934  19.231  0.00  0.00    +0.000 C 
BRANCH  18  19
ATOM     19  C   UNL     1       9.751  11.176  18.865  0.00  0.00    +0.000 A 
ATOM     20  C   UNL     1       9.782  12.391  19.521  0.00  0.00    +0.000 A 
ATOM     21  N   UNL     1      10.400  13.253  18.656  0.00  0.00    +0.000 N 
ATOM     22  C   UNL     1      10.729  12.545  17.536  0.00  0.00    +0.000 A 
ATOM     23  N   UNL     1      10.369  11.286  17.641  0.00  0.00    +0.000 NA
ATOM     24  H   UNL     1      10.543  14.244  18.791  0.00  0.00    +0.000 HD
ENDBRANCH  18  19
ENDBRANCH  17  18
ENDBRANCH  16  17
ENDBRANCH  15  16
ENDBRANCH   2  15
TORSDOF 10
ENDMDL
MODEL 2
REMARK VINA RESULT:      -7.0      4.729      6.902
REMARK  Name = 
REMARK  10 active torsions:
REMARK  status: ('A' for Active; 'I' for Inactive)
REMARK    1  A    between atoms: C_2  and  O_14
REMARK    2  A    between atoms: N_3  and  C_4
REMARK    3  A    between atoms: C_4  and  C_5
REMARK    4  A    between atoms: C_5  and  C_6
REMARK    5  A    between atoms: C_6  and  C_7
REMARK    6  A    between atoms: C_7  and  C_8
REMARK    7  A    between atoms: O_14  and  C_15
REMARK    8  A    between atoms: C_15  and  C_16
REMARK    9  A    between atoms: C_16  and  C_17
REMARK   10  A    between atoms: C_17  and  C_18
REMARK                            x       y       z     vdW  Elec       q    Type
REMARK                         _______ _______ _______ _____ _____    ______ ____
ROOT
ATOM      1  O   UNL     1       1.510   2.521  22.319  0.00  0.00    +0.000 OA
ATOM      2  C   UNL     1       1.457   2.840  21.132  0.00  0.00    +0.000 C 
ATOM      3  N   UNL     1       2.076   2.075  20.217  0.00  0.00    +0.000 N 
ATOM      4  H   UNL     1       2.522   1.274  20.648  0.00  0.00    +0.000 HD
ENDROOT
BRANCH   3   5
ATOM      5  C   UNL     1       1.998   1.928  18.785  0.00  0.00    +0.000 C 
BRANCH   5   6
ATOM      6  C   UNL     1       3.415   1.718  18.250  0.00  0.00    +0.000 C 
BRANCH   6   7
ATOM      7  C   UNL     1       4.281   2.975  18.394  0.00  0.00    +0.000 C 
BRANCH   7   8
ATOM      8  C   UNL     1       4.162   3.936  17.198  0.00  0.00    +0.000 C 
BRANCH   8   9
ATOM      9  C   UNL     1       5.540   4.372  16.650  0.00  0.00    +0.000 C 
ATOM     10  C   UNL     1       5.433   5.629  15.771  0.00  0.00    +0.000 C 
ATOM     11  C   UNL     1       5.453   6.914  16.583  0.00  0.00    +0.000 C 
ATOM     12  C   UNL     1       6.757   6.994  17.357  0.00  0.00    +0.000 C 
ATOM     13  C   UNL     1       6.837   5.857  18.366  0.00  0.00    +0.000 C 
ATOM     14  C   UNL     1       6.629   4.483  17.735  0.00  0.00    +0.000 C 
ENDBRANCH   8   9
ENDBRANCH   7   8
ENDBRANCH   6   7
ENDBRANCH   5   6
ENDBRANCH   3   5
BRANCH   2  15
ATOM     15  O   UNL     1       0.793   3.917  20.673  0.00  0.00    +0.000 OA
BRANCH  15  16
ATOM     16  C   UNL     1       1.590   5.110  20.625  0.00  0.00    +0.000 C 
BRANCH  16  17
ATOM     17  C   UNL     1       2.029   5.675  19.254  0.00  0.00    +0.000 C 
BRANCH  17  18
ATOM     18  C   UNL     1       2.660   7.047  19.515  0.00  0.00    +0.000 C 
BRANCH  18  19
ATOM     19  C   UNL     1       1.984   8.230  18.917  0.00  0.00    +0.000 A 
ATOM     20  C   UNL     1       2.155   8.789  17.667  0.00  0.00    +0.000 A 
ATOM     21  N   UNL     1       1.482   9.979  17.708  0.00  0.00    +0.000 N 
ATOM     22  C   UNL     1       0.923  10.093  18.948  0.00  0.00    +0.000 A 
ATOM     23  N   UNL     1       1.192   9.045  19.693  0.00  0.00    +0.000 NA
ATOM     24  H   UNL     1       1.443  10.676  16.977  0.00  0.00    +0.000 HD
ENDBRANCH  18  19
ENDBRANCH  17  18
ENDBRANCH  16  17
ENDBRANCH  15  16
ENDBRANCH   2  15
TORSDOF 10
ENDMDL
MODEL 3
REMARK VINA RESULT:      -6.9      1.151      1.622
REMARK  Name = 
REMARK  10 active torsions:
REMARK  status: ('A' for Active; 'I' for Inactive)
REMARK    1  A    between atoms: C_2  and  O_14
REMARK    2  A    between atoms: N_3  and  C_4
REMARK    3  A    between atoms: C_4  and  C_5
REMARK    4  A    between atoms: C_5  and  C_6
REMARK    5  A    between atoms: C_6  and  C_7
REMARK    6  A    between atoms: C_7  and  C_8
REMARK    7  A    between atoms: O_14  and  C_15
REMARK    8  A    between atoms: C_15  and  C_16
REMARK    9  A    between atoms: C_16  and  C_17
REMARK   10  A    between atoms: C_17  and  C_18
REMARK                            x       y       z     vdW  Elec       q    Type
REMARK                         _______ _______ _______ _____ _____    ______ ____
ROOT
ATOM      1  O   UNL     1       8.199   4.522  18.580  0.00  0.00    +0.000 OA
ATOM      2  C   UNL     1       7.214   4.887  17.939  0.00  0.00    +0.000 C 
ATOM      3  N   UNL     1       6.747   4.108  16.949  0.00  0.00    +0.000 N 
ATOM      4  H   UNL     1       7.292   3.259  16.862  0.00  0.00    +0.000 HD
ENDROOT
BRANCH   3   5
ATOM      5  C   UNL     1       5.510   4.021  16.214  0.00  0.00    +0.000 C 
BRANCH   5   6
ATOM      6  C   UNL     1       4.438   3.465  17.152  0.00  0.00    +0.000 C 
BRANCH   6   7
ATOM      7  C   UNL     1       3.393   4.522  17.529  0.00  0.00    +0.000 C 
BRANCH   7   8
ATOM      8  C   UNL     1       1.951   3.984  17.518  0.00  0.00    +0.000 C 
BRANCH   8   9
ATOM      9  C   UNL     1       1.209   4.251  18.847  0.00  0.00    +0.000 C 
ATOM     10  C   UNL     1       0.721   2.947  19.498  0.00  0.00    +0.000 C 
ATOM     11  C   UNL     1       1.793   2.274  20.340  0.00  0.00    +0.000 C 
ATOM     12  C   UNL     1       2.222   3.220  21.449  0.00  0.00    +0.000 C 
ATOM     13  C   UNL     1       2.869   4.464  20.855  0.00  0.00    +0.000 C 
ATOM     14  C   UNL     1       1.990   5.158  19.818  0.00  0.00    +0.000 C 
ENDBRANCH   8   9
ENDBRANCH   7   8
ENDBRANCH   6   7
ENDBRANCH   5   6
ENDBRANCH   3   5
BRANCH   2  15
ATOM     15  O   UNL     1       6.546   6.031  18.178  0.00  0.00    +0.000 OA
BRANCH  15  16
ATOM     16  C   UNL     1       7.115   7.179  17.529  0.00  0.00    +0.000 C 
BRANCH  16  17
ATOM     17  C   UNL     1       8.203   8.002  18.258  0.00  0.00    +0.000 C 
BRANCH  17  18
ATOM     18  C   UNL     1       8.156   9.420  17.679  0.00  0.00    +0.000 C 
BRANCH  18  19
ATOM     19  C   UNL     1       8.912  10.475  18.406  0.00  0.00    +0.000 A 
ATOM     20  C   UNL     1       9.525  10.410  19.641  0.00  0.00    +0.000 A 
ATOM     21  N   UNL     1       9.865  11.700  19.945  0.00  0.00    +0.000 N 
ATOM     22  C   UNL     1       9.470  12.485  18.901  0.00  0.00    +0.000 A 
ATOM     23  N   UNL     1       8.910  11.773  17.949  0.00  0.00    +0.000 NA
ATOM     24  H   UNL     1      10.284  12.027  20.804  0.00  0.00    +0.000 HD
ENDBRANCH  18  19
ENDBRANCH  17  18
ENDBRANCH  16  17
ENDBRANCH  15  16
ENDBRANCH   2  15
TORSDOF 10
ENDMDL
MODEL 4
REMARK VINA RESULT:      -6.9      1.135      1.805
REMARK  Name = 
REMARK  10 active torsions:
REMARK  status: ('A' for Active; 'I' for Inactive)
REMARK    1  A    between atoms: C_2  and  O_14
REMARK    2  A    between atoms: N_3  and  C_4
REMARK    3  A    between atoms: C_4  and  C_5
REMARK    4  A    between atoms: C_5  and  C_6
REMARK    5  A    between atoms: C_6  and  C_7
REMARK    6  A    between atoms: C_7  and  C_8
REMARK    7  A    between atoms: O_14  and  C_15
REMARK    8  A    between atoms: C_15  and  C_16
REMARK    9  A    between atoms: C_16  and  C_17
REMARK   10  A    between atoms: C_17  and  C_18
REMARK                            x       y       z     vdW  Elec       q    Type
REMARK                         _______ _______ _______ _____ _____    ______ ____
ROOT
ATOM      1  O   UNL     1       8.081   5.218  19.616  0.00  0.00    +0.000 OA
ATOM      2  C   UNL     1       7.331   5.306  18.643  0.00  0.00    +0.000 C 
ATOM      3  N   UNL     1       6.116   4.735  18.695  0.00  0.00    +0.000 N 
ATOM      4  H   UNL     1       5.958   4.290  19.591  0.00  0.00    +0.000 HD
ENDROOT
BRANCH   3   5
ATOM      5  C   UNL     1       4.892   4.867  17.946  0.00  0.00    +0.000 C 
BRANCH   5   6
ATOM      6  C   UNL     1       3.925   5.724  18.763  0.00  0.00    +0.000 C 
BRANCH   6   7
ATOM      7  C   UNL     1       2.471   5.550  18.310  0.00  0.00    +0.000 C 
BRANCH   7   8
ATOM      8  C   UNL     1       2.193   4.179  17.669  0.00  0.00    +0.000 C 
BRANCH   8   9
ATOM      9  C   UNL     1       1.493   3.202  18.641  0.00  0.00    +0.000 C 
ATOM     10  C   UNL     1       2.399   2.013  19.003  0.00  0.00    +0.000 C 
ATOM     11  C   UNL     1       3.348   2.326  20.148  0.00  0.00    +0.000 C 
ATOM     12  C   UNL     1       2.538   2.691  21.381  0.00  0.00    +0.000 C 
ATOM     13  C   UNL     1       1.746   3.966  21.128  0.00  0.00    +0.000 C 
ATOM     14  C   UNL     1       0.879   3.892  19.875  0.00  0.00    +0.000 C 
ENDBRANCH   8   9
ENDBRANCH   7   8
ENDBRANCH   6   7
ENDBRANCH   5   6
ENDBRANCH   3   5
BRANCH   2  15
ATOM     15  O   UNL     1       7.645   5.964  17.512  0.00  0.00    +0.000 OA
BRANCH  15  16
ATOM     16  C   UNL     1       7.477   7.387  17.607  0.00  0.00    +0.000 C 
BRANCH  16  17
ATOM     17  C   UNL     1       8.502   8.221  18.412  0.00  0.00    +0.000 C 
BRANCH  17  18
ATOM     18  C   UNL     1       8.245   9.694  18.076  0.00  0.00    +0.000 C 
BRANCH  18  19
ATOM     19  C   UNL     1       9.286  10.674  18.485  0.00  0.00    +0.000 A 
ATOM     20  C   UNL     1       9.301  11.525  19.572  0.00  0.00    +0.000 A 
ATOM     21  N   UNL     1      10.355  12.369  19.357  0.00  0.00    +0.000 N 
ATOM     22  C   UNL     1      10.942  12.002  18.181  0.00  0.00    +0.000 A 
ATOM     23  N   UNL     1      10.332  10.971  17.642  0.00  0.00    +0.000 NA
ATOM     24  H   UNL     1      10.626  13.156  19.931  0.00  0.00    +0.000 HD
ENDBRANCH  18  19
ENDBRANCH  17  18
ENDBRANCH  16  17
ENDBRANCH  15  16
ENDBRANCH   2  15
TORSDOF 10
ENDMDL
MODEL 5
REMARK VINA RESULT:      -6.8      2.542      9.676
REMARK  Name = 
REMARK  10 active torsions:
REMARK  status: ('A' for Active; 'I' for Inactive)
REMARK    1  A    between atoms: C_2  and  O_14
REMARK    2  A    between atoms: N_3  and  C_4
REMARK    3  A    between atoms: C_4  and  C_5
REMARK    4  A    between atoms: C_5  and  C_6
REMARK    5  A    between atoms: C_6  and  C_7
REMARK    6  A    between atoms: C_7  and  C_8
REMARK    7  A    between atoms: O_14  and  C_15
REMARK    8  A    between atoms: C_15  and  C_16
REMARK    9  A    between atoms: C_16  and  C_17
REMARK   10  A    between atoms: C_17  and  C_18
REMARK                            x       y       z     vdW  Elec       q    Type
REMARK                         _______ _______ _______ _____ _____    ______ ____
ROOT
ATOM      1  O   UNL     1       6.335   5.718  15.010  0.00  0.00    +0.000 OA
ATOM      2  C   UNL     1       6.681   5.781  16.190  0.00  0.00    +0.000 C 
ATOM      3  N   UNL     1       7.494   6.775  16.585  0.00  0.00    +0.000 N 
ATOM      4  H   UNL     1       7.721   7.393  15.815  0.00  0.00    +0.000 HD
ENDROOT
BRANCH   3   5
ATOM      5  C   UNL     1       7.855   7.357  17.854  0.00  0.00    +0.000 C 
BRANCH   5   6
ATOM      6  C   UNL     1       7.812   8.878  17.709  0.00  0.00    +0.000 C 
BRANCH   6   7
ATOM      7  C   UNL     1       8.866   9.574  18.578  0.00  0.00    +0.000 C 
BRANCH   7   8
ATOM      8  C   UNL     1       9.298  10.945  18.031  0.00  0.00    +0.000 C 
BRANCH   8   9
ATOM      9  C   UNL     1       9.381  12.024  19.135  0.00  0.00    +0.000 C 
ATOM     10  C   UNL     1      10.279  11.579  20.300  0.00  0.00    +0.000 C 
ATOM     11  C   UNL     1      11.752  11.860  20.045  0.00  0.00    +0.000 C 
ATOM     12  C   UNL     1      11.946  13.353  19.847  0.00  0.00    +0.000 C 
ATOM     13  C   UNL     1      11.206  13.817  18.600  0.00  0.00    +0.000 C 
ATOM     14  C   UNL     1       9.731  13.427  18.602  0.00  0.00    +0.000 C 
ENDBRANCH   8   9
ENDBRANCH   7   8
ENDBRANCH   6   7
ENDBRANCH   5   6
ENDBRANCH   3   5
BRANCH   2  15
ATOM     15  O   UNL     1       6.276   4.914  17.137  0.00  0.00    +0.000 OA
BRANCH  15  16
ATOM     16  C   UNL     1       5.024   4.277  16.839  0.00  0.00    +0.000 C 
BRANCH  16  17
ATOM     17  C   UNL     1       4.348   3.394  17.914  0.00  0.00    +0.000 C 
BRANCH  17  18
ATOM     18  C   UNL     1       3.195   4.210  18.506  0.00  0.00    +0.000 C 
BRANCH  18  19
ATOM     19  C   UNL     1       2.369   3.556  19.557  0.00  0.00    +0.000 A 
ATOM     20  C   UNL     1       1.006   3.627  19.761  0.00  0.00    +0.000 A 
ATOM     21  N   UNL     1       0.792   3.046  20.981  0.00  0.00    +0.000 N 
ATOM     22  C   UNL     1       2.004   2.636  21.459  0.00  0.00    +0.000 A 
ATOM     23  N   UNL     1       2.971   2.912  20.614  0.00  0.00    +0.000 NA
ATOM     24  H   UNL     1      -0.090   2.975  21.470  0.00  0.00    +0.000 HD
ENDBRANCH  18  19
ENDBRANCH  17  18
ENDBRANCH  16  17
ENDBRANCH  15  16
ENDBRANCH   2  15
TORSDOF 10
ENDMDL
MODEL 6
REMARK VINA RESULT:      -6.8      2.552      9.326
REMARK  Name = 
REMARK  10 active torsions:
REMARK  status: ('A' for Active; 'I' for Inactive)
REMARK    1  A    between atoms: C_2  and  O_14
REMARK    2  A    between atoms: N_3  and  C_4
REMARK    3  A    between atoms: C_4  and  C_5
REMARK    4  A    between atoms: C_5  and  C_6
REMARK    5  A    between atoms: C_6  and  C_7
REMARK    6  A    between atoms: C_7  and  C_8
REMARK    7  A    between atoms: O_14  and  C_15
REMARK    8  A    between atoms: C_15  and  C_16
REMARK    9  A    between atoms: C_16  and  C_17
REMARK   10  A    between atoms: C_17  and  C_18
REMARK                            x       y       z     vdW  Elec       q    Type
REMARK                         _______ _______ _______ _____ _____    ______ ____
ROOT
ATOM      1  O   UNL     1       7.015   4.389  15.215  0.00  0.00    +0.000 OA
ATOM      2  C   UNL     1       6.648   4.996  16.221  0.00  0.00    +0.000 C 
ATOM      3  N   UNL     1       7.119   6.232  16.454  0.00  0.00    +0.000 N 
ATOM      4  H   UNL     1       7.746   6.531  15.717  0.00  0.00    +0.000 HD
ENDROOT
BRANCH   3   5
ATOM      5  C   UNL     1       6.724   7.336  17.292  0.00  0.00    +0.000 C 
BRANCH   5   6
ATOM      6  C   UNL     1       7.956   7.817  18.058  0.00  0.00    +0.000 C 
BRANCH   6   7
ATOM      7  C   UNL     1       8.184   9.325  17.903  0.00  0.00    +0.000 C 
BRANCH   7   8
ATOM      8  C   UNL     1       9.401   9.841  18.690  0.00  0.00    +0.000 C 
BRANCH   8   9
ATOM      9  C   UNL     1       9.568  11.374  18.584  0.00  0.00    +0.000 C 
ATOM     10  C   UNL     1       9.395  12.062  19.948  0.00  0.00    +0.000 C 
ATOM     11  C   UNL     1      10.677  12.072  20.766  0.00  0.00    +0.000 C 
ATOM     12  C   UNL     1      11.752  12.820  19.997  0.00  0.00    +0.000 C 
ATOM     13  C   UNL     1      12.082  12.083  18.706  0.00  0.00    +0.000 C 
ATOM     14  C   UNL     1      10.851  11.805  17.847  0.00  0.00    +0.000 C 
ENDBRANCH   8   9
ENDBRANCH   7   8
ENDBRANCH   6   7
ENDBRANCH   5   6
ENDBRANCH   3   5
BRANCH   2  15
ATOM     15  O   UNL     1       5.771   4.502  17.115  0.00  0.00    +0.000 OA
BRANCH  15  16
ATOM     16  C   UNL     1       4.398   4.741  16.771  0.00  0.00    +0.000 C 
BRANCH  16  17
ATOM     17  C   UNL     1       3.335   3.665  17.096  0.00  0.00    +0.000 C 
BRANCH  17  18
ATOM     18  C   UNL     1       2.113   4.397  17.660  0.00  0.00    +0.000 C 
BRANCH  18  19
ATOM     19  C   UNL     1       1.887   4.308  19.128  0.00  0.00    +0.000 A 
ATOM     20  C   UNL     1       2.594   4.903  20.154  0.00  0.00    +0.000 A 
ATOM     21  N   UNL     1       2.132   4.315  21.300  0.00  0.00    +0.000 N 
ATOM     22  C   UNL     1       1.170   3.415  20.941  0.00  0.00    +0.000 A 
ATOM     23  N   UNL     1       0.987   3.402  19.640  0.00  0.00    +0.000 NA
ATOM     24  H   UNL     1       2.470   4.474  22.239  0.00  0.00    +0.000 HD
ENDBRANCH  18  19
ENDBRANCH  17  18
ENDBRANCH  16  17
ENDBRANCH  15  16
ENDBRANCH   2  15
TORSDOF 10
ENDMDL
MODEL 7
REMARK VINA RESULT:      -6.7      2.425      9.526
REMARK  Name = 
REMARK  10 active torsions:
REMARK  status: ('A' for Active; 'I' for Inactive)
REMARK    1  A    between atoms: C_2  and  O_14
REMARK    2  A    between atoms: N_3  and  C_4
REMARK    3  A    between atoms: C_4  and  C_5
REMARK    4  A    between atoms: C_5  and  C_6
REMARK    5  A    between atoms: C_6  and  C_7
REMARK    6  A    between atoms: C_7  and  C_8
REMARK    7  A    between atoms: O_14  and  C_15
REMARK    8  A    between atoms: C_15  and  C_16
REMARK    9  A    between atoms: C_16  and  C_17
REMARK   10  A    between atoms: C_17  and  C_18
REMARK                            x       y       z     vdW  Elec       q    Type
REMARK                         _______ _______ _______ _____ _____    ______ ____
ROOT
ATOM      1  O   UNL     1       5.944   5.913  15.396  0.00  0.00    +0.000 OA
ATOM      2  C   UNL     1       6.318   6.079  16.556  0.00  0.00    +0.000 C 
ATOM      3  N   UNL     1       7.397   6.842  16.797  0.00  0.00    +0.000 N 
ATOM      4  H   UNL     1       7.779   7.219  15.939  0.00  0.00    +0.000 HD
ENDROOT
BRANCH   3   5
ATOM      5  C   UNL     1       7.941   7.506  17.955  0.00  0.00    +0.000 C 
BRANCH   5   6
ATOM      6  C   UNL     1       7.608   8.995  17.850  0.00  0.00    +0.000 C 
BRANCH   6   7
ATOM      7  C   UNL     1       8.864   9.873  17.859  0.00  0.00    +0.000 C 
BRANCH   7   8
ATOM      8  C   UNL     1       9.289  10.313  19.271  0.00  0.00    +0.000 C 
BRANCH   8   9
ATOM      9  C   UNL     1      10.545  11.213  19.258  0.00  0.00    +0.000 C 
ATOM     10  C   UNL     1      10.568  12.141  18.031  0.00  0.00    +0.000 C 
ATOM     11  C   UNL     1       9.770  13.416  18.246  0.00  0.00    +0.000 C 
ATOM     12  C   UNL     1      10.357  14.179  19.422  0.00  0.00    +0.000 C 
ATOM     13  C   UNL     1      10.207  13.367  20.701  0.00  0.00    +0.000 C 
ATOM     14  C   UNL     1      10.785  11.959  20.585  0.00  0.00    +0.000 C 
ENDBRANCH   8   9
ENDBRANCH   7   8
ENDBRANCH   6   7
ENDBRANCH   5   6
ENDBRANCH   3   5
BRANCH   2  15
ATOM     15  O   UNL     1       5.696   5.551  17.627  0.00  0.00    +0.000 OA
BRANCH  15  16
ATOM     16  C   UNL     1       4.417   4.972  17.325  0.00  0.00    +0.000 C 
BRANCH  16  17
ATOM     17  C   UNL     1       3.142   5.572  17.963  0.00  0.00    +0.000 C 
BRANCH  17  18
ATOM     18  C   UNL     1       2.097   4.452  18.016  0.00  0.00    +0.000 C 
BRANCH  18  19
ATOM     19  C   UNL     1       1.860   3.808  19.336  0.00  0.00    +0.000 A 
ATOM     20  C   UNL     1       0.755   3.105  19.773  0.00  0.00    +0.000 A 
ATOM     21  N   UNL     1       0.944   2.936  21.118  0.00  0.00    +0.000 N 
ATOM     22  C   UNL     1       2.137   3.514  21.441  0.00  0.00    +0.000 A 
ATOM     23  N   UNL     1       2.722   4.031  20.385  0.00  0.00    +0.000 NA
ATOM     24  H   UNL     1       0.299   2.508  21.769  0.00  0.00    +0.000 HD
ENDBRANCH  18  19
ENDBRANCH  17  18
ENDBRANCH  16  17
ENDBRANCH  15  16
ENDBRANCH   2  15
TORSDOF 10
ENDMDL
MODEL 8
REMARK VINA RESULT:      -6.7      1.494      1.927
REMARK  Name = 
REMARK  10 active torsions:
REMARK  status: ('A' for Active; 'I' for Inactive)
REMARK    1  A    between atoms: C_2  and  O_14
REMARK    2  A    between atoms: N_3  and  C_4
REMARK    3  A    between atoms: C_4  and  C_5
REMARK    4  A    between atoms: C_5  and  C_6
REMARK    5  A    between atoms: C_6  and  C_7
REMARK    6  A    between atoms: C_7  and  C_8
REMARK    7  A    between atoms: O_14  and  C_15
REMARK    8  A    between atoms: C_15  and  C_16
REMARK    9  A    between atoms: C_16  and  C_17
REMARK   10  A    between atoms: C_17  and  C_18
REMARK                            x       y       z     vdW  Elec       q    Type
REMARK                         _______ _______ _______ _____ _____    ______ ____
ROOT
ATOM      1  O   UNL     1       7.514   5.750  15.562  0.00  0.00    +0.000 OA
ATOM      2  C   UNL     1       7.107   6.074  16.677  0.00  0.00    +0.000 C 
ATOM      3  N   UNL     1       6.889   5.124  17.601  0.00  0.00    +0.000 N 
ATOM      4  H   UNL     1       7.118   4.204  17.242  0.00  0.00    +0.000 HD
ENDROOT
BRANCH   3   5
ATOM      5  C   UNL     1       6.728   5.108  19.033  0.00  0.00    +0.000 C 
BRANCH   5   6
ATOM      6  C   UNL     1       5.232   5.180  19.344  0.00  0.00    +0.000 C 
BRANCH   6   7
ATOM      7  C   UNL     1       4.500   3.886  18.973  0.00  0.00    +0.000 C 
BRANCH   7   8
ATOM      8  C   UNL     1       3.551   4.045  17.772  0.00  0.00    +0.000 C 
BRANCH   8   9
ATOM      9  C   UNL     1       2.063   4.029  18.188  0.00  0.00    +0.000 C 
ATOM     10  C   UNL     1       1.601   2.622  18.601  0.00  0.00    +0.000 C 
ATOM     11  C   UNL     1       1.914   2.306  20.055  0.00  0.00    +0.000 C 
ATOM     12  C   UNL     1       1.206   3.312  20.946  0.00  0.00    +0.000 C 
ATOM     13  C   UNL     1       1.750   4.711  20.692  0.00  0.00    +0.000 C 
ATOM     14  C   UNL     1       1.698   5.113  19.220  0.00  0.00    +0.000 C 
ENDBRANCH   8   9
ENDBRANCH   7   8
ENDBRANCH   6   7
ENDBRANCH   5   6
ENDBRANCH   3   5
BRANCH   2  15
ATOM     15  O   UNL     1       6.875   7.347  17.049  0.00  0.00    +0.000 OA
BRANCH  15  16
ATOM     16  C   UNL     1       8.068   8.133  17.194  0.00  0.00    +0.000 C 
BRANCH  16  17
ATOM     17  C   UNL     1       8.437   8.703  18.584  0.00  0.00    +0.000 C 
BRANCH  17  18
ATOM     18  C   UNL     1       8.858  10.161  18.373  0.00  0.00    +0.000 C 
BRANCH  18  19
ATOM     19  C   UNL     1       9.676  10.793  19.443  0.00  0.00    +0.000 A 
ATOM     20  C   UNL     1       9.325  11.092  20.744  0.00  0.00    +0.000 A 
ATOM     21  N   UNL     1      10.345  11.867  21.225  0.00  0.00    +0.000 N 
ATOM     22  C   UNL     1      11.268  11.996  20.228  0.00  0.00    +0.000 A 
ATOM     23  N   UNL     1      10.903  11.343  19.148  0.00  0.00    +0.000 NA
ATOM     24  H   UNL     1      10.390  12.310  22.132  0.00  0.00    +0.000 HD
ENDBRANCH  18  19
ENDBRANCH  17  18
ENDBRANCH  16  17
ENDBRANCH  15  16
ENDBRANCH   2  15
TORSDOF 10
ENDMDL
MODEL 9
REMARK VINA RESULT:      -6.7      2.752      9.504
REMARK  Name = 
REMARK  10 active torsions:
REMARK  status: ('A' for Active; 'I' for Inactive)
REMARK    1  A    between atoms: C_2  and  O_14
REMARK    2  A    between atoms: N_3  and  C_4
REMARK    3  A    between atoms: C_4  and  C_5
REMARK    4  A    between atoms: C_5  and  C_6
REMARK    5  A    between atoms: C_6  and  C_7
REMARK    6  A    between atoms: C_7  and  C_8
REMARK    7  A    between atoms: O_14  and  C_15
REMARK    8  A    between atoms: C_15  and  C_16
REMARK    9  A    between atoms: C_16  and  C_17
REMARK   10  A    between atoms: C_17  and  C_18
REMARK                            x       y       z     vdW  Elec       q    Type
REMARK                         _______ _______ _______ _____ _____    ______ ____
ROOT
ATOM      1  O   UNL     1       5.037   4.534  17.364  0.00  0.00    +0.000 OA
ATOM      2  C   UNL     1       5.122   5.761  17.387  0.00  0.00    +0.000 C 
ATOM      3  N   UNL     1       6.334   6.339  17.357  0.00  0.00    +0.000 N 
ATOM      4  H   UNL     1       7.070   5.645  17.301  0.00  0.00    +0.000 HD
ENDROOT
BRANCH   3   5
ATOM      5  C   UNL     1       6.830   7.661  17.065  0.00  0.00    +0.000 C 
BRANCH   5   6
ATOM      6  C   UNL     1       7.992   7.952  18.016  0.00  0.00    +0.000 C 
BRANCH   6   7
ATOM      7  C   UNL     1       8.392   9.432  18.006  0.00  0.00    +0.000 C 
BRANCH   7   8
ATOM      8  C   UNL     1       9.256   9.838  19.212  0.00  0.00    +0.000 C 
BRANCH   8   9
ATOM      9  C   UNL     1       9.441  11.368  19.321  0.00  0.00    +0.000 C 
ATOM     10  C   UNL     1      10.533  11.740  20.337  0.00  0.00    +0.000 C 
ATOM     11  C   UNL     1      11.929  11.708  19.735  0.00  0.00    +0.000 C 
ATOM     12  C   UNL     1      11.999  12.701  18.587  0.00  0.00    +0.000 C 
ATOM     13  C   UNL     1      11.050  12.281  17.474  0.00  0.00    +0.000 C 
ATOM     14  C   UNL     1       9.618  12.067  17.958  0.00  0.00    +0.000 C 
ENDBRANCH   8   9
ENDBRANCH   7   8
ENDBRANCH   6   7
ENDBRANCH   5   6
ENDBRANCH   3   5
BRANCH   2  15
ATOM     15  O   UNL     1       4.058   6.585  17.422  0.00  0.00    +0.000 OA
BRANCH  15  16
ATOM     16  C   UNL     1       2.905   6.013  18.059  0.00  0.00    +0.000 C 
BRANCH  16  17
ATOM     17  C   UNL     1       2.799   6.037  19.602  0.00  0.00    +0.000 C 
BRANCH  17  18
ATOM     18  C   UNL     1       1.957   4.825  20.013  0.00  0.00    +0.000 C 
BRANCH  18  19
ATOM     19  C   UNL     1       2.213   3.546  19.296  0.00  0.00    +0.000 A 
ATOM     20  C   UNL     1       1.364   2.818  18.488  0.00  0.00    +0.000 A 
ATOM     21  N   UNL     1       2.000   1.625  18.278  0.00  0.00    +0.000 N 
ATOM     22  C   UNL     1       3.194   1.674  18.938  0.00  0.00    +0.000 A 
ATOM     23  N   UNL     1       3.360   2.827  19.545  0.00  0.00    +0.000 NA
ATOM     24  H   UNL     1       1.637   0.828  17.772  0.00  0.00    +0.000 HD
ENDBRANCH  18  19
ENDBRANCH  17  18
ENDBRANCH  16  17
ENDBRANCH  15  16
ENDBRANCH   2  15
TORSDOF 10
ENDMDL
