MODEL 1
REMARK VINA RESULT:      -8.1      0.000      0.000
REMARK  Name = 
REMARK  11 active torsions:
REMARK  status: ('A' for Active; 'I' for Inactive)
REMARK    1  A    between atoms: C_1  and  C_2
REMARK    2  A    between atoms: C_2  and  C_3
REMARK    3  A    between atoms: C_2  and  C_4
REMARK    4  A    between atoms: C_6  and  N_7
REMARK    5  A    between atoms: C_13  and  C_14
REMARK    6  A    between atoms: C_17  and  C_18
REMARK    7  A    between atoms: C_18  and  O_19
REMARK    8  A    between atoms: C_18  and  C_20
REMARK    9  A    between atoms: C_20  and  O_21
REMARK   10  A    between atoms: C_29  and  O_30
REMARK   11  A    between atoms: O_30  and  C_31
REMARK                            x       y       z     vdW  Elec       q    Type
REMARK                         _______ _______ _______ _____ _____    ______ ____
ROOT
ATOM      1  N   UNL     1       2.961   7.861  18.137  0.00  0.00    +0.000 N 
ATOM      2  C   UNL     1       2.182   7.969  19.269  0.00  0.00    +0.000 C 
ATOM      3  O   UNL     1       2.221   7.163  20.199  0.00  0.00    +0.000 OA
ATOM      4  N   UNL     1       1.310   9.051  19.323  0.00  0.00    +0.000 N 
ATOM      5  C   UNL     1       0.650   9.265  20.614  0.00  0.00    +0.000 C 
ATOM      6  C   UNL     1      -0.615  10.054  20.503  0.00  0.00    +0.000 C 
ATOM      7  C   UNL     1      -1.080  10.574  19.353  0.00  0.00    +0.000 C 
ATOM      8  C   UNL     1      -0.317  10.450  18.071  0.00  0.00    +0.000 C 
ATOM      9  C   UNL     1       1.158  10.122  18.332  0.00  0.00    +0.000 C 
ATOM     10  H   UNL     1       3.136   8.707  17.623  0.00  0.00    +0.000 HD
ENDROOT
BRANCH   7  11
ATOM     11  C   UNL     1      -2.314  11.378  19.345  0.00  0.00    +0.000 A 
ATOM     12  N   UNL     1      -2.328  12.354  20.284  0.00  0.00    +0.000 NA
ATOM     13  C   UNL     1      -3.461  13.074  20.401  0.00  0.00    +0.000 A 
ATOM     14  C   UNL     1      -4.597  12.906  19.616  0.00  0.00    +0.000 A 
ATOM     15  C   UNL     1      -4.538  11.911  18.638  0.00  0.00    +0.000 A 
ATOM     16  C   UNL     1      -3.392  11.124  18.498  0.00  0.00    +0.000 A 
ATOM     17 CL   UNL     1      -3.369   9.895  17.290  0.00  0.00    +0.000 Cl
BRANCH  14  18
ATOM     18  C   UNL     1      -5.864  13.716  19.793  0.00  0.00    +0.000 C 
BRANCH  18  19
ATOM     19  O   UNL     1      -5.592  15.101  19.519  0.00  0.00    +0.000 OA
ATOM     20  H   UNL     1      -4.629  15.231  19.572  0.00  0.00    +0.000 HD
ENDBRANCH  18  19
BRANCH  18  21
ATOM     21  C   UNL     1      -6.532  13.658  21.180  0.00  0.00    +0.000 C 
BRANCH  21  22
ATOM     22  O   UNL     1      -6.784  12.305  21.555  0.00  0.00    +0.000 OA
ATOM     23  H   UNL     1      -6.025  12.034  22.108  0.00  0.00    +0.000 HD
ENDBRANCH  21  22
ENDBRANCH  18  21
ENDBRANCH  14  18
ENDBRANCH   7  11
BRANCH   1  26
ATOM     24  C   UNL     1       3.888   4.304  17.237  0.00  0.00    +0.000 A 
ATOM     25  C   UNL     1       3.211   5.427  17.776  0.00  0.00    +0.000 A 
ATOM     26  C   UNL     1       3.716   6.730  17.745  0.00  0.00    +0.000 A 
ATOM     27  C   UNL     1       4.994   6.911  17.224  0.00  0.00    +0.000 A 
ATOM     28  C   UNL     1       5.708   5.816  16.719  0.00  0.00    +0.000 A 
ATOM     29  C   UNL     1       5.167   4.515  16.694  0.00  0.00    +0.000 A 
BRANCH  24  31
ATOM     30  C   UNL     1       3.864   1.956  18.136  0.00  0.00    +0.000 C 
ATOM     31  C   UNL     1       3.126   2.978  17.256  0.00  0.00    +0.000 C 
ATOM     32  C   UNL     1       1.679   3.109  17.761  0.00  0.00    +0.000 C 
ENDBRANCH  24  31
BRANCH  29  33
ATOM     33  O   UNL     1       5.845   3.676  15.860  0.00  0.00    +0.000 OA
BRANCH  33  34
ATOM     34  C   UNL     1       6.105   3.978  14.500  0.00  0.00    +0.000 C 
ATOM     35  F   UNL     1       6.265   2.909  13.707  0.00  0.00    +0.000 F 
ATOM     36  F   UNL     1       5.050   4.689  14.034  0.00  0.00    +0.000 F 
ATOM     37  F   UNL     1       7.204   4.757  14.394  0.00  0.00    +0.000 F 
ENDBRANCH  33  34
ENDBRANCH  29  33
ENDBRANCH   1  26
TORSDOF 9
ENDMDL
MODEL 2
REMARK VINA RESULT:      -8.0      0.673      1.117
REMARK  Name = 
REMARK  11 active torsions:
REMARK  status: ('A' for Active; 'I' for Inactive)
REMARK    1  A    between atoms: C_1  and  C_2
REMARK    2  A    between atoms: C_2  and  C_3
REMARK    3  A    between atoms: C_2  and  C_4
REMARK    4  A    between atoms: C_6  and  N_7
REMARK    5  A    between atoms: C_13  and  C_14
REMARK    6  A    between atoms: C_17  and  C_18
REMARK    7  A    between atoms: C_18  and  O_19
REMARK    8  A    between atoms: C_18  and  C_20
REMARK    9  A    between atoms: C_20  and  O_21
REMARK   10  A    between atoms: C_29  and  O_30
REMARK   11  A    between atoms: O_30  and  C_31
REMARK                            x       y       z     vdW  Elec       q    Type
REMARK                         _______ _______ _______ _____ _____    ______ ____
ROOT
ATOM      1  N   UNL     1       3.228   7.785  17.910  0.00  0.00    +0.000 N 
ATOM      2  C   UNL     1       2.419   7.797  19.025  0.00  0.00    +0.000 C 
ATOM      3  O   UNL     1       2.438   6.918  19.887  0.00  0.00    +0.000 OA
ATOM      4  N   UNL     1       1.539   8.867  19.144  0.00  0.00    +0.000 N 
ATOM      5  C   UNL     1       0.843   8.972  20.430  0.00  0.00    +0.000 C 
ATOM      6  C   UNL     1      -0.424   9.762  20.349  0.00  0.00    +0.000 C 
ATOM      7  C   UNL     1      -0.861  10.372  19.234  0.00  0.00    +0.000 C 
ATOM      8  C   UNL     1      -0.064  10.357  17.967  0.00  0.00    +0.000 C 
ATOM      9  C   UNL     1       1.406  10.015  18.240  0.00  0.00    +0.000 C 
ATOM     10  H   UNL     1       3.411   8.671  17.472  0.00  0.00    +0.000 HD
ENDROOT
BRANCH   7  11
ATOM     11  C   UNL     1      -2.099  11.170  19.259  0.00  0.00    +0.000 A 
ATOM     12  N   UNL     1      -2.112  12.117  20.226  0.00  0.00    +0.000 NA
ATOM     13  C   UNL     1      -3.248  12.827  20.372  0.00  0.00    +0.000 A 
ATOM     14  C   UNL     1      -4.389  12.676  19.591  0.00  0.00    +0.000 A 
ATOM     15  C   UNL     1      -4.331  11.710  18.583  0.00  0.00    +0.000 A 
ATOM     16  C   UNL     1      -3.182  10.934  18.411  0.00  0.00    +0.000 A 
ATOM     17 CL   UNL     1      -3.161   9.742  17.168  0.00  0.00    +0.000 Cl
BRANCH  14  18
ATOM     18  C   UNL     1      -5.659  13.472  19.800  0.00  0.00    +0.000 C 
BRANCH  18  19
ATOM     19  O   UNL     1      -6.406  12.909  20.891  0.00  0.00    +0.000 OA
ATOM     20  H   UNL     1      -6.720  12.030  20.615  0.00  0.00    +0.000 HD
ENDBRANCH  18  19
BRANCH  18  21
ATOM     21  C   UNL     1      -6.621  13.562  18.600  0.00  0.00    +0.000 C 
BRANCH  21  22
ATOM     22  O   UNL     1      -6.320  14.707  17.805  0.00  0.00    +0.000 OA
ATOM     23  H   UNL     1      -5.408  14.575  17.478  0.00  0.00    +0.000 HD
ENDBRANCH  21  22
ENDBRANCH  18  21
ENDBRANCH  14  18
ENDBRANCH   7  11
BRANCH   1  26
ATOM     24  C   UNL     1       4.375   4.249  17.200  0.00  0.00    +0.000 A 
ATOM     25  C   UNL     1       3.720   5.364  17.779  0.00  0.00    +0.000 A 
ATOM     26  C   UNL     1       4.001   6.692  17.448  0.00  0.00    +0.000 A 
ATOM     27  C   UNL     1       5.041   6.925  16.553  0.00  0.00    +0.000 A 
ATOM     28  C   UNL     1       5.738   5.846  15.991  0.00  0.00    +0.000 A 
ATOM     29  C   UNL     1       5.407   4.507  16.281  0.00  0.00    +0.000 A 
BRANCH  24  31
ATOM     30  C   UNL     1       4.176   2.586  19.075  0.00  0.00    +0.000 C 
ATOM     31  C   UNL     1       3.851   2.869  17.600  0.00  0.00    +0.000 C 
ATOM     32  C   UNL     1       2.336   2.703  17.388  0.00  0.00    +0.000 C 
ENDBRANCH  24  31
BRANCH  29  33
ATOM     33  O   UNL     1       5.940   3.625  15.388  0.00  0.00    +0.000 OA
BRANCH  33  34
ATOM     34  C   UNL     1       6.036   3.891  13.999  0.00  0.00    +0.000 C 
ATOM     35  F   UNL     1       6.473   2.862  13.259  0.00  0.00    +0.000 F 
ATOM     36  F   UNL     1       4.797   4.222  13.563  0.00  0.00    +0.000 F 
ATOM     37  F   UNL     1       6.845   4.950  13.779  0.00  0.00    +0.000 F 
ENDBRANCH  33  34
ENDBRANCH  29  33
ENDBRANCH   1  26
TORSDOF 9
ENDMDL
MODEL 3
REMARK VINA RESULT:      -7.9      6.032     11.853
REMARK  Name = 
REMARK  11 active torsions:
REMARK  status: ('A' for Active; 'I' for Inactive)
REMARK    1  A    between atoms: C_1  and  C_2
REMARK    2  A    between atoms: C_2  and  C_3
REMARK    3  A    between atoms: C_2  and  C_4
REMARK    4  A    between atoms: C_6  and  N_7
REMARK    5  A    between atoms: C_13  and  C_14
REMARK    6  A    between atoms: C_17  and  C_18
REMARK    7  A    between atoms: C_18  and  O_19
REMARK    8  A    between atoms: C_18  and  C_20
REMARK    9  A    between atoms: C_20  and  O_21
REMARK   10  A    between atoms: C_29  and  O_30
REMARK   11  A    between atoms: O_30  and  C_31
REMARK                            x       y       z     vdW  Elec       q    Type
REMARK                         _______ _______ _______ _____ _____    ______ ____
ROOT
ATOM      1  N   UNL     1       0.237  11.146  20.468  0.00  0.00    +0.000 N 
ATOM      2  C   UNL     1       0.766   9.990  20.998  0.00  0.00    +0.000 C 
ATOM      3  O   UNL     1       0.874   9.784  22.207  0.00  0.00    +0.000 OA
ATOM      4  N   UNL     1       1.202   9.032  20.089  0.00  0.00    +0.000 N 
ATOM      5  C   UNL     1       1.563   7.734  20.665  0.00  0.00    +0.000 C 
ATOM      6  C   UNL     1       2.487   6.942  19.796  0.00  0.00    +0.000 C 
ATOM      7  C   UNL     1       2.903   7.339  18.581  0.00  0.00    +0.000 C 
ATOM      8  C   UNL     1       2.415   8.612  17.961  0.00  0.00    +0.000 C 
ATOM      9  C   UNL     1       1.118   9.091  18.625  0.00  0.00    +0.000 C 
ATOM     10  H   UNL     1      -0.141  11.090  19.539  0.00  0.00    +0.000 HD
ENDROOT
BRANCH   7  11
ATOM     11  C   UNL     1       3.778   6.472  17.773  0.00  0.00    +0.000 A 
ATOM     12  N   UNL     1       4.906   7.088  17.349  0.00  0.00    +0.000 NA
ATOM     13  C   UNL     1       5.714   6.389  16.528  0.00  0.00    +0.000 A 
ATOM     14  C   UNL     1       5.487   5.082  16.110  0.00  0.00    +0.000 A 
ATOM     15  C   UNL     1       4.329   4.465  16.590  0.00  0.00    +0.000 A 
ATOM     16  C   UNL     1       3.451   5.162  17.424  0.00  0.00    +0.000 A 
ATOM     17 CL   UNL     1       2.025   4.369  17.978  0.00  0.00    +0.000 Cl
BRANCH  14  18
ATOM     18  C   UNL     1       6.403   4.334  15.164  0.00  0.00    +0.000 C 
BRANCH  18  19
ATOM     19  O   UNL     1       7.537   5.157  14.841  0.00  0.00    +0.000 OA
ATOM     20  H   UNL     1       8.158   4.617  14.323  0.00  0.00    +0.000 HD
ENDBRANCH  18  19
BRANCH  18  21
ATOM     21  C   UNL     1       5.788   3.877  13.827  0.00  0.00    +0.000 C 
BRANCH  21  22
ATOM     22  O   UNL     1       6.752   3.966  12.780  0.00  0.00    +0.000 OA
ATOM     23  H   UNL     1       6.353   4.538  12.096  0.00  0.00    +0.000 HD
ENDBRANCH  21  22
ENDBRANCH  18  21
ENDBRANCH  14  18
ENDBRANCH   7  11
BRANCH   1  26
ATOM     24  C   UNL     1      -1.363  13.656  22.807  0.00  0.00    +0.000 A 
ATOM     25  C   UNL     1      -1.161  12.532  21.966  0.00  0.00    +0.000 A 
ATOM     26  C   UNL     1      -0.026  12.346  21.173  0.00  0.00    +0.000 A 
ATOM     27  C   UNL     1       0.919  13.367  21.154  0.00  0.00    +0.000 A 
ATOM     28  C   UNL     1       0.732  14.512  21.943  0.00  0.00    +0.000 A 
ATOM     29  C   UNL     1      -0.384  14.664  22.790  0.00  0.00    +0.000 A 
BRANCH  24  31
ATOM     30  C   UNL     1      -3.607  14.707  23.236  0.00  0.00    +0.000 C 
ATOM     31  C   UNL     1      -2.610  13.628  23.690  0.00  0.00    +0.000 C 
ATOM     32  C   UNL     1      -3.328  12.267  23.697  0.00  0.00    +0.000 C 
ENDBRANCH  24  31
BRANCH  29  33
ATOM     33  O   UNL     1      -0.212  15.646  23.720  0.00  0.00    +0.000 OA
BRANCH  33  34
ATOM     34  C   UNL     1      -0.620  16.988  23.515  0.00  0.00    +0.000 C 
ATOM     35  F   UNL     1      -1.297  17.532  24.536  0.00  0.00    +0.000 F 
ATOM     36  F   UNL     1       0.498  17.726  23.316  0.00  0.00    +0.000 F 
ATOM     37  F   UNL     1      -1.378  17.084  22.401  0.00  0.00    +0.000 F 
ENDBRANCH  33  34
ENDBRANCH  29  33
ENDBRANCH   1  26
TORSDOF 9
ENDMDL
MODEL 4
REMARK VINA RESULT:      -7.9      3.543      4.058
REMARK  Name = 
REMARK  11 active torsions:
REMARK  status: ('A' for Active; 'I' for Inactive)
REMARK    1  A    between atoms: C_1  and  C_2
REMARK    2  A    between atoms: C_2  and  C_3
REMARK    3  A    between atoms: C_2  and  C_4
REMARK    4  A    between atoms: C_6  and  N_7
REMARK    5  A    between atoms: C_13  and  C_14
REMARK    6  A    between atoms: C_17  and  C_18
REMARK    7  A    between atoms: C_18  and  O_19
REMARK    8  A    between atoms: C_18  and  C_20
REMARK    9  A    between atoms: C_20  and  O_21
REMARK   10  A    between atoms: C_29  and  O_30
REMARK   11  A    between atoms: O_30  and  C_31
REMARK                            x       y       z     vdW  Elec       q    Type
REMARK                         _______ _______ _______ _____ _____    ______ ____
ROOT
ATOM      1  N   UNL     1       1.964   7.976  19.035  0.00  0.00    +0.000 N 
ATOM      2  C   UNL     1       1.340   9.100  18.539  0.00  0.00    +0.000 C 
ATOM      3  O   UNL     1       1.367   9.423  17.351  0.00  0.00    +0.000 OA
ATOM      4  N   UNL     1       0.665   9.893  19.460  0.00  0.00    +0.000 N 
ATOM      5  C   UNL     1      -0.162  10.959  18.887  0.00  0.00    +0.000 C 
ATOM      6  C   UNL     1      -0.434  12.073  19.848  0.00  0.00    +0.000 C 
ATOM      7  C   UNL     1      -0.021  12.081  21.127  0.00  0.00    +0.000 C 
ATOM      8  C   UNL     1       0.712  10.919  21.723  0.00  0.00    +0.000 C 
ATOM      9  C   UNL     1       0.498   9.645  20.896  0.00  0.00    +0.000 C 
ATOM     10  H   UNL     1       1.606   7.599  19.895  0.00  0.00    +0.000 HD
ENDROOT
BRANCH   7  11
ATOM     11  C   UNL     1      -0.375  13.201  22.016  0.00  0.00    +0.000 A 
ATOM     12  N   UNL     1       0.405  14.294  21.843  0.00  0.00    +0.000 NA
ATOM     13  C   UNL     1       0.203  15.329  22.682  0.00  0.00    +0.000 A 
ATOM     14  C   UNL     1      -0.756  15.364  23.688  0.00  0.00    +0.000 A 
ATOM     15  C   UNL     1      -1.563  14.231  23.821  0.00  0.00    +0.000 A 
ATOM     16  C   UNL     1      -1.373  13.126  22.987  0.00  0.00    +0.000 A 
ATOM     17 CL   UNL     1      -2.378  11.742  23.198  0.00  0.00    +0.000 Cl
BRANCH  14  18
ATOM     18  C   UNL     1      -0.938  16.533  24.633  0.00  0.00    +0.000 C 
BRANCH  18  19
ATOM     19  O   UNL     1       0.145  17.462  24.461  0.00  0.00    +0.000 OA
ATOM     20  H   UNL     1       0.546  17.616  25.334  0.00  0.00    +0.000 HD
ENDBRANCH  18  19
BRANCH  18  21
ATOM     21  C   UNL     1      -1.007  16.201  26.136  0.00  0.00    +0.000 C 
BRANCH  21  22
ATOM     22  O   UNL     1       0.287  15.868  26.632  0.00  0.00    +0.000 OA
ATOM     23  H   UNL     1       0.854  15.748  25.845  0.00  0.00    +0.000 HD
ENDBRANCH  21  22
ENDBRANCH  18  21
ENDBRANCH  14  18
ENDBRANCH   7  11
BRANCH   1  26
ATOM     24  C   UNL     1       3.732   4.955  17.594  0.00  0.00    +0.000 A 
ATOM     25  C   UNL     1       2.901   5.778  18.396  0.00  0.00    +0.000 A 
ATOM     26  C   UNL     1       2.911   7.175  18.352  0.00  0.00    +0.000 A 
ATOM     27  C   UNL     1       3.851   7.785  17.527  0.00  0.00    +0.000 A 
ATOM     28  C   UNL     1       4.717   7.002  16.750  0.00  0.00    +0.000 A 
ATOM     29  C   UNL     1       4.658   5.594  16.751  0.00  0.00    +0.000 A 
BRANCH  24  31
ATOM     30  C   UNL     1       4.173   2.887  18.955  0.00  0.00    +0.000 C 
ATOM     31  C   UNL     1       3.496   3.448  17.693  0.00  0.00    +0.000 C 
ATOM     32  C   UNL     1       2.008   3.060  17.720  0.00  0.00    +0.000 C 
ENDBRANCH  24  31
BRANCH  29  33
ATOM     33  O   UNL     1       5.312   5.037  15.692  0.00  0.00    +0.000 OA
BRANCH  33  34
ATOM     34  C   UNL     1       6.481   4.248  15.831  0.00  0.00    +0.000 C 
ATOM     35  F   UNL     1       6.982   4.200  17.073  0.00  0.00    +0.000 F 
ATOM     36  F   UNL     1       6.164   2.984  15.460  0.00  0.00    +0.000 F 
ATOM     37  F   UNL     1       7.448   4.690  14.997  0.00  0.00    +0.000 F 
ENDBRANCH  33  34
ENDBRANCH  29  33
ENDBRANCH   1  26
TORSDOF 9
ENDMDL
MODEL 5
REMARK VINA RESULT:      -7.9      2.723      3.236
REMARK  Name = 
REMARK  11 active torsions:
REMARK  status: ('A' for Active; 'I' for Inactive)
REMARK    1  A    between atoms: C_1  and  C_2
REMARK    2  A    between atoms: C_2  and  C_3
REMARK    3  A    between atoms: C_2  and  C_4
REMARK    4  A    between atoms: C_6  and  N_7
REMARK    5  A    between atoms: C_13  and  C_14
REMARK    6  A    between atoms: C_17  and  C_18
REMARK    7  A    between atoms: C_18  and  O_19
REMARK    8  A    between atoms: C_18  and  C_20
REMARK    9  A    between atoms: C_20  and  O_21
REMARK   10  A    between atoms: C_29  and  O_30
REMARK   11  A    between atoms: O_30  and  C_31
REMARK                            x       y       z     vdW  Elec       q    Type
REMARK                         _______ _______ _______ _____ _____    ______ ____
ROOT
ATOM      1  N   UNL     1       2.136   7.403  19.017  0.00  0.00    +0.000 N 
ATOM      2  C   UNL     1       1.787   8.657  18.565  0.00  0.00    +0.000 C 
ATOM      3  O   UNL     1       2.233   9.152  17.530  0.00  0.00    +0.000 OA
ATOM      4  N   UNL     1       0.892   9.375  19.350  0.00  0.00    +0.000 N 
ATOM      5  C   UNL     1       0.376  10.608  18.750  0.00  0.00    +0.000 C 
ATOM      6  C   UNL     1      -0.133  11.585  19.762  0.00  0.00    +0.000 C 
ATOM      7  C   UNL     1      -0.175  11.346  21.084  0.00  0.00    +0.000 C 
ATOM      8  C   UNL     1       0.240  10.027  21.657  0.00  0.00    +0.000 C 
ATOM      9  C   UNL     1       0.237   8.930  20.585  0.00  0.00    +0.000 C 
ATOM     10  H   UNL     1       1.486   6.944  19.631  0.00  0.00    +0.000 HD
ENDROOT
BRANCH   7  11
ATOM     11  C   UNL     1      -0.736  12.351  22.004  0.00  0.00    +0.000 A 
ATOM     12  N   UNL     1      -1.884  11.954  22.601  0.00  0.00    +0.000 NA
ATOM     13  C   UNL     1      -2.508  12.854  23.387  0.00  0.00    +0.000 A 
ATOM     14  C   UNL     1      -2.047  14.140  23.647  0.00  0.00    +0.000 A 
ATOM     15  C   UNL     1      -0.844  14.507  23.038  0.00  0.00    +0.000 A 
ATOM     16  C   UNL     1      -0.176  13.614  22.196  0.00  0.00    +0.000 A 
ATOM     17 CL   UNL     1       1.295  14.114  21.452  0.00  0.00    +0.000 Cl
BRANCH  14  18
ATOM     18  C   UNL     1      -2.787  15.136  24.514  0.00  0.00    +0.000 C 
BRANCH  18  19
ATOM     19  O   UNL     1      -3.259  14.481  25.704  0.00  0.00    +0.000 OA
ATOM     20  H   UNL     1      -2.715  13.686  25.841  0.00  0.00    +0.000 HD
ENDBRANCH  18  19
BRANCH  18  21
ATOM     21  C   UNL     1      -4.004  15.834  23.877  0.00  0.00    +0.000 C 
BRANCH  21  22
ATOM     22  O   UNL     1      -5.217  15.277  24.379  0.00  0.00    +0.000 OA
ATOM     23  H   UNL     1      -5.375  15.709  25.241  0.00  0.00    +0.000 HD
ENDBRANCH  21  22
ENDBRANCH  18  21
ENDBRANCH  14  18
ENDBRANCH   7  11
BRANCH   1  26
ATOM     24  C   UNL     1       4.205   4.387  18.040  0.00  0.00    +0.000 A 
ATOM     25  C   UNL     1       3.230   5.214  18.654  0.00  0.00    +0.000 A 
ATOM     26  C   UNL     1       3.204   6.607  18.538  0.00  0.00    +0.000 A 
ATOM     27  C   UNL     1       4.246   7.213  17.843  0.00  0.00    +0.000 A 
ATOM     28  C   UNL     1       5.249   6.429  17.256  0.00  0.00    +0.000 A 
ATOM     29  C   UNL     1       5.234   5.021  17.323  0.00  0.00    +0.000 A 
BRANCH  24  31
ATOM     30  C   UNL     1       4.208   2.450  19.642  0.00  0.00    +0.000 C 
ATOM     31  C   UNL     1       4.002   2.879  18.180  0.00  0.00    +0.000 C 
ATOM     32  C   UNL     1       2.615   2.399  17.717  0.00  0.00    +0.000 C 
ENDBRANCH  24  31
BRANCH  29  33
ATOM     33  O   UNL     1       6.068   4.440  16.413  0.00  0.00    +0.000 OA
BRANCH  33  34
ATOM     34  C   UNL     1       5.781   4.380  15.026  0.00  0.00    +0.000 C 
ATOM     35  F   UNL     1       6.295   3.317  14.391  0.00  0.00    +0.000 F 
ATOM     36  F   UNL     1       4.433   4.335  14.892  0.00  0.00    +0.000 F 
ATOM     37  F   UNL     1       6.217   5.499  14.408  0.00  0.00    +0.000 F 
ENDBRANCH  33  34
ENDBRANCH  29  33
ENDBRANCH   1  26
TORSDOF 9
ENDMDL
MODEL 6
REMARK VINA RESULT:      -7.9      2.700      3.582
REMARK  Name = 
REMARK  11 active torsions:
REMARK  status: ('A' for Active; 'I' for Inactive)
REMARK    1  A    between atoms: C_1  and  C_2
REMARK    2  A    between atoms: C_2  and  C_3
REMARK    3  A    between atoms: C_2  and  C_4
REMARK    4  A    between atoms: C_6  and  N_7
REMARK    5  A    between atoms: C_13  and  C_14
REMARK    6  A    between atoms: C_17  and  C_18
REMARK    7  A    between atoms: C_18  and  O_19
REMARK    8  A    between atoms: C_18  and  C_20
REMARK    9  A    between atoms: C_20  and  O_21
REMARK   10  A    between atoms: C_29  and  O_30
REMARK   11  A    between atoms: O_30  and  C_31
REMARK                            x       y       z     vdW  Elec       q    Type
REMARK                         _______ _______ _______ _____ _____    ______ ____
ROOT
ATOM      1  N   UNL     1       2.305   7.797  18.872  0.00  0.00    +0.000 N 
ATOM      2  C   UNL     1       1.672   8.032  20.074  0.00  0.00    +0.000 C 
ATOM      3  O   UNL     1       1.557   7.182  20.957  0.00  0.00    +0.000 OA
ATOM      4  N   UNL     1       1.140   9.303  20.259  0.00  0.00    +0.000 N 
ATOM      5  C   UNL     1       0.662   9.596  21.613  0.00  0.00    +0.000 C 
ATOM      6  C   UNL     1      -0.341  10.705  21.655  0.00  0.00    +0.000 C 
ATOM      7  C   UNL     1      -0.728  11.411  20.579  0.00  0.00    +0.000 C 
ATOM      8  C   UNL     1      -0.127  11.176  19.228  0.00  0.00    +0.000 C 
ATOM      9  C   UNL     1       1.216  10.442  19.338  0.00  0.00    +0.000 C 
ATOM     10  H   UNL     1       2.668   8.598  18.386  0.00  0.00    +0.000 HD
ENDROOT
BRANCH   7  11
ATOM     11  C   UNL     1      -1.689  12.518  20.722  0.00  0.00    +0.000 A 
ATOM     12  N   UNL     1      -2.945  12.196  20.336  0.00  0.00    +0.000 NA
ATOM     13  C   UNL     1      -3.863  13.183  20.350  0.00  0.00    +0.000 A 
ATOM     14  C   UNL     1      -3.619  14.491  20.754  0.00  0.00    +0.000 A 
ATOM     15  C   UNL     1      -2.319  14.783  21.174  0.00  0.00    +0.000 A 
ATOM     16  C   UNL     1      -1.331  13.795  21.152  0.00  0.00    +0.000 A 
ATOM     17 CL   UNL     1       0.264  14.204  21.661  0.00  0.00    +0.000 Cl
BRANCH  14  18
ATOM     18  C   UNL     1      -4.667  15.584  20.732  0.00  0.00    +0.000 C 
BRANCH  18  19
ATOM     19  O   UNL     1      -5.574  15.358  19.640  0.00  0.00    +0.000 OA
ATOM     20  H   UNL     1      -6.480  15.437  19.984  0.00  0.00    +0.000 HD
ENDBRANCH  18  19
BRANCH  18  21
ATOM     21  C   UNL     1      -4.153  17.030  20.594  0.00  0.00    +0.000 C 
BRANCH  21  22
ATOM     22  O   UNL     1      -3.844  17.320  19.232  0.00  0.00    +0.000 OA
ATOM     23  H   UNL     1      -4.238  18.195  19.048  0.00  0.00    +0.000 HD
ENDBRANCH  21  22
ENDBRANCH  18  21
ENDBRANCH  14  18
ENDBRANCH   7  11
BRANCH   1  26
ATOM     24  C   UNL     1       4.424   4.831  17.856  0.00  0.00    +0.000 A 
ATOM     25  C   UNL     1       4.020   6.143  18.210  0.00  0.00    +0.000 A 
ATOM     26  C   UNL     1       2.687   6.534  18.360  0.00  0.00    +0.000 A 
ATOM     27  C   UNL     1       1.704   5.593  18.066  0.00  0.00    +0.000 A 
ATOM     28  C   UNL     1       2.068   4.297  17.674  0.00  0.00    +0.000 A 
ATOM     29  C   UNL     1       3.415   3.891  17.586  0.00  0.00    +0.000 A 
BRANCH  24  31
ATOM     30  C   UNL     1       6.434   4.376  16.416  0.00  0.00    +0.000 C 
ATOM     31  C   UNL     1       5.929   4.560  17.856  0.00  0.00    +0.000 C 
ATOM     32  C   UNL     1       6.753   5.671  18.528  0.00  0.00    +0.000 C 
ENDBRANCH  24  31
BRANCH  29  33
ATOM     33  O   UNL     1       3.556   2.535  17.544  0.00  0.00    +0.000 OA
BRANCH  33  34
ATOM     34  C   UNL     1       3.552   1.719  18.702  0.00  0.00    +0.000 C 
ATOM     35  F   UNL     1       4.161   2.255  19.769  0.00  0.00    +0.000 F 
ATOM     36  F   UNL     1       2.258   1.489  19.032  0.00  0.00    +0.000 F 
ATOM     37  F   UNL     1       4.125   0.525  18.437  0.00  0.00    +0.000 F 
ENDBRANCH  33  34
ENDBRANCH  29  33
ENDBRANCH   1  26
TORSDOF 9
ENDMDL
MODEL 7
REMARK VINA RESULT:      -7.8      2.774      3.541
REMARK  Name = 
REMARK  11 active torsions:
REMARK  status: ('A' for Active; 'I' for Inactive)
REMARK    1  A    between atoms: C_1  and  C_2
REMARK    2  A    between atoms: C_2  and  C_3
REMARK    3  A    between atoms: C_2  and  C_4
REMARK    4  A    between atoms: C_6  and  N_7
REMARK    5  A    between atoms: C_13  and  C_14
REMARK    6  A    between atoms: C_17  and  C_18
REMARK    7  A    between atoms: C_18  and  O_19
REMARK    8  A    between atoms: C_18  and  C_20
REMARK    9  A    between atoms: C_20  and  O_21
REMARK   10  A    between atoms: C_29  and  O_30
REMARK   11  A    between atoms: O_30  and  C_31
REMARK                            x       y       z     vdW  Elec       q    Type
REMARK                         _______ _______ _______ _____ _____    ______ ____
ROOT
ATOM      1  N   UNL     1       2.061   7.786  19.009  0.00  0.00    +0.000 N 
ATOM      2  C   UNL     1       1.745   7.958  20.339  0.00  0.00    +0.000 C 
ATOM      3  O   UNL     1       1.950   7.103  21.201  0.00  0.00    +0.000 OA
ATOM      4  N   UNL     1       1.155   9.168  20.687  0.00  0.00    +0.000 N 
ATOM      5  C   UNL     1       1.022   9.414  22.126  0.00  0.00    +0.000 C 
ATOM      6  C   UNL     1      -0.040  10.414  22.455  0.00  0.00    +0.000 C 
ATOM      7  C   UNL     1      -0.764  11.074  21.534  0.00  0.00    +0.000 C 
ATOM      8  C   UNL     1      -0.517  10.898  20.068  0.00  0.00    +0.000 C 
ATOM      9  C   UNL     1       0.874  10.307  19.806  0.00  0.00    +0.000 C 
ATOM     10  H   UNL     1       2.202   8.619  18.464  0.00  0.00    +0.000 HD
ENDROOT
BRANCH   7  11
ATOM     11  C   UNL     1      -1.759  12.078  21.949  0.00  0.00    +0.000 A 
ATOM     12  N   UNL     1      -2.438  11.734  23.069  0.00  0.00    +0.000 NA
ATOM     13  C   UNL     1      -3.430  12.558  23.462  0.00  0.00    +0.000 A 
ATOM     14  C   UNL     1      -3.786  13.738  22.818  0.00  0.00    +0.000 A 
ATOM     15  C   UNL     1      -3.047  14.078  21.682  0.00  0.00    +0.000 A 
ATOM     16  C   UNL     1      -2.025  13.241  21.227  0.00  0.00    +0.000 A 
ATOM     17 CL   UNL     1      -1.152  13.689  19.811  0.00  0.00    +0.000 Cl
BRANCH  14  18
ATOM     18  C   UNL     1      -4.925  14.627  23.270  0.00  0.00    +0.000 C 
BRANCH  18  19
ATOM     19  O   UNL     1      -4.693  15.054  24.624  0.00  0.00    +0.000 OA
ATOM     20  H   UNL     1      -5.559  15.169  25.052  0.00  0.00    +0.000 HD
ENDBRANCH  18  19
BRANCH  18  21
ATOM     21  C   UNL     1      -6.337  14.012  23.232  0.00  0.00    +0.000 C 
BRANCH  21  22
ATOM     22  O   UNL     1      -6.688  13.491  24.512  0.00  0.00    +0.000 OA
ATOM     23  H   UNL     1      -5.866  13.115  24.883  0.00  0.00    +0.000 HD
ENDBRANCH  21  22
ENDBRANCH  18  21
ENDBRANCH  14  18
ENDBRANCH   7  11
BRANCH   1  26
ATOM     24  C   UNL     1       4.128   5.042  17.420  0.00  0.00    +0.000 A 
ATOM     25  C   UNL     1       3.703   6.308  17.898  0.00  0.00    +0.000 A 
ATOM     26  C   UNL     1       2.419   6.567  18.384  0.00  0.00    +0.000 A 
ATOM     27  C   UNL     1       1.487   5.537  18.318  0.00  0.00    +0.000 A 
ATOM     28  C   UNL     1       1.860   4.283  17.813  0.00  0.00    +0.000 A 
ATOM     29  C   UNL     1       3.175   4.010  17.384  0.00  0.00    +0.000 A 
BRANCH  24  31
ATOM     30  C   UNL     1       5.748   4.770  15.516  0.00  0.00    +0.000 C 
ATOM     31  C   UNL     1       5.603   4.919  17.040  0.00  0.00    +0.000 C 
ATOM     32  C   UNL     1       6.458   6.112  17.501  0.00  0.00    +0.000 C 
ENDBRANCH  24  31
BRANCH  29  33
ATOM     33  O   UNL     1       3.427   2.674  17.271  0.00  0.00    +0.000 OA
BRANCH  33  34
ATOM     34  C   UNL     1       3.504   1.803  18.387  0.00  0.00    +0.000 C 
ATOM     35  F   UNL     1       2.320   1.457  18.912  0.00  0.00    +0.000 F 
ATOM     36  F   UNL     1       4.124   0.671  17.975  0.00  0.00    +0.000 F 
ATOM     37  F   UNL     1       4.259   2.354  19.361  0.00  0.00    +0.000 F 
ENDBRANCH  33  34
ENDBRANCH  29  33
ENDBRANCH   1  26
TORSDOF 9
ENDMDL
MODEL 8
REMARK VINA RESULT:      -7.8      5.638     11.836
REMARK  Name = 
REMARK  11 active torsions:
REMARK  status: ('A' for Active; 'I' for Inactive)
REMARK    1  A    between atoms: C_1  and  C_2
REMARK    2  A    between atoms: C_2  and  C_3
REMARK    3  A    between atoms: C_2  and  C_4
REMARK    4  A    between atoms: C_6  and  N_7
REMARK    5  A    between atoms: C_13  and  C_14
REMARK    6  A    between atoms: C_17  and  C_18
REMARK    7  A    between atoms: C_18  and  O_19
REMARK    8  A    between atoms: C_18  and  C_20
REMARK    9  A    between atoms: C_20  and  O_21
REMARK   10  A    between atoms: C_29  and  O_30
REMARK   11  A    between atoms: O_30  and  C_31
REMARK                            x       y       z     vdW  Elec       q    Type
REMARK                         _______ _______ _______ _____ _____    ______ ____
ROOT
ATOM      1  N   UNL     1      -0.034  11.401  20.079  0.00  0.00    +0.000 N 
ATOM      2  C   UNL     1       0.526  10.330  20.740  0.00  0.00    +0.000 C 
ATOM      3  O   UNL     1       0.640  10.273  21.964  0.00  0.00    +0.000 OA
ATOM      4  N   UNL     1       0.987   9.284  19.949  0.00  0.00    +0.000 N 
ATOM      5  C   UNL     1       1.383   8.073  20.674  0.00  0.00    +0.000 C 
ATOM      6  C   UNL     1       2.328   7.208  19.902  0.00  0.00    +0.000 C 
ATOM      7  C   UNL     1       2.733   7.470  18.647  0.00  0.00    +0.000 C 
ATOM      8  C   UNL     1       2.211   8.646  17.883  0.00  0.00    +0.000 C 
ATOM      9  C   UNL     1       0.901   9.166  18.490  0.00  0.00    +0.000 C 
ATOM     10  H   UNL     1      -0.411  11.225  19.164  0.00  0.00    +0.000 HD
ENDROOT
BRANCH   7  11
ATOM     11  C   UNL     1       3.631   6.536  17.945  0.00  0.00    +0.000 A 
ATOM     12  N   UNL     1       4.802   7.097  17.565  0.00  0.00    +0.000 NA
ATOM     13  C   UNL     1       5.640   6.333  16.837  0.00  0.00    +0.000 A 
ATOM     14  C   UNL     1       5.399   5.012  16.473  0.00  0.00    +0.000 A 
ATOM     15  C   UNL     1       4.194   4.454  16.906  0.00  0.00    +0.000 A 
ATOM     16  C   UNL     1       3.286   5.219  17.644  0.00  0.00    +0.000 A 
ATOM     17 CL   UNL     1       1.803   4.497  18.142  0.00  0.00    +0.000 Cl
BRANCH  14  18
ATOM     18  C   UNL     1       6.350   4.189  15.630  0.00  0.00    +0.000 C 
BRANCH  18  19
ATOM     19  O   UNL     1       7.694   4.367  16.108  0.00  0.00    +0.000 OA
ATOM     20  H   UNL     1       7.710   5.169  16.659  0.00  0.00    +0.000 HD
ENDBRANCH  18  19
BRANCH  18  21
ATOM     21  C   UNL     1       6.371   4.491  14.119  0.00  0.00    +0.000 C 
BRANCH  21  22
ATOM     22  O   UNL     1       6.395   3.279  13.369  0.00  0.00    +0.000 OA
ATOM     23  H   UNL     1       7.314   3.179  13.050  0.00  0.00    +0.000 HD
ENDBRANCH  21  22
ENDBRANCH  18  21
ENDBRANCH  14  18
ENDBRANCH   7  11
BRANCH   1  26
ATOM     24  C   UNL     1      -1.935  14.282  21.632  0.00  0.00    +0.000 A 
ATOM     25  C   UNL     1      -1.629  13.092  20.926  0.00  0.00    +0.000 A 
ATOM     26  C   UNL     1      -0.329  12.669  20.637  0.00  0.00    +0.000 A 
ATOM     27  C   UNL     1       0.716  13.513  20.999  0.00  0.00    +0.000 A 
ATOM     28  C   UNL     1       0.448  14.718  21.663  0.00  0.00    +0.000 A 
ATOM     29  C   UNL     1      -0.862  15.108  22.008  0.00  0.00    +0.000 A 
BRANCH  24  31
ATOM     30  C   UNL     1      -4.286  14.156  20.749  0.00  0.00    +0.000 C 
ATOM     31  C   UNL     1      -3.409  14.519  21.959  0.00  0.00    +0.000 C 
ATOM     32  C   UNL     1      -3.904  13.725  23.181  0.00  0.00    +0.000 C 
ENDBRANCH  24  31
BRANCH  29  33
ATOM     33  O   UNL     1      -0.889  16.102  22.942  0.00  0.00    +0.000 OA
BRANCH  33  34
ATOM     34  C   UNL     1      -0.988  15.856  24.334  0.00  0.00    +0.000 C 
ATOM     35  F   UNL     1      -0.960  14.560  24.679  0.00  0.00    +0.000 F 
ATOM     36  F   UNL     1       0.064  16.469  24.930  0.00  0.00    +0.000 F 
ATOM     37  F   UNL     1      -2.118  16.406  24.829  0.00  0.00    +0.000 F 
ENDBRANCH  33  34
ENDBRANCH  29  33
ENDBRANCH   1  26
TORSDOF 9
ENDMDL
MODEL 9
REMARK VINA RESULT:      -7.8      3.486      4.019
REMARK  Name = 
REMARK  11 active torsions:
REMARK  status: ('A' for Active; 'I' for Inactive)
REMARK    1  A    between atoms: C_1  and  C_2
REMARK    2  A    between atoms: C_2  and  C_3
REMARK    3  A    between atoms: C_2  and  C_4
REMARK    4  A    between atoms: C_6  and  N_7
REMARK    5  A    between atoms: C_13  and  C_14
REMARK    6  A    between atoms: C_17  and  C_18
REMARK    7  A    between atoms: C_18  and  O_19
REMARK    8  A    between atoms: C_18  and  C_20
REMARK    9  A    between atoms: C_20  and  O_21
REMARK   10  A    between atoms: C_29  and  O_30
REMARK   11  A    between atoms: O_30  and  C_31
REMARK                            x       y       z     vdW  Elec       q    Type
REMARK                         _______ _______ _______ _____ _____    ______ ____
ROOT
ATOM      1  N   UNL     1       1.856   7.807  19.014  0.00  0.00    +0.000 N 
ATOM      2  C   UNL     1       1.605   9.069  18.520  0.00  0.00    +0.000 C 
ATOM      3  O   UNL     1       2.000   9.457  17.420  0.00  0.00    +0.000 OA
ATOM      4  N   UNL     1       0.875   9.924  19.338  0.00  0.00    +0.000 N 
ATOM      5  C   UNL     1       0.442  11.176  18.713  0.00  0.00    +0.000 C 
ATOM      6  C   UNL     1       0.144  12.255  19.706  0.00  0.00    +0.000 C 
ATOM      7  C   UNL     1       0.204  12.090  21.038  0.00  0.00    +0.000 C 
ATOM      8  C   UNL     1       0.525  10.762  21.651  0.00  0.00    +0.000 C 
ATOM      9  C   UNL     1       0.297   9.620  20.652  0.00  0.00    +0.000 C 
ATOM     10  H   UNL     1       1.222   7.458  19.712  0.00  0.00    +0.000 HD
ENDROOT
BRANCH   7  11
ATOM     11  C   UNL     1      -0.151  13.197  21.943  0.00  0.00    +0.000 A 
ATOM     12  N   UNL     1       0.724  14.229  21.901  0.00  0.00    +0.000 NA
ATOM     13  C   UNL     1       0.518  15.242  22.767  0.00  0.00    +0.000 A 
ATOM     14  C   UNL     1      -0.534  15.313  23.674  0.00  0.00    +0.000 A 
ATOM     15  C   UNL     1      -1.435  14.245  23.670  0.00  0.00    +0.000 A 
ATOM     16  C   UNL     1      -1.246  13.164  22.805  0.00  0.00    +0.000 A 
ATOM     17 CL   UNL     1      -2.371  11.859  22.847  0.00  0.00    +0.000 Cl
BRANCH  14  18
ATOM     18  C   UNL     1      -0.721  16.453  24.652  0.00  0.00    +0.000 C 
BRANCH  18  19
ATOM     19  O   UNL     1       0.555  16.839  25.190  0.00  0.00    +0.000 OA
ATOM     20  H   UNL     1       1.216  16.750  24.481  0.00  0.00    +0.000 HD
ENDBRANCH  18  19
BRANCH  18  21
ATOM     21  C   UNL     1      -1.649  16.185  25.853  0.00  0.00    +0.000 C 
BRANCH  21  22
ATOM     22  O   UNL     1      -0.883  15.841  27.006  0.00  0.00    +0.000 OA
ATOM     23  H   UNL     1      -0.294  16.602  27.175  0.00  0.00    +0.000 HD
ENDBRANCH  21  22
ENDBRANCH  18  21
ENDBRANCH  14  18
ENDBRANCH   7  11
BRANCH   1  26
ATOM     24  C   UNL     1       3.318   4.605  17.623  0.00  0.00    +0.000 A 
ATOM     25  C   UNL     1       2.470   5.522  18.295  0.00  0.00    +0.000 A 
ATOM     26  C   UNL     1       2.779   6.871  18.490  0.00  0.00    +0.000 A 
ATOM     27  C   UNL     1       4.029   7.311  18.064  0.00  0.00    +0.000 A 
ATOM     28  C   UNL     1       4.909   6.422  17.431  0.00  0.00    +0.000 A 
ATOM     29  C   UNL     1       4.565   5.078  17.181  0.00  0.00    +0.000 A 
BRANCH  24  31
ATOM     30  C   UNL     1       3.758   2.146  17.907  0.00  0.00    +0.000 C 
ATOM     31  C   UNL     1       2.759   3.199  17.402  0.00  0.00    +0.000 C 
ATOM     32  C   UNL     1       1.403   2.962  18.090  0.00  0.00    +0.000 C 
ENDBRANCH  24  31
BRANCH  29  33
ATOM     33  O   UNL     1       5.380   4.487  16.261  0.00  0.00    +0.000 OA
BRANCH  33  34
ATOM     34  C   UNL     1       5.575   5.001  14.955  0.00  0.00    +0.000 C 
ATOM     35  F   UNL     1       5.076   6.229  14.753  0.00  0.00    +0.000 F 
ATOM     36  F   UNL     1       6.911   5.054  14.736  0.00  0.00    +0.000 F 
ATOM     37  F   UNL     1       5.042   4.166  14.037  0.00  0.00    +0.000 F 
ENDBRANCH  33  34
ENDBRANCH  29  33
ENDBRANCH   1  26
TORSDOF 9
ENDMDL
