MODEL 1
REMARK VINA RESULT:      -7.7      0.000      0.000
REMARK  Name = 
REMARK  4 active torsions:
REMARK  status: ('A' for Active; 'I' for Inactive)
REMARK    1  A    between atoms: C_5  and  C_6
REMARK    2  A    between atoms: C_6  and  O_7
REMARK    3  A    between atoms: O_7  and  C_8
REMARK    4  A    between atoms: N_11  and  C_12
REMARK                            x       y       z     vdW  Elec       q    Type
REMARK                         _______ _______ _______ _____ _____    ______ ____
ROOT
ATOM      1  C   UNL     1       7.477   6.569  17.654  0.00  0.00    +0.000 C 
ATOM      2  C   UNL     1       6.173   7.035  16.963  0.00  0.00    +0.000 C 
ATOM      3  C   UNL     1       4.884   6.763  17.742  0.00  0.00    +0.000 C 
ATOM      4  N   UNL     1       4.984   5.415  18.269  0.00  0.00    +0.000 N 
ATOM      5  C   UNL     1       5.996   5.269  19.294  0.00  0.00    +0.000 C 
ATOM      6  C   UNL     1       7.345   5.360  18.602  0.00  0.00    +0.000 C 
ENDROOT
BRANCH   4   7
ATOM      7  C   UNL     1       3.947   4.516  18.166  0.00  0.00    +0.000 A 
ATOM      8  N   UNL     1       3.982   3.545  17.216  0.00  0.00    +0.000 NA
ATOM      9  C   UNL     1       2.960   2.669  17.131  0.00  0.00    +0.000 A 
ATOM     10  N   UNL     1       1.858   2.594  17.897  0.00  0.00    +0.000 NA
ATOM     11  C   UNL     1       1.873   3.534  18.850  0.00  0.00    +0.000 A 
ATOM     12  N   UNL     1       0.901   3.688  19.800  0.00  0.00    +0.000 N 
ATOM     13  C   UNL     1       1.236   4.708  20.650  0.00  0.00    +0.000 A 
ATOM     14  C   UNL     1       2.444   5.217  20.227  0.00  0.00    +0.000 A 
ATOM     15  C   UNL     1       2.848   4.498  19.059  0.00  0.00    +0.000 A 
ATOM     16  H   UNL     1       0.075   3.109  19.856  0.00  0.00    +0.000 HD
ENDBRANCH   4   7
BRANCH   1  17
ATOM     17  O   UNL     1       8.081   7.694  18.317  0.00  0.00    +0.000 OA
BRANCH  17  18
ATOM     18  C   UNL     1       7.967   8.916  17.568  0.00  0.00    +0.000 C 
BRANCH  18  23
ATOM     19  C   UNL     1       9.860  11.051  20.088  0.00  0.00    +0.000 A 
ATOM     20  C   UNL     1       9.729  12.278  19.462  0.00  0.00    +0.000 A 
ATOM     21  N   UNL     1       9.066  12.460  18.300  0.00  0.00    +0.000 NA
ATOM     22  C   UNL     1       8.505  11.362  17.743  0.00  0.00    +0.000 A 
ATOM     23  C   UNL     1       8.571  10.082  18.298  0.00  0.00    +0.000 A 
ATOM     24  C   UNL     1       9.276   9.940  19.495  0.00  0.00    +0.000 A 
ENDBRANCH  18  23
ENDBRANCH  17  18
ENDBRANCH   1  17
TORSDOF 4
ENDMDL
MODEL 2
REMARK VINA RESULT:      -7.5      0.668      1.013
REMARK  Name = 
REMARK  4 active torsions:
REMARK  status: ('A' for Active; 'I' for Inactive)
REMARK    1  A    between atoms: C_5  and  C_6
REMARK    2  A    between atoms: C_6  and  O_7
REMARK    3  A    between atoms: O_7  and  C_8
REMARK    4  A    between atoms: N_11  and  C_12
REMARK                            x       y       z     vdW  Elec       q    Type
REMARK                         _______ _______ _______ _____ _____    ______ ____
ROOT
ATOM      1  C   UNL     1       7.603   6.610  17.702  0.00  0.00    +0.000 C 
ATOM      2  C   UNL     1       6.328   7.137  17.002  0.00  0.00    +0.000 C 
ATOM      3  C   UNL     1       5.017   6.893  17.756  0.00  0.00    +0.000 C 
ATOM      4  N   UNL     1       5.063   5.530  18.253  0.00  0.00    +0.000 N 
ATOM      5  C   UNL     1       6.053   5.325  19.289  0.00  0.00    +0.000 C 
ATOM      6  C   UNL     1       7.415   5.385  18.619  0.00  0.00    +0.000 C 
ENDROOT
BRANCH   4   7
ATOM      7  C   UNL     1       3.997   4.670  18.114  0.00  0.00    +0.000 A 
ATOM      8  N   UNL     1       3.983   3.766  17.101  0.00  0.00    +0.000 NA
ATOM      9  C   UNL     1       2.933   2.927  16.980  0.00  0.00    +0.000 A 
ATOM     10  N   UNL     1       1.845   2.833  17.764  0.00  0.00    +0.000 NA
ATOM     11  C   UNL     1       1.909   3.705  18.778  0.00  0.00    +0.000 A 
ATOM     12  N   UNL     1       0.962   3.823  19.758  0.00  0.00    +0.000 N 
ATOM     13  C   UNL     1       1.346   4.773  20.667  0.00  0.00    +0.000 A 
ATOM     14  C   UNL     1       2.559   5.274  20.251  0.00  0.00    +0.000 A 
ATOM     15  C   UNL     1       2.917   4.625  19.028  0.00  0.00    +0.000 A 
ATOM     16  H   UNL     1       0.121   3.266  19.794  0.00  0.00    +0.000 HD
ENDBRANCH   4   7
BRANCH   1  17
ATOM     17  O   UNL     1       8.236   7.698  18.399  0.00  0.00    +0.000 OA
BRANCH  17  18
ATOM     18  C   UNL     1       8.012   8.973  17.775  0.00  0.00    +0.000 C 
BRANCH  18  23
ATOM     19  C   UNL     1       9.904  12.213  18.421  0.00  0.00    +0.000 A 
ATOM     20  C   UNL     1      10.142  12.049  19.774  0.00  0.00    +0.000 A 
ATOM     21  N   UNL     1       9.747  10.967  20.480  0.00  0.00    +0.000 NA
ATOM     22  C   UNL     1       9.087  10.005  19.795  0.00  0.00    +0.000 A 
ATOM     23  C   UNL     1       8.806  10.068  18.429  0.00  0.00    +0.000 A 
ATOM     24  C   UNL     1       9.224  11.210  17.743  0.00  0.00    +0.000 A 
ENDBRANCH  18  23
ENDBRANCH  17  18
ENDBRANCH   1  17
TORSDOF 4
ENDMDL
MODEL 3
REMARK VINA RESULT:      -7.2      4.967      7.457
REMARK  Name = 
REMARK  4 active torsions:
REMARK  status: ('A' for Active; 'I' for Inactive)
REMARK    1  A    between atoms: C_5  and  C_6
REMARK    2  A    between atoms: C_6  and  O_7
REMARK    3  A    between atoms: O_7  and  C_8
REMARK    4  A    between atoms: N_11  and  C_12
REMARK                            x       y       z     vdW  Elec       q    Type
REMARK                         _______ _______ _______ _____ _____    ______ ____
ROOT
ATOM      1  C   UNL     1       1.421   9.133  19.803  0.00  0.00    +0.000 C 
ATOM      2  C   UNL     1       1.995   8.867  18.391  0.00  0.00    +0.000 C 
ATOM      3  C   UNL     1       2.039   7.396  17.967  0.00  0.00    +0.000 C 
ATOM      4  N   UNL     1       2.531   6.642  19.104  0.00  0.00    +0.000 N 
ATOM      5  C   UNL     1       1.608   6.611  20.219  0.00  0.00    +0.000 C 
ATOM      6  C   UNL     1       1.605   8.001  20.832  0.00  0.00    +0.000 C 
ENDROOT
BRANCH   4   7
ATOM      7  C   UNL     1       3.514   5.688  18.973  0.00  0.00    +0.000 A 
ATOM      8  N   UNL     1       4.782   5.960  19.379  0.00  0.00    +0.000 NA
ATOM      9  C   UNL     1       5.734   5.013  19.247  0.00  0.00    +0.000 A 
ATOM     10  N   UNL     1       5.608   3.765  18.764  0.00  0.00    +0.000 NA
ATOM     11  C   UNL     1       4.341   3.512  18.415  0.00  0.00    +0.000 A 
ATOM     12  N   UNL     1       3.899   2.316  17.919  0.00  0.00    +0.000 N 
ATOM     13  C   UNL     1       2.548   2.370  17.704  0.00  0.00    +0.000 A 
ATOM     14  C   UNL     1       2.124   3.629  18.064  0.00  0.00    +0.000 A 
ATOM     15  C   UNL     1       3.263   4.381  18.490  0.00  0.00    +0.000 A 
ATOM     16  H   UNL     1       4.499   1.518  17.761  0.00  0.00    +0.000 HD
ENDBRANCH   4   7
BRANCH   1  17
ATOM     17  O   UNL     1       0.039   9.514  19.681  0.00  0.00    +0.000 OA
BRANCH  17  18
ATOM     18  C   UNL     1      -0.147  10.715  18.913  0.00  0.00    +0.000 C 
BRANCH  18  23
ATOM     19  C   UNL     1      -3.058   9.924  16.590  0.00  0.00    +0.000 A 
ATOM     20  C   UNL     1      -3.991  10.798  17.121  0.00  0.00    +0.000 A 
ATOM     21  N   UNL     1      -3.740  11.624  18.159  0.00  0.00    +0.000 NA
ATOM     22  C   UNL     1      -2.495  11.575  18.685  0.00  0.00    +0.000 A 
ATOM     23  C   UNL     1      -1.480  10.738  18.218  0.00  0.00    +0.000 A 
ATOM     24  C   UNL     1      -1.788   9.893  17.151  0.00  0.00    +0.000 A 
ENDBRANCH  18  23
ENDBRANCH  17  18
ENDBRANCH   1  17
TORSDOF 4
ENDMDL
MODEL 4
REMARK VINA RESULT:      -7.2      3.327      5.423
REMARK  Name = 
REMARK  4 active torsions:
REMARK  status: ('A' for Active; 'I' for Inactive)
REMARK    1  A    between atoms: C_5  and  C_6
REMARK    2  A    between atoms: C_6  and  O_7
REMARK    3  A    between atoms: O_7  and  C_8
REMARK    4  A    between atoms: N_11  and  C_12
REMARK                            x       y       z     vdW  Elec       q    Type
REMARK                         _______ _______ _______ _____ _____    ______ ____
ROOT
ATOM      1  C   UNL     1       6.669   6.640  17.360  0.00  0.00    +0.000 C 
ATOM      2  C   UNL     1       6.721   5.545  18.451  0.00  0.00    +0.000 C 
ATOM      3  C   UNL     1       5.545   4.564  18.454  0.00  0.00    +0.000 C 
ATOM      4  N   UNL     1       4.338   5.350  18.271  0.00  0.00    +0.000 N 
ATOM      5  C   UNL     1       4.233   5.949  16.957  0.00  0.00    +0.000 C 
ATOM      6  C   UNL     1       5.261   7.065  16.894  0.00  0.00    +0.000 C 
ENDROOT
BRANCH   4   7
ATOM      7  C   UNL     1       3.222   5.159  19.053  0.00  0.00    +0.000 A 
ATOM      8  N   UNL     1       2.813   6.138  19.901  0.00  0.00    +0.000 NA
ATOM      9  C   UNL     1       1.714   5.938  20.658  0.00  0.00    +0.000 A 
ATOM     10  N   UNL     1       0.907   4.864  20.691  0.00  0.00    +0.000 NA
ATOM     11  C   UNL     1       1.309   3.936  19.814  0.00  0.00    +0.000 A 
ATOM     12  N   UNL     1       0.670   2.746  19.598  0.00  0.00    +0.000 N 
ATOM     13  C   UNL     1       1.308   2.045  18.609  0.00  0.00    +0.000 A 
ATOM     14  C   UNL     1       2.380   2.803  18.194  0.00  0.00    +0.000 A 
ATOM     15  C   UNL     1       2.413   3.999  18.976  0.00  0.00    +0.000 A 
ATOM     16  H   UNL     1      -0.161   2.458  20.095  0.00  0.00    +0.000 HD
ENDBRANCH   4   7
BRANCH   1  17
ATOM     17  O   UNL     1       7.489   6.233  16.250  0.00  0.00    +0.000 OA
BRANCH  17  18
ATOM     18  C   UNL     1       7.445   4.816  16.009  0.00  0.00    +0.000 C 
BRANCH  18  23
ATOM     19  C   UNL     1       5.634   3.537  12.914  0.00  0.00    +0.000 A 
ATOM     20  C   UNL     1       6.453   4.096  11.948  0.00  0.00    +0.000 A 
ATOM     21  N   UNL     1       7.545   4.839  12.228  0.00  0.00    +0.000 NA
ATOM     22  C   UNL     1       7.832   5.026  13.537  0.00  0.00    +0.000 A 
ATOM     23  C   UNL     1       7.078   4.498  14.587  0.00  0.00    +0.000 A 
ATOM     24  C   UNL     1       5.951   3.745  14.250  0.00  0.00    +0.000 A 
ENDBRANCH  18  23
ENDBRANCH  17  18
ENDBRANCH   1  17
TORSDOF 4
ENDMDL
MODEL 5
REMARK VINA RESULT:      -7.1      1.266      1.493
REMARK  Name = 
REMARK  4 active torsions:
REMARK  status: ('A' for Active; 'I' for Inactive)
REMARK    1  A    between atoms: C_5  and  C_6
REMARK    2  A    between atoms: C_6  and  O_7
REMARK    3  A    between atoms: O_7  and  C_8
REMARK    4  A    between atoms: N_11  and  C_12
REMARK                            x       y       z     vdW  Elec       q    Type
REMARK                         _______ _______ _______ _____ _____    ______ ____
ROOT
ATOM      1  C   UNL     1       7.262   6.764  17.091  0.00  0.00    +0.000 C 
ATOM      2  C   UNL     1       5.808   6.643  16.574  0.00  0.00    +0.000 C 
ATOM      3  C   UNL     1       4.758   6.318  17.639  0.00  0.00    +0.000 C 
ATOM      4  N   UNL     1       5.317   5.276  18.481  0.00  0.00    +0.000 N 
ATOM      5  C   UNL     1       6.437   5.722  19.283  0.00  0.00    +0.000 C 
ATOM      6  C   UNL     1       7.608   5.925  18.337  0.00  0.00    +0.000 C 
ENDROOT
BRANCH   4   7
ATOM      7  C   UNL     1       4.593   4.161  18.835  0.00  0.00    +0.000 A 
ATOM      8  N   UNL     1       5.158   3.206  19.619  0.00  0.00    +0.000 NA
ATOM      9  C   UNL     1       4.434   2.120  19.960  0.00  0.00    +0.000 A 
ATOM     10  N   UNL     1       3.161   1.831  19.641  0.00  0.00    +0.000 NA
ATOM     11  C   UNL     1       2.618   2.810  18.907  0.00  0.00    +0.000 A 
ATOM     12  N   UNL     1       1.326   2.814  18.457  0.00  0.00    +0.000 N 
ATOM     13  C   UNL     1       1.072   3.975  17.776  0.00  0.00    +0.000 A 
ATOM     14  C   UNL     1       2.229   4.720  17.787  0.00  0.00    +0.000 A 
ATOM     15  C   UNL     1       3.235   3.976  18.479  0.00  0.00    +0.000 A 
ATOM     16  H   UNL     1       0.669   2.066  18.631  0.00  0.00    +0.000 HD
ENDBRANCH   4   7
BRANCH   1  17
ATOM     17  O   UNL     1       7.573   8.154  17.289  0.00  0.00    +0.000 OA
BRANCH  17  18
ATOM     18  C   UNL     1       8.444   8.381  18.410  0.00  0.00    +0.000 C 
BRANCH  18  23
ATOM     19  C   UNL     1       9.815  11.672  19.747  0.00  0.00    +0.000 A 
ATOM     20  C   UNL     1       9.337  12.513  18.758  0.00  0.00    +0.000 A 
ATOM     21  N   UNL     1       8.599  12.094  17.707  0.00  0.00    +0.000 NA
ATOM     22  C   UNL     1       8.324  10.771  17.649  0.00  0.00    +0.000 A 
ATOM     23  C   UNL     1       8.750   9.840  18.599  0.00  0.00    +0.000 A 
ATOM     24  C   UNL     1       9.520  10.318  19.661  0.00  0.00    +0.000 A 
ENDBRANCH  18  23
ENDBRANCH  17  18
ENDBRANCH   1  17
TORSDOF 4
ENDMDL
MODEL 6
REMARK VINA RESULT:      -7.1      4.332      6.682
REMARK  Name = 
REMARK  4 active torsions:
REMARK  status: ('A' for Active; 'I' for Inactive)
REMARK    1  A    between atoms: C_5  and  C_6
REMARK    2  A    between atoms: C_6  and  O_7
REMARK    3  A    between atoms: O_7  and  C_8
REMARK    4  A    between atoms: N_11  and  C_12
REMARK                            x       y       z     vdW  Elec       q    Type
REMARK                         _______ _______ _______ _____ _____    ______ ____
ROOT
ATOM      1  C   UNL     1       1.755   4.446  18.667  0.00  0.00    +0.000 C 
ATOM      2  C   UNL     1       2.126   5.761  17.942  0.00  0.00    +0.000 C 
ATOM      3  C   UNL     1       2.738   6.849  18.828  0.00  0.00    +0.000 C 
ATOM      4  N   UNL     1       1.955   6.890  20.049  0.00  0.00    +0.000 N 
ATOM      5  C   UNL     1       2.106   5.708  20.871  0.00  0.00    +0.000 C 
ATOM      6  C   UNL     1       1.384   4.577  20.158  0.00  0.00    +0.000 C 
ENDROOT
BRANCH   4   7
ATOM      7  C   UNL     1       1.515   8.076  20.591  0.00  0.00    +0.000 A 
ATOM      8  N   UNL     1       1.493   8.239  21.939  0.00  0.00    +0.000 NA
ATOM      9  C   UNL     1       1.061   9.409  22.455  0.00  0.00    +0.000 A 
ATOM     10  N   UNL     1       0.644  10.506  21.802  0.00  0.00    +0.000 NA
ATOM     11  C   UNL     1       0.720  10.331  20.477  0.00  0.00    +0.000 A 
ATOM     12  N   UNL     1       0.392  11.284  19.551  0.00  0.00    +0.000 N 
ATOM     13  C   UNL     1       0.622  10.806  18.288  0.00  0.00    +0.000 A 
ATOM     14  C   UNL     1       1.100   9.521  18.414  0.00  0.00    +0.000 A 
ATOM     15  C   UNL     1       1.138   9.192  19.805  0.00  0.00    +0.000 A 
ATOM     16  H   UNL     1       0.050  12.203  19.789  0.00  0.00    +0.000 HD
ENDBRANCH   4   7
BRANCH   1  17
ATOM     17  O   UNL     1       2.812   3.490  18.470  0.00  0.00    +0.000 OA
BRANCH  17  18
ATOM     18  C   UNL     1       3.451   3.614  17.188  0.00  0.00    +0.000 C 
BRANCH  18  23
ATOM     19  C   UNL     1       7.065   4.506  16.393  0.00  0.00    +0.000 A 
ATOM     20  C   UNL     1       7.514   4.728  17.683  0.00  0.00    +0.000 A 
ATOM     21  N   UNL     1       6.737   4.598  18.781  0.00  0.00    +0.000 NA
ATOM     22  C   UNL     1       5.454   4.223  18.574  0.00  0.00    +0.000 A 
ATOM     23  C   UNL     1       4.906   3.965  17.316  0.00  0.00    +0.000 A 
ATOM     24  C   UNL     1       5.744   4.123  16.210  0.00  0.00    +0.000 A 
ENDBRANCH  18  23
ENDBRANCH  17  18
ENDBRANCH   1  17
TORSDOF 4
ENDMDL
MODEL 7
REMARK VINA RESULT:      -7.1      4.935      7.456
REMARK  Name = 
REMARK  4 active torsions:
REMARK  status: ('A' for Active; 'I' for Inactive)
REMARK    1  A    between atoms: C_5  and  C_6
REMARK    2  A    between atoms: C_6  and  O_7
REMARK    3  A    between atoms: O_7  and  C_8
REMARK    4  A    between atoms: N_11  and  C_12
REMARK                            x       y       z     vdW  Elec       q    Type
REMARK                         _______ _______ _______ _____ _____    ______ ____
ROOT
ATOM      1  C   UNL     1       1.589   8.914  19.756  0.00  0.00    +0.000 C 
ATOM      2  C   UNL     1       2.066   8.320  18.409  0.00  0.00    +0.000 C 
ATOM      3  C   UNL     1       1.917   6.802  18.272  0.00  0.00    +0.000 C 
ATOM      4  N   UNL     1       2.365   6.217  19.522  0.00  0.00    +0.000 N 
ATOM      5  C   UNL     1       1.493   6.509  20.641  0.00  0.00    +0.000 C 
ATOM      6  C   UNL     1       1.681   7.979  20.978  0.00  0.00    +0.000 C 
ENDROOT
BRANCH   4   7
ATOM      7  C   UNL     1       3.221   5.141  19.556  0.00  0.00    +0.000 A 
ATOM      8  N   UNL     1       2.835   3.986  20.157  0.00  0.00    +0.000 NA
ATOM      9  C   UNL     1       3.685   2.938  20.178  0.00  0.00    +0.000 A 
ATOM     10  N   UNL     1       4.917   2.851  19.650  0.00  0.00    +0.000 NA
ATOM     11  C   UNL     1       5.252   3.988  19.027  0.00  0.00    +0.000 A 
ATOM     12  N   UNL     1       6.434   4.190  18.369  0.00  0.00    +0.000 N 
ATOM     13  C   UNL     1       6.446   5.438  17.804  0.00  0.00    +0.000 A 
ATOM     14  C   UNL     1       5.249   6.044  18.117  0.00  0.00    +0.000 A 
ATOM     15  C   UNL     1       4.489   5.142  18.925  0.00  0.00    +0.000 A 
ATOM     16  H   UNL     1       7.166   3.498  18.306  0.00  0.00    +0.000 HD
ENDBRANCH   4   7
BRANCH   1  17
ATOM     17  O   UNL     1       0.258   9.434  19.591  0.00  0.00    +0.000 OA
BRANCH  17  18
ATOM     18  C   UNL     1       0.169  10.436  18.564  0.00  0.00    +0.000 C 
BRANCH  18  23
ATOM     19  C   UNL     1      -3.114  10.013  16.684  0.00  0.00    +0.000 A 
ATOM     20  C   UNL     1      -3.862  10.965  17.355  0.00  0.00    +0.000 A 
ATOM     21  N   UNL     1      -3.377  11.733  18.354  0.00  0.00    +0.000 NA
ATOM     22  C   UNL     1      -2.081  11.541  18.691  0.00  0.00    +0.000 A 
ATOM     23  C   UNL     1      -1.239  10.616  18.072  0.00  0.00    +0.000 A 
ATOM     24  C   UNL     1      -1.787   9.836  17.052  0.00  0.00    +0.000 A 
ENDBRANCH  18  23
ENDBRANCH  17  18
ENDBRANCH   1  17
TORSDOF 4
ENDMDL
MODEL 8
REMARK VINA RESULT:      -7.0      3.359      5.549
REMARK  Name = 
REMARK  4 active torsions:
REMARK  status: ('A' for Active; 'I' for Inactive)
REMARK    1  A    between atoms: C_5  and  C_6
REMARK    2  A    between atoms: C_6  and  O_7
REMARK    3  A    between atoms: O_7  and  C_8
REMARK    4  A    between atoms: N_11  and  C_12
REMARK                            x       y       z     vdW  Elec       q    Type
REMARK                         _______ _______ _______ _____ _____    ______ ____
ROOT
ATOM      1  C   UNL     1       6.755   6.503  17.349  0.00  0.00    +0.000 C 
ATOM      2  C   UNL     1       6.724   5.255  18.263  0.00  0.00    +0.000 C 
ATOM      3  C   UNL     1       5.444   4.417  18.187  0.00  0.00    +0.000 C 
ATOM      4  N   UNL     1       4.329   5.346  18.190  0.00  0.00    +0.000 N 
ATOM      5  C   UNL     1       4.242   6.146  16.986  0.00  0.00    +0.000 C 
ATOM      6  C   UNL     1       5.388   7.142  17.031  0.00  0.00    +0.000 C 
ENDROOT
BRANCH   4   7
ATOM      7  C   UNL     1       3.230   5.160  18.996  0.00  0.00    +0.000 A 
ATOM      8  N   UNL     1       2.857   6.131  19.870  0.00  0.00    +0.000 NA
ATOM      9  C   UNL     1       1.775   5.935  20.651  0.00  0.00    +0.000 A 
ATOM     10  N   UNL     1       0.952   4.873  20.687  0.00  0.00    +0.000 NA
ATOM     11  C   UNL     1       1.318   3.954  19.785  0.00  0.00    +0.000 A 
ATOM     12  N   UNL     1       0.655   2.777  19.567  0.00  0.00    +0.000 N 
ATOM     13  C   UNL     1       1.257   2.083  18.552  0.00  0.00    +0.000 A 
ATOM     14  C   UNL     1       2.330   2.831  18.121  0.00  0.00    +0.000 A 
ATOM     15  C   UNL     1       2.401   4.014  18.921  0.00  0.00    +0.000 A 
ATOM     16  H   UNL     1      -0.167   2.494  20.080  0.00  0.00    +0.000 HD
ENDBRANCH   4   7
BRANCH   1  17
ATOM     17  O   UNL     1       7.479   6.183  16.148  0.00  0.00    +0.000 OA
BRANCH  17  18
ATOM     18  C   UNL     1       7.479   4.777  15.848  0.00  0.00    +0.000 C 
BRANCH  18  23
ATOM     19  C   UNL     1       7.140   4.427  12.072  0.00  0.00    +0.000 A 
ATOM     20  C   UNL     1       5.899   3.816  12.031  0.00  0.00    +0.000 A 
ATOM     21  N   UNL     1       5.168   3.525  13.129  0.00  0.00    +0.000 NA
ATOM     22  C   UNL     1       5.705   3.867  14.322  0.00  0.00    +0.000 A 
ATOM     23  C   UNL     1       6.943   4.495  14.473  0.00  0.00    +0.000 A 
ATOM     24  C   UNL     1       7.667   4.767  13.310  0.00  0.00    +0.000 A 
ENDBRANCH  18  23
ENDBRANCH  17  18
ENDBRANCH   1  17
TORSDOF 4
ENDMDL
MODEL 9
REMARK VINA RESULT:      -7.0      4.900      7.464
REMARK  Name = 
REMARK  4 active torsions:
REMARK  status: ('A' for Active; 'I' for Inactive)
REMARK    1  A    between atoms: C_5  and  C_6
REMARK    2  A    between atoms: C_6  and  O_7
REMARK    3  A    between atoms: O_7  and  C_8
REMARK    4  A    between atoms: N_11  and  C_12
REMARK                            x       y       z     vdW  Elec       q    Type
REMARK                         _______ _______ _______ _____ _____    ______ ____
ROOT
ATOM      1  C   UNL     1       1.605   8.919  19.772  0.00  0.00    +0.000 C 
ATOM      2  C   UNL     1       2.130   8.351  18.432  0.00  0.00    +0.000 C 
ATOM      3  C   UNL     1       1.973   6.838  18.254  0.00  0.00    +0.000 C 
ATOM      4  N   UNL     1       2.366   6.222  19.507  0.00  0.00    +0.000 N 
ATOM      5  C   UNL     1       1.454   6.497  20.597  0.00  0.00    +0.000 C 
ATOM      6  C   UNL     1       1.641   7.956  20.975  0.00  0.00    +0.000 C 
ENDROOT
BRANCH   4   7
ATOM      7  C   UNL     1       3.211   5.137  19.549  0.00  0.00    +0.000 A 
ATOM      8  N   UNL     1       2.804   3.983  20.139  0.00  0.00    +0.000 NA
ATOM      9  C   UNL     1       3.643   2.927  20.170  0.00  0.00    +0.000 A 
ATOM     10  N   UNL     1       4.884   2.830  19.661  0.00  0.00    +0.000 NA
ATOM     11  C   UNL     1       5.239   3.966  19.048  0.00  0.00    +0.000 A 
ATOM     12  N   UNL     1       6.433   4.159  18.409  0.00  0.00    +0.000 N 
ATOM     13  C   UNL     1       6.466   5.409  17.849  0.00  0.00    +0.000 A 
ATOM     14  C   UNL     1       5.271   6.025  18.147  0.00  0.00    +0.000 A 
ATOM     15  C   UNL     1       4.489   5.128  18.939  0.00  0.00    +0.000 A 
ATOM     16  H   UNL     1       7.159   3.460  18.354  0.00  0.00    +0.000 HD
ENDBRANCH   4   7
BRANCH   1  17
ATOM     17  O   UNL     1       0.286   9.456  19.566  0.00  0.00    +0.000 OA
BRANCH  17  18
ATOM     18  C   UNL     1       0.111  10.036  18.263  0.00  0.00    +0.000 C 
BRANCH  18  23
ATOM     19  C   UNL     1      -3.335  11.645  18.438  0.00  0.00    +0.000 A 
ATOM     20  C   UNL     1      -3.896  11.056  17.319  0.00  0.00    +0.000 A 
ATOM     21  N   UNL     1      -3.246  10.175  16.528  0.00  0.00    +0.000 NA
ATOM     22  C   UNL     1      -1.977   9.867  16.880  0.00  0.00    +0.000 A 
ATOM     23  C   UNL     1      -1.322  10.396  17.994  0.00  0.00    +0.000 A 
ATOM     24  C   UNL     1      -2.030  11.311  18.776  0.00  0.00    +0.000 A 
ENDBRANCH  18  23
ENDBRANCH  17  18
ENDBRANCH   1  17
TORSDOF 4
ENDMDL
