MODEL 1
REMARK VINA RESULT:      -7.7      0.000      0.000
REMARK  Name = 
REMARK  5 active torsions:
REMARK  status: ('A' for Active; 'I' for Inactive)
REMARK    1  A    between atoms: C_1  and  C_2
REMARK    2  A    between atoms: C_2  and  C_3
REMARK    3  A    between atoms: C_3  and  C_4
REMARK    4  A    between atoms: N_6  and  C_7
REMARK    5  A    between atoms: C_12  and  C_13
REMARK                            x       y       z     vdW  Elec       q    Type
REMARK                         _______ _______ _______ _____ _____    ______ ____
ROOT
ATOM      1  C   UNL     1       2.551   6.187  19.777  0.00  0.00    +0.000 A 
ATOM      2  N   UNL     1       1.943   5.480  20.748  0.00  0.00    +0.000 NA
ATOM      3  N   UNL     1       2.515   4.252  20.676  0.00  0.00    +0.000 N 
ATOM      4  C   UNL     1       2.125   3.225  21.612  0.00  0.00    +0.000 C 
ATOM      5  C   UNL     1       3.436   4.153  19.679  0.00  0.00    +0.000 A 
ATOM      6  C   UNL     1       4.250   3.075  19.250  0.00  0.00    +0.000 A 
ATOM      7  O   UNL     1       4.274   1.956  19.745  0.00  0.00    +0.000 OA
ATOM      8  N   UNL     1       5.039   3.434  18.182  0.00  0.00    +0.000 N 
ATOM      9  C   UNL     1       5.050   4.710  17.626  0.00  0.00    +0.000 A 
ATOM     10  N   UNL     1       4.309   5.705  18.027  0.00  0.00    +0.000 NA
ATOM     11  C   UNL     1       3.474   5.383  19.095  0.00  0.00    +0.000 A 
ATOM     12  H   UNL     1       5.655   2.723  17.810  0.00  0.00    +0.000 HD
ENDROOT
BRANCH   9  13
ATOM     13  C   UNL     1       5.971   4.899  16.532  0.00  0.00    +0.000 A 
ATOM     14  N   UNL     1       6.842   5.882  16.408  0.00  0.00    +0.000 NA
ATOM     15  N   UNL     1       7.484   5.674  15.204  0.00  0.00    +0.000 NA
ATOM     16  C   UNL     1       6.955   4.587  14.689  0.00  0.00    +0.000 A 
ATOM     17  O   UNL     1       5.992   4.032  15.470  0.00  0.00    +0.000 OA
ENDBRANCH   9  13
BRANCH   1  18
ATOM     18  C   UNL     1       2.215   7.618  19.533  0.00  0.00    +0.000 C 
BRANCH  18  20
ATOM     19  C   UNL     1       1.695   9.395  17.822  0.00  0.00    +0.000 C 
ATOM     20  C   UNL     1       2.108   7.949  18.044  0.00  0.00    +0.000 C 
ENDBRANCH  18  20
ENDBRANCH   1  18
TORSDOF 3
ENDMDL
MODEL 2
REMARK VINA RESULT:      -7.6      1.014      1.139
REMARK  Name = 
REMARK  5 active torsions:
REMARK  status: ('A' for Active; 'I' for Inactive)
REMARK    1  A    between atoms: C_1  and  C_2
REMARK    2  A    between atoms: C_2  and  C_3
REMARK    3  A    between atoms: C_3  and  C_4
REMARK    4  A    between atoms: N_6  and  C_7
REMARK    5  A    between atoms: C_12  and  C_13
REMARK                            x       y       z     vdW  Elec       q    Type
REMARK                         _______ _______ _______ _____ _____    ______ ____
ROOT
ATOM      1  C   UNL     1       2.715   6.866  18.654  0.00  0.00    +0.000 A 
ATOM      2  N   UNL     1       2.170   6.396  19.792  0.00  0.00    +0.000 NA
ATOM      3  N   UNL     1       2.830   5.233  20.022  0.00  0.00    +0.000 N 
ATOM      4  C   UNL     1       2.526   4.459  21.202  0.00  0.00    +0.000 C 
ATOM      5  C   UNL     1       3.745   4.940  19.058  0.00  0.00    +0.000 A 
ATOM      6  C   UNL     1       4.630   3.846  18.898  0.00  0.00    +0.000 A 
ATOM      7  O   UNL     1       4.741   2.897  19.664  0.00  0.00    +0.000 OA
ATOM      8  N   UNL     1       5.379   3.968  17.751  0.00  0.00    +0.000 N 
ATOM      9  C   UNL     1       5.291   5.054  16.884  0.00  0.00    +0.000 A 
ATOM     10  N   UNL     1       4.484   6.067  17.037  0.00  0.00    +0.000 NA
ATOM     11  C   UNL     1       3.687   5.977  18.176  0.00  0.00    +0.000 A 
ATOM     12  H   UNL     1       6.042   3.228  17.556  0.00  0.00    +0.000 HD
ENDROOT
BRANCH   9  13
ATOM     13  C   UNL     1       6.183   5.015  15.752  0.00  0.00    +0.000 A 
ATOM     14  N   UNL     1       7.325   5.665  15.636  0.00  0.00    +0.000 NA
ATOM     15  N   UNL     1       7.819   5.351  14.387  0.00  0.00    +0.000 NA
ATOM     16  C   UNL     1       6.945   4.539  13.839  0.00  0.00    +0.000 A 
ATOM     17  O   UNL     1       5.880   4.271  14.640  0.00  0.00    +0.000 OA
ENDBRANCH   9  13
BRANCH   1  18
ATOM     18  C   UNL     1       2.273   8.159  18.059  0.00  0.00    +0.000 C 
BRANCH  18  20
ATOM     19  C   UNL     1       0.409   9.838  18.305  0.00  0.00    +0.000 C 
ATOM     20  C   UNL     1       1.447   9.000  19.034  0.00  0.00    +0.000 C 
ENDBRANCH  18  20
ENDBRANCH   1  18
TORSDOF 3
ENDMDL
MODEL 3
REMARK VINA RESULT:      -7.4      1.007      1.017
REMARK  Name = 
REMARK  5 active torsions:
REMARK  status: ('A' for Active; 'I' for Inactive)
REMARK    1  A    between atoms: C_1  and  C_2
REMARK    2  A    between atoms: C_2  and  C_3
REMARK    3  A    between atoms: C_3  and  C_4
REMARK    4  A    between atoms: N_6  and  C_7
REMARK    5  A    between atoms: C_12  and  C_13
REMARK                            x       y       z     vdW  Elec       q    Type
REMARK                         _______ _______ _______ _____ _____    ______ ____
ROOT
ATOM      1  C   UNL     1       2.725   6.220  18.952  0.00  0.00    +0.000 A 
ATOM      2  N   UNL     1       1.986   5.521  19.834  0.00  0.00    +0.000 NA
ATOM      3  N   UNL     1       2.337   4.229  19.615  0.00  0.00    +0.000 N 
ATOM      4  C   UNL     1       1.758   3.183  20.422  0.00  0.00    +0.000 C 
ATOM      5  C   UNL     1       3.246   4.089  18.611  0.00  0.00    +0.000 A 
ATOM      6  C   UNL     1       3.869   2.944  18.055  0.00  0.00    +0.000 A 
ATOM      7  O   UNL     1       3.689   1.787  18.413  0.00  0.00    +0.000 OA
ATOM      8  N   UNL     1       4.728   3.282  17.036  0.00  0.00    +0.000 N 
ATOM      9  C   UNL     1       4.970   4.594  16.636  0.00  0.00    +0.000 A 
ATOM     10  N   UNL     1       4.405   5.648  17.154  0.00  0.00    +0.000 NA
ATOM     11  C   UNL     1       3.508   5.353  18.178  0.00  0.00    +0.000 A 
ATOM     12  H   UNL     1       5.218   2.523  16.580  0.00  0.00    +0.000 HD
ENDROOT
BRANCH   9  13
ATOM     13  C   UNL     1       5.930   4.746  15.570  0.00  0.00    +0.000 A 
ATOM     14  N   UNL     1       7.075   5.397  15.640  0.00  0.00    +0.000 NA
ATOM     15  N   UNL     1       7.645   5.304  14.387  0.00  0.00    +0.000 NA
ATOM     16  C   UNL     1       6.807   4.609  13.652  0.00  0.00    +0.000 A 
ATOM     17  O   UNL     1       5.696   4.214  14.328  0.00  0.00    +0.000 OA
ENDBRANCH   9  13
BRANCH   1  18
ATOM     18  C   UNL     1       2.646   7.706  18.881  0.00  0.00    +0.000 C 
BRANCH  18  20
ATOM     19  C   UNL     1       1.219   9.617  18.064  0.00  0.00    +0.000 C 
ATOM     20  C   UNL     1       1.675   8.191  17.803  0.00  0.00    +0.000 C 
ENDBRANCH  18  20
ENDBRANCH   1  18
TORSDOF 3
ENDMDL
MODEL 4
REMARK VINA RESULT:      -7.1      1.825      3.534
REMARK  Name = 
REMARK  5 active torsions:
REMARK  status: ('A' for Active; 'I' for Inactive)
REMARK    1  A    between atoms: C_1  and  C_2
REMARK    2  A    between atoms: C_2  and  C_3
REMARK    3  A    between atoms: C_3  and  C_4
REMARK    4  A    between atoms: N_6  and  C_7
REMARK    5  A    between atoms: C_12  and  C_13
REMARK                            x       y       z     vdW  Elec       q    Type
REMARK                         _______ _______ _______ _____ _____    ______ ____
ROOT
ATOM      1  C   UNL     1       2.919   4.556  19.868  0.00  0.00    +0.000 A 
ATOM      2  N   UNL     1       2.119   5.400  20.547  0.00  0.00    +0.000 NA
ATOM      3  N   UNL     1       2.223   6.573  19.874  0.00  0.00    +0.000 N 
ATOM      4  C   UNL     1       1.457   7.717  20.306  0.00  0.00    +0.000 C 
ATOM      5  C   UNL     1       3.080   6.506  18.819  0.00  0.00    +0.000 A 
ATOM      6  C   UNL     1       3.487   7.476  17.869  0.00  0.00    +0.000 A 
ATOM      7  O   UNL     1       3.103   8.638  17.825  0.00  0.00    +0.000 OA
ATOM      8  N   UNL     1       4.389   6.956  16.971  0.00  0.00    +0.000 N 
ATOM      9  C   UNL     1       4.813   5.630  16.986  0.00  0.00    +0.000 A 
ATOM     10  N   UNL     1       4.431   4.734  17.852  0.00  0.00    +0.000 NA
ATOM     11  C   UNL     1       3.532   5.221  18.798  0.00  0.00    +0.000 A 
ATOM     12  H   UNL     1       4.733   7.582  16.255  0.00  0.00    +0.000 HD
ENDROOT
BRANCH   9  13
ATOM     13  C   UNL     1       5.738   5.267  15.940  0.00  0.00    +0.000 A 
ATOM     14  N   UNL     1       6.960   5.736  15.783  0.00  0.00    +0.000 NA
ATOM     15  N   UNL     1       7.459   5.133  14.647  0.00  0.00    +0.000 NA
ATOM     16  C   UNL     1       6.506   4.348  14.199  0.00  0.00    +0.000 A 
ATOM     17  O   UNL     1       5.383   4.371  14.964  0.00  0.00    +0.000 OA
ENDBRANCH   9  13
BRANCH   1  18
ATOM     18  C   UNL     1       3.072   3.132  20.281  0.00  0.00    +0.000 C 
BRANCH  18  20
ATOM     19  C   UNL     1       1.068   2.380  18.948  0.00  0.00    +0.000 C 
ATOM     20  C   UNL     1       1.738   2.385  20.313  0.00  0.00    +0.000 C 
ENDBRANCH  18  20
ENDBRANCH   1  18
TORSDOF 3
ENDMDL
MODEL 5
REMARK VINA RESULT:      -7.1      1.128      1.139
REMARK  Name = 
REMARK  5 active torsions:
REMARK  status: ('A' for Active; 'I' for Inactive)
REMARK    1  A    between atoms: C_1  and  C_2
REMARK    2  A    between atoms: C_2  and  C_3
REMARK    3  A    between atoms: C_3  and  C_4
REMARK    4  A    between atoms: N_6  and  C_7
REMARK    5  A    between atoms: C_12  and  C_13
REMARK                            x       y       z     vdW  Elec       q    Type
REMARK                         _______ _______ _______ _____ _____    ______ ____
ROOT
ATOM      1  C   UNL     1       2.420   5.866  19.498  0.00  0.00    +0.000 A 
ATOM      2  N   UNL     1       1.697   5.154  20.383  0.00  0.00    +0.000 NA
ATOM      3  N   UNL     1       2.025   3.864  20.120  0.00  0.00    +0.000 N 
ATOM      4  C   UNL     1       1.455   2.804  20.918  0.00  0.00    +0.000 C 
ATOM      5  C   UNL     1       2.901   3.738  19.087  0.00  0.00    +0.000 A 
ATOM      6  C   UNL     1       3.492   2.600  18.483  0.00  0.00    +0.000 A 
ATOM      7  O   UNL     1       3.307   1.436  18.817  0.00  0.00    +0.000 OA
ATOM      8  N   UNL     1       4.325   2.954  17.448  0.00  0.00    +0.000 N 
ATOM      9  C   UNL     1       4.574   4.272  17.075  0.00  0.00    +0.000 A 
ATOM     10  N   UNL     1       4.039   5.320  17.637  0.00  0.00    +0.000 NA
ATOM     11  C   UNL     1       3.168   5.010  18.679  0.00  0.00    +0.000 A 
ATOM     12  H   UNL     1       4.792   2.201  16.959  0.00  0.00    +0.000 HD
ENDROOT
BRANCH   9  13
ATOM     13  C   UNL     1       5.504   4.440  15.986  0.00  0.00    +0.000 A 
ATOM     14  N   UNL     1       5.272   4.173  14.715  0.00  0.00    +0.000 NA
ATOM     15  N   UNL     1       6.444   4.458  14.044  0.00  0.00    +0.000 NA
ATOM     16  C   UNL     1       7.297   4.872  14.954  0.00  0.00    +0.000 A 
ATOM     17  O   UNL     1       6.778   4.895  16.210  0.00  0.00    +0.000 OA
ENDBRANCH   9  13
BRANCH   1  18
ATOM     18  C   UNL     1       2.360   7.355  19.467  0.00  0.00    +0.000 C 
BRANCH  18  20
ATOM     19  C   UNL     1       1.453   9.222  18.037  0.00  0.00    +0.000 C 
ATOM     20  C   UNL     1       2.214   7.906  18.048  0.00  0.00    +0.000 C 
ENDBRANCH  18  20
ENDBRANCH   1  18
TORSDOF 3
ENDMDL
MODEL 6
REMARK VINA RESULT:      -7.0      2.793      3.860
REMARK  Name = 
REMARK  5 active torsions:
REMARK  status: ('A' for Active; 'I' for Inactive)
REMARK    1  A    between atoms: C_1  and  C_2
REMARK    2  A    between atoms: C_2  and  C_3
REMARK    3  A    between atoms: C_3  and  C_4
REMARK    4  A    between atoms: N_6  and  C_7
REMARK    5  A    between atoms: C_12  and  C_13
REMARK                            x       y       z     vdW  Elec       q    Type
REMARK                         _______ _______ _______ _____ _____    ______ ____
ROOT
ATOM      1  C   UNL     1       6.982   5.947  18.517  0.00  0.00    +0.000 A 
ATOM      2  N   UNL     1       6.218   5.637  19.582  0.00  0.00    +0.000 NA
ATOM      3  N   UNL     1       5.317   4.746  19.099  0.00  0.00    +0.000 N 
ATOM      4  C   UNL     1       4.343   4.160  19.988  0.00  0.00    +0.000 C 
ATOM      5  C   UNL     1       5.466   4.508  17.767  0.00  0.00    +0.000 A 
ATOM      6  C   UNL     1       4.753   3.673  16.871  0.00  0.00    +0.000 A 
ATOM      7  O   UNL     1       3.804   2.957  17.163  0.00  0.00    +0.000 OA
ATOM      8  N   UNL     1       5.258   3.755  15.595  0.00  0.00    +0.000 N 
ATOM      9  C   UNL     1       6.356   4.538  15.249  0.00  0.00    +0.000 A 
ATOM     10  N   UNL     1       7.020   5.298  16.075  0.00  0.00    +0.000 NA
ATOM     11  C   UNL     1       6.529   5.266  17.379  0.00  0.00    +0.000 A 
ATOM     12  H   UNL     1       4.808   3.189  14.887  0.00  0.00    +0.000 HD
ENDROOT
BRANCH   9  13
ATOM     13  C   UNL     1       6.756   4.465  13.866  0.00  0.00    +0.000 A 
ATOM     14  N   UNL     1       7.566   5.299  13.243  0.00  0.00    +0.000 NA
ATOM     15  N   UNL     1       7.639   4.858  11.937  0.00  0.00    +0.000 NA
ATOM     16  C   UNL     1       6.870   3.796  11.864  0.00  0.00    +0.000 A 
ATOM     17  O   UNL     1       6.277   3.477  13.044  0.00  0.00    +0.000 OA
ENDBRANCH   9  13
BRANCH   1  18
ATOM     18  C   UNL     1       8.122   6.899  18.631  0.00  0.00    +0.000 C 
BRANCH  18  20
ATOM     19  C   UNL     1       8.601   9.364  18.410  0.00  0.00    +0.000 C 
ATOM     20  C   UNL     1       7.924   8.156  17.783  0.00  0.00    +0.000 C 
ENDBRANCH  18  20
ENDBRANCH   1  18
TORSDOF 3
ENDMDL
MODEL 7
REMARK VINA RESULT:      -6.9      2.096      3.848
REMARK  Name = 
REMARK  5 active torsions:
REMARK  status: ('A' for Active; 'I' for Inactive)
REMARK    1  A    between atoms: C_1  and  C_2
REMARK    2  A    between atoms: C_2  and  C_3
REMARK    3  A    between atoms: C_3  and  C_4
REMARK    4  A    between atoms: N_6  and  C_7
REMARK    5  A    between atoms: C_12  and  C_13
REMARK                            x       y       z     vdW  Elec       q    Type
REMARK                         _______ _______ _______ _____ _____    ______ ____
ROOT
ATOM      1  C   UNL     1       2.183   5.716  20.418  0.00  0.00    +0.000 A 
ATOM      2  N   UNL     1       1.436   6.709  20.939  0.00  0.00    +0.000 NA
ATOM      3  N   UNL     1       1.588   7.735  20.065  0.00  0.00    +0.000 N 
ATOM      4  C   UNL     1       0.886   8.976  20.290  0.00  0.00    +0.000 C 
ATOM      5  C   UNL     1       2.424   7.436  19.033  0.00  0.00    +0.000 A 
ATOM      6  C   UNL     1       2.862   8.198  17.922  0.00  0.00    +0.000 A 
ATOM      7  O   UNL     1       2.535   9.351  17.672  0.00  0.00    +0.000 OA
ATOM      8  N   UNL     1       3.723   7.479  17.126  0.00  0.00    +0.000 N 
ATOM      9  C   UNL     1       4.081   6.157  17.376  0.00  0.00    +0.000 A 
ATOM     10  N   UNL     1       3.669   5.451  18.393  0.00  0.00    +0.000 NA
ATOM     11  C   UNL     1       2.811   6.146  19.242  0.00  0.00    +0.000 A 
ATOM     12  H   UNL     1       4.086   7.947  16.306  0.00  0.00    +0.000 HD
ENDROOT
BRANCH   9  13
ATOM     13  C   UNL     1       4.970   5.565  16.407  0.00  0.00    +0.000 A 
ATOM     14  N   UNL     1       5.717   6.214  15.536  0.00  0.00    +0.000 NA
ATOM     15  N   UNL     1       6.376   5.249  14.802  0.00  0.00    +0.000 NA
ATOM     16  C   UNL     1       5.979   4.091  15.278  0.00  0.00    +0.000 A 
ATOM     17  O   UNL     1       5.091   4.203  16.300  0.00  0.00    +0.000 OA
ENDBRANCH   9  13
BRANCH   1  18
ATOM     18  C   UNL     1       2.272   4.384  21.079  0.00  0.00    +0.000 C 
BRANCH  18  20
ATOM     19  C   UNL     1       1.553   2.444  19.639  0.00  0.00    +0.000 C 
ATOM     20  C   UNL     1       1.120   3.457  20.686  0.00  0.00    +0.000 C 
ENDBRANCH  18  20
ENDBRANCH   1  18
TORSDOF 3
ENDMDL
MODEL 8
REMARK VINA RESULT:      -6.9      2.848      5.611
REMARK  Name = 
REMARK  5 active torsions:
REMARK  status: ('A' for Active; 'I' for Inactive)
REMARK    1  A    between atoms: C_1  and  C_2
REMARK    2  A    between atoms: C_2  and  C_3
REMARK    3  A    between atoms: C_3  and  C_4
REMARK    4  A    between atoms: N_6  and  C_7
REMARK    5  A    between atoms: C_12  and  C_13
REMARK                            x       y       z     vdW  Elec       q    Type
REMARK                         _______ _______ _______ _____ _____    ______ ____
ROOT
ATOM      1  C   UNL     1       2.871   3.707  17.790  0.00  0.00    +0.000 A 
ATOM      2  N   UNL     1       3.897   3.082  17.181  0.00  0.00    +0.000 NA
ATOM      3  N   UNL     1       4.721   4.088  16.797  0.00  0.00    +0.000 N 
ATOM      4  C   UNL     1       5.965   3.781  16.133  0.00  0.00    +0.000 C 
ATOM      5  C   UNL     1       4.239   5.321  17.114  0.00  0.00    +0.000 A 
ATOM      6  C   UNL     1       4.757   6.622  16.897  0.00  0.00    +0.000 A 
ATOM      7  O   UNL     1       5.819   6.886  16.348  0.00  0.00    +0.000 OA
ATOM      8  N   UNL     1       3.912   7.589  17.389  0.00  0.00    +0.000 N 
ATOM      9  C   UNL     1       2.717   7.308  18.045  0.00  0.00    +0.000 A 
ATOM     10  N   UNL     1       2.244   6.111  18.254  0.00  0.00    +0.000 NA
ATOM     11  C   UNL     1       3.057   5.096  17.753  0.00  0.00    +0.000 A 
ATOM     12  H   UNL     1       4.205   8.552  17.277  0.00  0.00    +0.000 HD
ENDROOT
BRANCH   9  13
ATOM     13  C   UNL     1       1.986   8.458  18.516  0.00  0.00    +0.000 A 
ATOM     14  N   UNL     1       1.703   9.541  17.819  0.00  0.00    +0.000 NA
ATOM     15  N   UNL     1       1.020  10.380  18.675  0.00  0.00    +0.000 NA
ATOM     16  C   UNL     1       0.941   9.748  19.824  0.00  0.00    +0.000 A 
ATOM     17  O   UNL     1       1.524   8.521  19.806  0.00  0.00    +0.000 OA
ENDBRANCH   9  13
BRANCH   1  18
ATOM     18  C   UNL     1       1.738   2.942  18.383  0.00  0.00    +0.000 C 
BRANCH  18  20
ATOM     19  C   UNL     1       1.192   3.506  20.778  0.00  0.00    +0.000 C 
ATOM     20  C   UNL     1       1.974   2.589  19.852  0.00  0.00    +0.000 C 
ENDBRANCH  18  20
ENDBRANCH   1  18
TORSDOF 3
ENDMDL
MODEL 9
REMARK VINA RESULT:      -6.9      2.567      5.482
REMARK  Name = 
REMARK  5 active torsions:
REMARK  status: ('A' for Active; 'I' for Inactive)
REMARK    1  A    between atoms: C_1  and  C_2
REMARK    2  A    between atoms: C_2  and  C_3
REMARK    3  A    between atoms: C_3  and  C_4
REMARK    4  A    between atoms: N_6  and  C_7
REMARK    5  A    between atoms: C_12  and  C_13
REMARK                            x       y       z     vdW  Elec       q    Type
REMARK                         _______ _______ _______ _____ _____    ______ ____
ROOT
ATOM      1  C   UNL     1       4.340   5.011  17.699  0.00  0.00    +0.000 A 
ATOM      2  N   UNL     1       4.649   3.728  17.967  0.00  0.00    +0.000 NA
ATOM      3  N   UNL     1       3.988   3.459  19.120  0.00  0.00    +0.000 N 
ATOM      4  C   UNL     1       4.061   2.137  19.696  0.00  0.00    +0.000 C 
ATOM      5  C   UNL     1       3.300   4.531  19.602  0.00  0.00    +0.000 A 
ATOM      6  C   UNL     1       2.497   4.695  20.757  0.00  0.00    +0.000 A 
ATOM      7  O   UNL     1       2.255   3.830  21.590  0.00  0.00    +0.000 OA
ATOM      8  N   UNL     1       1.998   5.973  20.846  0.00  0.00    +0.000 N 
ATOM      9  C   UNL     1       2.235   6.961  19.894  0.00  0.00    +0.000 A 
ATOM     10  N   UNL     1       2.965   6.807  18.825  0.00  0.00    +0.000 NA
ATOM     11  C   UNL     1       3.512   5.531  18.702  0.00  0.00    +0.000 A 
ATOM     12  H   UNL     1       1.410   6.181  21.644  0.00  0.00    +0.000 HD
ENDROOT
BRANCH   9  13
ATOM     13  C   UNL     1       1.597   8.230  20.148  0.00  0.00    +0.000 A 
ATOM     14  N   UNL     1       1.164   8.663  21.316  0.00  0.00    +0.000 NA
ATOM     15  N   UNL     1       0.606   9.904  21.080  0.00  0.00    +0.000 NA
ATOM     16  C   UNL     1       0.740  10.128  19.793  0.00  0.00    +0.000 A 
ATOM     17  O   UNL     1       1.362   9.118  19.130  0.00  0.00    +0.000 OA
ENDBRANCH   9  13
BRANCH   1  18
ATOM     18  C   UNL     1       4.860   5.696  16.483  0.00  0.00    +0.000 C 
BRANCH  18  20
ATOM     19  C   UNL     1       6.941   4.756  15.415  0.00  0.00    +0.000 C 
ATOM     20  C   UNL     1       5.422   4.715  15.452  0.00  0.00    +0.000 C 
ENDBRANCH  18  20
ENDBRANCH   1  18
TORSDOF 3
ENDMDL
