MODEL 1
REMARK VINA RESULT:      -6.3      0.000      0.000
REMARK  Name = 
REMARK  7 active torsions:
REMARK  status: ('A' for Active; 'I' for Inactive)
REMARK    1  A    between atoms: C_1  and  C_2
REMARK    2  A    between atoms: C_2  and  C_3
REMARK    3  A    between atoms: C_3  and  O_4
REMARK    4  A    between atoms: C_3  and  C_12
REMARK    5  A    between atoms: O_4  and  C_5
REMARK    6  A    between atoms: C_8  and  C_9
REMARK    7  A    between atoms: N_14  and  C_15
REMARK                            x       y       z     vdW  Elec       q    Type
REMARK                         _______ _______ _______ _____ _____    ______ ____
ROOT
ATOM      1  C   UNL     1       6.151   4.692  16.171  0.00  0.00    +0.000 C 
ENDROOT
BRANCH   1   2
ATOM      2  C   UNL     1       6.715   4.654  14.739  0.00  0.00    +0.000 C 
ATOM      3  O   UNL     1       7.643   5.380  14.391  0.00  0.00    +0.000 OA
ATOM      4  N   UNL     1       6.144   3.709  13.908  0.00  0.00    +0.000 N 
ATOM      5  C   UNL     1       6.538   3.547  12.531  0.00  0.00    +0.000 C 
ATOM      6  H   UNL     1       5.298   3.257  14.237  0.00  0.00    +0.000 HD
ENDBRANCH   1   2
BRANCH   1   8
ATOM      7  C   UNL     1       7.484   5.718  18.113  0.00  0.00    +0.000 C 
ATOM      8  C   UNL     1       7.334   4.550  17.148  0.00  0.00    +0.000 C 
ENDBRANCH   1   8
BRANCH   1   9
ATOM      9  O   UNL     1       5.208   3.639  16.406  0.00  0.00    +0.000 OA
BRANCH   9  10
ATOM     10  C   UNL     1       4.330   3.831  17.442  0.00  0.00    +0.000 A 
ATOM     11  C   UNL     1       4.103   2.939  18.489  0.00  0.00    +0.000 A 
ATOM     12  C   UNL     1       3.171   3.248  19.492  0.00  0.00    +0.000 A 
ATOM     13  C   UNL     1       2.461   4.453  19.461  0.00  0.00    +0.000 A 
ATOM     14  C   UNL     1       1.439   4.777  20.512  0.00  0.00    +0.000 C 
ATOM     15  C   UNL     1       2.715   5.357  18.425  0.00  0.00    +0.000 A 
ATOM     16  C   UNL     1       3.650   5.050  17.430  0.00  0.00    +0.000 A 
ENDBRANCH   9  10
ENDBRANCH   1   9
TORSDOF 4
ENDMDL
MODEL 2
REMARK VINA RESULT:      -6.3      1.642      2.314
REMARK  Name = 
REMARK  7 active torsions:
REMARK  status: ('A' for Active; 'I' for Inactive)
REMARK    1  A    between atoms: C_1  and  C_2
REMARK    2  A    between atoms: C_2  and  C_3
REMARK    3  A    between atoms: C_3  and  O_4
REMARK    4  A    between atoms: C_3  and  C_12
REMARK    5  A    between atoms: O_4  and  C_5
REMARK    6  A    between atoms: C_8  and  C_9
REMARK    7  A    between atoms: N_14  and  C_15
REMARK                            x       y       z     vdW  Elec       q    Type
REMARK                         _______ _______ _______ _____ _____    ______ ____
ROOT
ATOM      1  C   UNL     1       6.482   5.491  17.957  0.00  0.00    +0.000 C 
ENDROOT
BRANCH   1   2
ATOM      2  C   UNL     1       7.069   4.878  16.674  0.00  0.00    +0.000 C 
ATOM      3  O   UNL     1       8.013   4.091  16.708  0.00  0.00    +0.000 OA
ATOM      4  N   UNL     1       6.422   5.228  15.505  0.00  0.00    +0.000 N 
ATOM      5  C   UNL     1       6.849   4.759  14.210  0.00  0.00    +0.000 C 
ATOM      6  H   UNL     1       5.749   5.985  15.560  0.00  0.00    +0.000 HD
ENDBRANCH   1   2
BRANCH   1   8
ATOM      7  C   UNL     1       7.833   7.672  17.823  0.00  0.00    +0.000 C 
ATOM      8  C   UNL     1       7.563   6.386  18.592  0.00  0.00    +0.000 C 
ENDBRANCH   1   8
BRANCH   1   9
ATOM      9  O   UNL     1       6.080   4.488  18.897  0.00  0.00    +0.000 OA
BRANCH   9  10
ATOM     10  C   UNL     1       4.768   4.090  18.837  0.00  0.00    +0.000 A 
ATOM     11  C   UNL     1       3.772   4.691  18.068  0.00  0.00    +0.000 A 
ATOM     12  C   UNL     1       2.460   4.193  18.094  0.00  0.00    +0.000 A 
ATOM     13  C   UNL     1       2.133   3.086  18.885  0.00  0.00    +0.000 A 
ATOM     14  C   UNL     1       0.725   2.566  18.944  0.00  0.00    +0.000 C 
ATOM     15  C   UNL     1       3.142   2.468  19.630  0.00  0.00    +0.000 A 
ATOM     16  C   UNL     1       4.451   2.962  19.597  0.00  0.00    +0.000 A 
ENDBRANCH   9  10
ENDBRANCH   1   9
TORSDOF 4
ENDMDL
MODEL 3
REMARK VINA RESULT:      -6.2      1.719      2.855
REMARK  Name = 
REMARK  7 active torsions:
REMARK  status: ('A' for Active; 'I' for Inactive)
REMARK    1  A    between atoms: C_1  and  C_2
REMARK    2  A    between atoms: C_2  and  C_3
REMARK    3  A    between atoms: C_3  and  O_4
REMARK    4  A    between atoms: C_3  and  C_12
REMARK    5  A    between atoms: O_4  and  C_5
REMARK    6  A    between atoms: C_8  and  C_9
REMARK    7  A    between atoms: N_14  and  C_15
REMARK                            x       y       z     vdW  Elec       q    Type
REMARK                         _______ _______ _______ _____ _____    ______ ____
ROOT
ATOM      1  C   UNL     1       6.125   4.330  16.296  0.00  0.00    +0.000 C 
ENDROOT
BRANCH   1   2
ATOM      2  C   UNL     1       7.012   5.201  17.203  0.00  0.00    +0.000 C 
ATOM      3  O   UNL     1       7.739   4.707  18.062  0.00  0.00    +0.000 OA
ATOM      4  N   UNL     1       6.975   6.556  16.935  0.00  0.00    +0.000 N 
ATOM      5  C   UNL     1       7.730   7.519  17.697  0.00  0.00    +0.000 C 
ATOM      6  H   UNL     1       6.248   6.882  16.307  0.00  0.00    +0.000 HD
ENDBRANCH   1   2
BRANCH   1   8
ATOM      7  C   UNL     1       5.793   3.987  13.771  0.00  0.00    +0.000 C 
ATOM      8  C   UNL     1       6.771   4.292  14.899  0.00  0.00    +0.000 C 
ENDBRANCH   1   8
BRANCH   1   9
ATOM      9  O   UNL     1       4.792   4.845  16.193  0.00  0.00    +0.000 OA
BRANCH   9  10
ATOM     10  C   UNL     1       3.889   4.383  17.117  0.00  0.00    +0.000 A 
ATOM     11  C   UNL     1       3.695   3.047  17.464  0.00  0.00    +0.000 A 
ATOM     12  C   UNL     1       2.733   2.699  18.425  0.00  0.00    +0.000 A 
ATOM     13  C   UNL     1       1.961   3.682  19.051  0.00  0.00    +0.000 A 
ATOM     14  C   UNL     1       0.907   3.315  20.057  0.00  0.00    +0.000 C 
ATOM     15  C   UNL     1       2.181   5.023  18.722  0.00  0.00    +0.000 A 
ATOM     16  C   UNL     1       3.146   5.369  17.769  0.00  0.00    +0.000 A 
ENDBRANCH   9  10
ENDBRANCH   1   9
TORSDOF 4
ENDMDL
MODEL 4
REMARK VINA RESULT:      -6.1      1.742      3.088
REMARK  Name = 
REMARK  7 active torsions:
REMARK  status: ('A' for Active; 'I' for Inactive)
REMARK    1  A    between atoms: C_1  and  C_2
REMARK    2  A    between atoms: C_2  and  C_3
REMARK    3  A    between atoms: C_3  and  O_4
REMARK    4  A    between atoms: C_3  and  C_12
REMARK    5  A    between atoms: O_4  and  C_5
REMARK    6  A    between atoms: C_8  and  C_9
REMARK    7  A    between atoms: N_14  and  C_15
REMARK                            x       y       z     vdW  Elec       q    Type
REMARK                         _______ _______ _______ _____ _____    ______ ____
ROOT
ATOM      1  C   UNL     1       5.904   4.248  16.396  0.00  0.00    +0.000 C 
ENDROOT
BRANCH   1   2
ATOM      2  C   UNL     1       6.903   5.181  17.102  0.00  0.00    +0.000 C 
ATOM      3  O   UNL     1       7.481   6.083  16.499  0.00  0.00    +0.000 OA
ATOM      4  N   UNL     1       7.048   4.969  18.460  0.00  0.00    +0.000 N 
ATOM      5  C   UNL     1       7.954   5.740  19.275  0.00  0.00    +0.000 C 
ATOM      6  H   UNL     1       6.642   4.121  18.839  0.00  0.00    +0.000 HD
ENDBRANCH   1   2
BRANCH   1   8
ATOM      7  C   UNL     1       5.580   4.177  13.848  0.00  0.00    +0.000 C 
ATOM      8  C   UNL     1       6.497   3.872  15.025  0.00  0.00    +0.000 C 
ENDBRANCH   1   8
BRANCH   1   9
ATOM      9  O   UNL     1       4.627   4.869  16.211  0.00  0.00    +0.000 OA
BRANCH   9  10
ATOM     10  C   UNL     1       3.715   4.695  17.222  0.00  0.00    +0.000 A 
ATOM     11  C   UNL     1       3.346   5.663  18.156  0.00  0.00    +0.000 A 
ATOM     12  C   UNL     1       2.401   5.362  19.149  0.00  0.00    +0.000 A 
ATOM     13  C   UNL     1       1.813   4.094  19.215  0.00  0.00    +0.000 A 
ATOM     14  C   UNL     1       0.826   3.754  20.295  0.00  0.00    +0.000 C 
ATOM     15  C   UNL     1       2.165   3.138  18.257  0.00  0.00    +0.000 A 
ATOM     16  C   UNL     1       3.101   3.442  17.263  0.00  0.00    +0.000 A 
ENDBRANCH   9  10
ENDBRANCH   1   9
TORSDOF 4
ENDMDL
MODEL 5
REMARK VINA RESULT:      -6.1      0.687      1.355
REMARK  Name = 
REMARK  7 active torsions:
REMARK  status: ('A' for Active; 'I' for Inactive)
REMARK    1  A    between atoms: C_1  and  C_2
REMARK    2  A    between atoms: C_2  and  C_3
REMARK    3  A    between atoms: C_3  and  O_4
REMARK    4  A    between atoms: C_3  and  C_12
REMARK    5  A    between atoms: O_4  and  C_5
REMARK    6  A    between atoms: C_8  and  C_9
REMARK    7  A    between atoms: N_14  and  C_15
REMARK                            x       y       z     vdW  Elec       q    Type
REMARK                         _______ _______ _______ _____ _____    ______ ____
ROOT
ATOM      1  C   UNL     1       6.124   5.051  15.875  0.00  0.00    +0.000 C 
ENDROOT
BRANCH   1   2
ATOM      2  C   UNL     1       6.738   4.841  14.480  0.00  0.00    +0.000 C 
ATOM      3  O   UNL     1       7.746   5.447  14.120  0.00  0.00    +0.000 OA
ATOM      4  N   UNL     1       6.114   3.887  13.699  0.00  0.00    +0.000 N 
ATOM      5  C   UNL     1       6.546   3.574  12.360  0.00  0.00    +0.000 C 
ATOM      6  H   UNL     1       5.216   3.544  14.022  0.00  0.00    +0.000 HD
ENDBRANCH   1   2
BRANCH   1   8
ATOM      7  C   UNL     1       7.539   5.577  17.955  0.00  0.00    +0.000 C 
ATOM      8  C   UNL     1       7.133   4.537  16.918  0.00  0.00    +0.000 C 
ENDBRANCH   1   8
BRANCH   1   9
ATOM      9  O   UNL     1       4.882   4.352  16.026  0.00  0.00    +0.000 OA
BRANCH   9  10
ATOM     10  C   UNL     1       4.118   4.700  17.112  0.00  0.00    +0.000 A 
ATOM     11  C   UNL     1       3.919   5.997  17.581  0.00  0.00    +0.000 A 
ATOM     12  C   UNL     1       3.115   6.225  18.710  0.00  0.00    +0.000 A 
ATOM     13  C   UNL     1       2.500   5.159  19.375  0.00  0.00    +0.000 A 
ATOM     14  C   UNL     1       1.666   5.391  20.602  0.00  0.00    +0.000 C 
ATOM     15  C   UNL     1       2.679   3.863  18.882  0.00  0.00    +0.000 A 
ATOM     16  C   UNL     1       3.475   3.639  17.752  0.00  0.00    +0.000 A 
ENDBRANCH   9  10
ENDBRANCH   1   9
TORSDOF 4
ENDMDL
MODEL 6
REMARK VINA RESULT:      -6.1      1.844      2.417
REMARK  Name = 
REMARK  7 active torsions:
REMARK  status: ('A' for Active; 'I' for Inactive)
REMARK    1  A    between atoms: C_1  and  C_2
REMARK    2  A    between atoms: C_2  and  C_3
REMARK    3  A    between atoms: C_3  and  O_4
REMARK    4  A    between atoms: C_3  and  C_12
REMARK    5  A    between atoms: O_4  and  C_5
REMARK    6  A    between atoms: C_8  and  C_9
REMARK    7  A    between atoms: N_14  and  C_15
REMARK                            x       y       z     vdW  Elec       q    Type
REMARK                         _______ _______ _______ _____ _____    ______ ____
ROOT
ATOM      1  C   UNL     1       6.397   6.110  18.043  0.00  0.00    +0.000 C 
ENDROOT
BRANCH   1   2
ATOM      2  C   UNL     1       6.260   5.944  16.520  0.00  0.00    +0.000 C 
ATOM      3  O   UNL     1       5.505   6.654  15.859  0.00  0.00    +0.000 OA
ATOM      4  N   UNL     1       7.086   4.991  15.954  0.00  0.00    +0.000 N 
ATOM      5  C   UNL     1       7.076   4.693  14.544  0.00  0.00    +0.000 C 
ATOM      6  H   UNL     1       7.567   4.365  16.590  0.00  0.00    +0.000 HD
ENDBRANCH   1   2
BRANCH   1   8
ATOM      7  C   UNL     1       7.994   8.110  17.817  0.00  0.00    +0.000 C 
ATOM      8  C   UNL     1       7.794   6.690  18.331  0.00  0.00    +0.000 C 
ENDBRANCH   1   8
BRANCH   1   9
ATOM      9  O   UNL     1       6.245   4.865  18.735  0.00  0.00    +0.000 OA
BRANCH   9  10
ATOM     10  C   UNL     1       4.988   4.582  19.208  0.00  0.00    +0.000 A 
ATOM     11  C   UNL     1       4.014   5.524  19.534  0.00  0.00    +0.000 A 
ATOM     12  C   UNL     1       2.762   5.109  20.014  0.00  0.00    +0.000 A 
ATOM     13  C   UNL     1       2.471   3.749  20.168  0.00  0.00    +0.000 A 
ATOM     14  C   UNL     1       1.146   3.298  20.711  0.00  0.00    +0.000 C 
ATOM     15  C   UNL     1       3.441   2.808  19.810  0.00  0.00    +0.000 A 
ATOM     16  C   UNL     1       4.686   3.224  19.325  0.00  0.00    +0.000 A 
ENDBRANCH   9  10
ENDBRANCH   1   9
TORSDOF 4
ENDMDL
MODEL 7
REMARK VINA RESULT:      -6.1      1.803      3.027
REMARK  Name = 
REMARK  7 active torsions:
REMARK  status: ('A' for Active; 'I' for Inactive)
REMARK    1  A    between atoms: C_1  and  C_2
REMARK    2  A    between atoms: C_2  and  C_3
REMARK    3  A    between atoms: C_3  and  O_4
REMARK    4  A    between atoms: C_3  and  C_12
REMARK    5  A    between atoms: O_4  and  C_5
REMARK    6  A    between atoms: C_8  and  C_9
REMARK    7  A    between atoms: N_14  and  C_15
REMARK                            x       y       z     vdW  Elec       q    Type
REMARK                         _______ _______ _______ _____ _____    ______ ____
ROOT
ATOM      1  C   UNL     1       6.123   4.781  16.256  0.00  0.00    +0.000 C 
ENDROOT
BRANCH   1   2
ATOM      2  C   UNL     1       7.065   5.574  17.179  0.00  0.00    +0.000 C 
ATOM      3  O   UNL     1       7.611   6.611  16.807  0.00  0.00    +0.000 OA
ATOM      4  N   UNL     1       7.198   5.070  18.459  0.00  0.00    +0.000 N 
ATOM      5  C   UNL     1       8.053   5.676  19.449  0.00  0.00    +0.000 C 
ATOM      6  H   UNL     1       6.824   4.142  18.629  0.00  0.00    +0.000 HD
ENDBRANCH   1   2
BRANCH   1   8
ATOM      7  C   UNL     1       6.042   3.878  13.852  0.00  0.00    +0.000 C 
ATOM      8  C   UNL     1       6.693   4.850  14.827  0.00  0.00    +0.000 C 
ENDBRANCH   1   8
BRANCH   1   9
ATOM      9  O   UNL     1       4.792   5.310  16.266  0.00  0.00    +0.000 OA
BRANCH   9  10
ATOM     10  C   UNL     1       3.888   4.665  17.072  0.00  0.00    +0.000 A 
ATOM     11  C   UNL     1       3.758   3.283  17.202  0.00  0.00    +0.000 A 
ATOM     12  C   UNL     1       2.788   2.741  18.060  0.00  0.00    +0.000 A 
ATOM     13  C   UNL     1       1.943   3.576  18.799  0.00  0.00    +0.000 A 
ATOM     14  C   UNL     1       0.881   3.004  19.694  0.00  0.00    +0.000 C 
ATOM     15  C   UNL     1       2.098   4.961  18.688  0.00  0.00    +0.000 A 
ATOM     16  C   UNL     1       3.071   5.499  17.838  0.00  0.00    +0.000 A 
ENDBRANCH   9  10
ENDBRANCH   1   9
TORSDOF 4
ENDMDL
MODEL 8
REMARK VINA RESULT:      -6.1      0.546      1.321
REMARK  Name = 
REMARK  7 active torsions:
REMARK  status: ('A' for Active; 'I' for Inactive)
REMARK    1  A    between atoms: C_1  and  C_2
REMARK    2  A    between atoms: C_2  and  C_3
REMARK    3  A    between atoms: C_3  and  O_4
REMARK    4  A    between atoms: C_3  and  C_12
REMARK    5  A    between atoms: O_4  and  C_5
REMARK    6  A    between atoms: C_8  and  C_9
REMARK    7  A    between atoms: N_14  and  C_15
REMARK                            x       y       z     vdW  Elec       q    Type
REMARK                         _______ _______ _______ _____ _____    ______ ____
ROOT
ATOM      1  C   UNL     1       6.402   4.796  16.715  0.00  0.00    +0.000 C 
ENDROOT
BRANCH   1   2
ATOM      2  C   UNL     1       6.817   4.721  15.234  0.00  0.00    +0.000 C 
ATOM      3  O   UNL     1       7.760   5.375  14.795  0.00  0.00    +0.000 OA
ATOM      4  N   UNL     1       6.096   3.827  14.465  0.00  0.00    +0.000 N 
ATOM      5  C   UNL     1       6.339   3.642  13.057  0.00  0.00    +0.000 C 
ATOM      6  H   UNL     1       5.254   3.440  14.878  0.00  0.00    +0.000 HD
ENDBRANCH   1   2
BRANCH   1   8
ATOM      7  C   UNL     1       7.565   5.713  18.814  0.00  0.00    +0.000 C 
ATOM      8  C   UNL     1       7.686   4.853  17.563  0.00  0.00    +0.000 C 
ENDBRANCH   1   8
BRANCH   1   9
ATOM      9  O   UNL     1       5.618   3.664  17.110  0.00  0.00    +0.000 OA
BRANCH   9  10
ATOM     10  C   UNL     1       4.503   3.931  17.864  0.00  0.00    +0.000 A 
ATOM     11  C   UNL     1       3.479   4.810  17.514  0.00  0.00    +0.000 A 
ATOM     12  C   UNL     1       2.387   5.003  18.375  0.00  0.00    +0.000 A 
ATOM     13  C   UNL     1       2.307   4.316  19.591  0.00  0.00    +0.000 A 
ATOM     14  C   UNL     1       1.159   4.541  20.532  0.00  0.00    +0.000 C 
ATOM     15  C   UNL     1       3.322   3.413  19.923  0.00  0.00    +0.000 A 
ATOM     16  C   UNL     1       4.406   3.217  19.059  0.00  0.00    +0.000 A 
ENDBRANCH   9  10
ENDBRANCH   1   9
TORSDOF 4
ENDMDL
MODEL 9
REMARK VINA RESULT:      -6.1      1.847      3.162
REMARK  Name = 
REMARK  7 active torsions:
REMARK  status: ('A' for Active; 'I' for Inactive)
REMARK    1  A    between atoms: C_1  and  C_2
REMARK    2  A    between atoms: C_2  and  C_3
REMARK    3  A    between atoms: C_3  and  O_4
REMARK    4  A    between atoms: C_3  and  C_12
REMARK    5  A    between atoms: O_4  and  C_5
REMARK    6  A    between atoms: C_8  and  C_9
REMARK    7  A    between atoms: N_14  and  C_15
REMARK                            x       y       z     vdW  Elec       q    Type
REMARK                         _______ _______ _______ _____ _____    ______ ____
ROOT
ATOM      1  C   UNL     1       6.169   4.674  16.666  0.00  0.00    +0.000 C 
ENDROOT
BRANCH   1   2
ATOM      2  C   UNL     1       6.738   5.791  17.557  0.00  0.00    +0.000 C 
ATOM      3  O   UNL     1       6.809   5.670  18.778  0.00  0.00    +0.000 OA
ATOM      4  N   UNL     1       7.214   6.899  16.881  0.00  0.00    +0.000 N 
ATOM      5  C   UNL     1       7.766   8.045  17.559  0.00  0.00    +0.000 C 
ATOM      6  H   UNL     1       6.988   6.968  15.895  0.00  0.00    +0.000 HD
ENDBRANCH   1   2
BRANCH   1   8
ATOM      7  C   UNL     1       6.270   4.156  14.151  0.00  0.00    +0.000 C 
ATOM      8  C   UNL     1       7.033   4.599  15.393  0.00  0.00    +0.000 C 
ENDBRANCH   1   8
BRANCH   1   9
ATOM      9  O   UNL     1       4.804   4.918  16.304  0.00  0.00    +0.000 OA
BRANCH   9  10
ATOM     10  C   UNL     1       3.856   4.541  17.221  0.00  0.00    +0.000 A 
ATOM     11  C   UNL     1       2.953   5.396  17.852  0.00  0.00    +0.000 A 
ATOM     12  C   UNL     1       2.030   4.888  18.779  0.00  0.00    +0.000 A 
ATOM     13  C   UNL     1       1.997   3.523  19.081  0.00  0.00    +0.000 A 
ATOM     14  C   UNL     1       1.035   2.977  20.096  0.00  0.00    +0.000 C 
ATOM     15  C   UNL     1       2.885   2.666  18.423  0.00  0.00    +0.000 A 
ATOM     16  C   UNL     1       3.800   3.173  17.493  0.00  0.00    +0.000 A 
ENDBRANCH   9  10
ENDBRANCH   1   9
TORSDOF 4
ENDMDL
