MODEL 1
REMARK VINA RESULT:      -8.6      0.000      0.000
REMARK  Name = 
REMARK  4 active torsions:
REMARK  status: ('A' for Active; 'I' for Inactive)
REMARK    1  A    between atoms: C_7  and  S_8
REMARK    2  A    between atoms: S_8  and  C_9
REMARK    3  A    between atoms: C_15  and  C_16
REMARK    4  A    between atoms: C_17  and  C_18
REMARK                            x       y       z     vdW  Elec       q    Type
REMARK                         _______ _______ _______ _____ _____    ______ ____
ROOT
ATOM      1  C   UNL     1       4.082   3.763  17.392  0.00  0.00    +0.000 A 
ATOM      2  C   UNL     1       4.141   2.388  17.644  0.00  0.00    +0.000 A 
ATOM      3  C   UNL     1       3.359   1.797  18.641  0.00  0.00    +0.000 A 
ATOM      4  C   UNL     1       2.536   2.643  19.389  0.00  0.00    +0.000 A 
ATOM      5  N   UNL     1       1.686   2.385  20.429  0.00  0.00    +0.000 N 
ATOM      6  N   UNL     1       1.093   3.471  20.937  0.00  0.00    +0.000 NA
ATOM      7  C   UNL     1       1.541   4.484  20.180  0.00  0.00    +0.000 A 
ATOM      8  C   UNL     1       2.460   4.018  19.187  0.00  0.00    +0.000 A 
ATOM      9  C   UNL     1       3.258   4.589  18.172  0.00  0.00    +0.000 A 
ATOM     10  H   UNL     1       1.481   1.488  20.851  0.00  0.00    +0.000 HD
ENDROOT
BRANCH   7  11
ATOM     11  C   UNL     1       1.132   5.830  20.444  0.00  0.00    +0.000 C 
ATOM     12  C   UNL     1       1.897   6.935  20.423  0.00  0.00    +0.000 C 
BRANCH  12  13
ATOM     13  C   UNL     1       1.370   8.281  20.698  0.00  0.00    +0.000 A 
ATOM     14  C   UNL     1       0.996   8.643  21.988  0.00  0.00    +0.000 A 
ATOM     15  C   UNL     1       0.501   9.928  22.207  0.00  0.00    +0.000 A 
ATOM     16  C   UNL     1       0.396  10.810  21.141  0.00  0.00    +0.000 A 
ATOM     17  C   UNL     1       0.790  10.370  19.891  0.00  0.00    +0.000 A 
ATOM     18  N   UNL     1       1.269   9.131  19.649  0.00  0.00    +0.000 NA
ENDBRANCH  12  13
ENDBRANCH   7  11
BRANCH   1  19
ATOM     19  S   UNL     1       5.129   4.486  16.145  0.00  0.00    +0.000 S 
BRANCH  19  26
ATOM     20  F   UNL     1       8.626   5.142  19.896  0.00  0.00    +0.000 F 
ATOM     21  C   UNL     1       7.942   5.674  18.874  0.00  0.00    +0.000 A 
ATOM     22  C   UNL     1       8.078   7.025  18.596  0.00  0.00    +0.000 A 
ATOM     23  C   UNL     1       7.355   7.559  17.540  0.00  0.00    +0.000 A 
ATOM     24  F   UNL     1       7.471   8.863  17.256  0.00  0.00    +0.000 F 
ATOM     25  C   UNL     1       6.497   6.766  16.780  0.00  0.00    +0.000 A 
ATOM     26  C   UNL     1       6.349   5.403  17.072  0.00  0.00    +0.000 A 
ATOM     27  C   UNL     1       7.091   4.860  18.126  0.00  0.00    +0.000 A 
ENDBRANCH  19  26
ENDBRANCH   1  19
TORSDOF 4
ENDMDL
MODEL 2
REMARK VINA RESULT:      -8.5      4.507      7.163
REMARK  Name = 
REMARK  4 active torsions:
REMARK  status: ('A' for Active; 'I' for Inactive)
REMARK    1  A    between atoms: C_7  and  S_8
REMARK    2  A    between atoms: S_8  and  C_9
REMARK    3  A    between atoms: C_15  and  C_16
REMARK    4  A    between atoms: C_17  and  C_18
REMARK                            x       y       z     vdW  Elec       q    Type
REMARK                         _______ _______ _______ _____ _____    ______ ____
ROOT
ATOM      1  C   UNL     1       3.790   6.168  17.817  0.00  0.00    +0.000 A 
ATOM      2  C   UNL     1       3.957   5.016  17.042  0.00  0.00    +0.000 A 
ATOM      3  C   UNL     1       5.166   4.742  16.396  0.00  0.00    +0.000 A 
ATOM      4  C   UNL     1       6.191   5.682  16.540  0.00  0.00    +0.000 A 
ATOM      5  N   UNL     1       7.457   5.719  16.026  0.00  0.00    +0.000 N 
ATOM      6  N   UNL     1       8.148   6.820  16.344  0.00  0.00    +0.000 NA
ATOM      7  C   UNL     1       7.317   7.522  17.129  0.00  0.00    +0.000 A 
ATOM      8  C   UNL     1       6.063   6.851  17.285  0.00  0.00    +0.000 A 
ATOM      9  C   UNL     1       4.833   7.101  17.929  0.00  0.00    +0.000 A 
ATOM     10  H   UNL     1       7.905   5.030  15.434  0.00  0.00    +0.000 HD
ENDROOT
BRANCH   7  11
ATOM     11  C   UNL     1       7.710   8.794  17.656  0.00  0.00    +0.000 C 
ATOM     12  C   UNL     1       8.715   9.050  18.511  0.00  0.00    +0.000 C 
BRANCH  12  13
ATOM     13  C   UNL     1       9.044  10.404  18.980  0.00  0.00    +0.000 A 
ATOM     14  C   UNL     1       9.451  10.617  20.293  0.00  0.00    +0.000 A 
ATOM     15  C   UNL     1       9.754  11.915  20.700  0.00  0.00    +0.000 A 
ATOM     16  C   UNL     1       9.645  12.958  19.791  0.00  0.00    +0.000 A 
ATOM     17  C   UNL     1       9.234  12.660  18.505  0.00  0.00    +0.000 A 
ATOM     18  N   UNL     1       8.931  11.414  18.085  0.00  0.00    +0.000 NA
ENDBRANCH  12  13
ENDBRANCH   7  11
BRANCH   1  19
ATOM     19  S   UNL     1       2.219   6.506  18.586  0.00  0.00    +0.000 S 
BRANCH  19  26
ATOM     20  F   UNL     1       2.302   3.273  22.620  0.00  0.00    +0.000 F 
ATOM     21  C   UNL     1       1.930   3.501  21.353  0.00  0.00    +0.000 A 
ATOM     22  C   UNL     1       1.327   2.484  20.629  0.00  0.00    +0.000 A 
ATOM     23  C   UNL     1       0.957   2.735  19.318  0.00  0.00    +0.000 A 
ATOM     24  F   UNL     1       0.375   1.766  18.600  0.00  0.00    +0.000 F 
ATOM     25  C   UNL     1       1.197   3.974  18.726  0.00  0.00    +0.000 A 
ATOM     26  C   UNL     1       1.820   4.996  19.454  0.00  0.00    +0.000 A 
ATOM     27  C   UNL     1       2.178   4.749  20.783  0.00  0.00    +0.000 A 
ENDBRANCH  19  26
ENDBRANCH   1  19
TORSDOF 4
ENDMDL
MODEL 3
REMARK VINA RESULT:      -8.5      0.543      1.863
REMARK  Name = 
REMARK  4 active torsions:
REMARK  status: ('A' for Active; 'I' for Inactive)
REMARK    1  A    between atoms: C_7  and  S_8
REMARK    2  A    between atoms: S_8  and  C_9
REMARK    3  A    between atoms: C_15  and  C_16
REMARK    4  A    between atoms: C_17  and  C_18
REMARK                            x       y       z     vdW  Elec       q    Type
REMARK                         _______ _______ _______ _____ _____    ______ ____
ROOT
ATOM      1  C   UNL     1       4.074   3.745  17.434  0.00  0.00    +0.000 A 
ATOM      2  C   UNL     1       4.098   2.363  17.651  0.00  0.00    +0.000 A 
ATOM      3  C   UNL     1       3.295   1.765  18.627  0.00  0.00    +0.000 A 
ATOM      4  C   UNL     1       2.486   2.611  19.390  0.00  0.00    +0.000 A 
ATOM      5  N   UNL     1       1.623   2.347  20.416  0.00  0.00    +0.000 N 
ATOM      6  N   UNL     1       1.051   3.433  20.948  0.00  0.00    +0.000 NA
ATOM      7  C   UNL     1       1.528   4.453  20.220  0.00  0.00    +0.000 A 
ATOM      8  C   UNL     1       2.444   3.992  19.223  0.00  0.00    +0.000 A 
ATOM      9  C   UNL     1       3.262   4.569  18.228  0.00  0.00    +0.000 A 
ATOM     10  H   UNL     1       1.393   1.444  20.814  0.00  0.00    +0.000 HD
ENDROOT
BRANCH   7  11
ATOM     11  C   UNL     1       1.148   5.802  20.516  0.00  0.00    +0.000 C 
ATOM     12  C   UNL     1       1.881   6.915  20.340  0.00  0.00    +0.000 C 
BRANCH  12  13
ATOM     13  C   UNL     1       1.387   8.261  20.666  0.00  0.00    +0.000 A 
ATOM     14  C   UNL     1       1.148   9.189  19.658  0.00  0.00    +0.000 A 
ATOM     15  C   UNL     1       0.680  10.455  20.007  0.00  0.00    +0.000 A 
ATOM     16  C   UNL     1       0.463  10.756  21.345  0.00  0.00    +0.000 A 
ATOM     17  C   UNL     1       0.725   9.776  22.284  0.00  0.00    +0.000 A 
ATOM     18  N   UNL     1       1.182   8.545  21.974  0.00  0.00    +0.000 NA
ENDBRANCH  12  13
ENDBRANCH   7  11
BRANCH   1  19
ATOM     19  S   UNL     1       5.147   4.475  16.214  0.00  0.00    +0.000 S 
BRANCH  19  26
ATOM     20  F   UNL     1       7.569   8.923  17.253  0.00  0.00    +0.000 F 
ATOM     21  C   UNL     1       7.368   7.637  17.571  0.00  0.00    +0.000 A 
ATOM     22  C   UNL     1       8.116   7.064  18.587  0.00  0.00    +0.000 A 
ATOM     23  C   UNL     1       7.900   5.730  18.895  0.00  0.00    +0.000 A 
ATOM     24  F   UNL     1       8.614   5.156  19.872  0.00  0.00    +0.000 F 
ATOM     25  C   UNL     1       6.966   4.970  18.193  0.00  0.00    +0.000 A 
ATOM     26  C   UNL     1       6.221   5.547  17.156  0.00  0.00    +0.000 A 
ATOM     27  C   UNL     1       6.426   6.897  16.855  0.00  0.00    +0.000 A 
ENDBRANCH  19  26
ENDBRANCH   1  19
TORSDOF 4
ENDMDL
MODEL 4
REMARK VINA RESULT:      -8.5      4.111      6.952
REMARK  Name = 
REMARK  4 active torsions:
REMARK  status: ('A' for Active; 'I' for Inactive)
REMARK    1  A    between atoms: C_7  and  S_8
REMARK    2  A    between atoms: S_8  and  C_9
REMARK    3  A    between atoms: C_15  and  C_16
REMARK    4  A    between atoms: C_17  and  C_18
REMARK                            x       y       z     vdW  Elec       q    Type
REMARK                         _______ _______ _______ _____ _____    ______ ____
ROOT
ATOM      1  C   UNL     1       4.137   5.032  18.546  0.00  0.00    +0.000 A 
ATOM      2  C   UNL     1       4.054   4.150  17.464  0.00  0.00    +0.000 A 
ATOM      3  C   UNL     1       5.011   4.157  16.445  0.00  0.00    +0.000 A 
ATOM      4  C   UNL     1       6.040   5.098  16.544  0.00  0.00    +0.000 A 
ATOM      5  N   UNL     1       7.094   5.371  15.718  0.00  0.00    +0.000 N 
ATOM      6  N   UNL     1       7.858   6.393  16.119  0.00  0.00    +0.000 NA
ATOM      7  C   UNL     1       7.307   6.788  17.277  0.00  0.00    +0.000 A 
ATOM      8  C   UNL     1       6.152   6.006  17.593  0.00  0.00    +0.000 A 
ATOM      9  C   UNL     1       5.173   5.976  18.610  0.00  0.00    +0.000 A 
ATOM     10  H   UNL     1       7.337   4.906  14.851  0.00  0.00    +0.000 HD
ENDROOT
BRANCH   7  11
ATOM     11  C   UNL     1       7.851   7.895  18.004  0.00  0.00    +0.000 C 
ATOM     12  C   UNL     1       8.207   9.097  17.517  0.00  0.00    +0.000 C 
BRANCH  12  13
ATOM     13  C   UNL     1       8.746  10.176  18.359  0.00  0.00    +0.000 A 
ATOM     14  C   UNL     1       8.842  11.474  17.868  0.00  0.00    +0.000 A 
ATOM     15  C   UNL     1       9.358  12.468  18.697  0.00  0.00    +0.000 A 
ATOM     16  C   UNL     1       9.760  12.142  19.985  0.00  0.00    +0.000 A 
ATOM     17  C   UNL     1       9.631  10.828  20.395  0.00  0.00    +0.000 A 
ATOM     18  N   UNL     1       9.138   9.845  19.613  0.00  0.00    +0.000 NA
ENDBRANCH  12  13
ENDBRANCH   7  11
BRANCH   1  19
ATOM     19  S   UNL     1       2.872   5.025  19.801  0.00  0.00    +0.000 S 
BRANCH  19  26
ATOM     20  F   UNL     1       1.793   9.532  17.508  0.00  0.00    +0.000 F 
ATOM     21  C   UNL     1       1.711   8.766  18.605  0.00  0.00    +0.000 A 
ATOM     22  C   UNL     1       1.163   9.294  19.763  0.00  0.00    +0.000 A 
ATOM     23  C   UNL     1       1.096   8.490  20.890  0.00  0.00    +0.000 A 
ATOM     24  F   UNL     1       0.572   8.981  22.020  0.00  0.00    +0.000 F 
ATOM     25  C   UNL     1       1.581   7.183  20.872  0.00  0.00    +0.000 A 
ATOM     26  C   UNL     1       2.148   6.655  19.705  0.00  0.00    +0.000 A 
ATOM     27  C   UNL     1       2.201   7.460  18.562  0.00  0.00    +0.000 A 
ENDBRANCH  19  26
ENDBRANCH   1  19
TORSDOF 4
ENDMDL
MODEL 5
REMARK VINA RESULT:      -8.4      4.021      6.819
REMARK  Name = 
REMARK  4 active torsions:
REMARK  status: ('A' for Active; 'I' for Inactive)
REMARK    1  A    between atoms: C_7  and  S_8
REMARK    2  A    between atoms: S_8  and  C_9
REMARK    3  A    between atoms: C_15  and  C_16
REMARK    4  A    between atoms: C_17  and  C_18
REMARK                            x       y       z     vdW  Elec       q    Type
REMARK                         _______ _______ _______ _____ _____    ______ ____
ROOT
ATOM      1  C   UNL     1       3.895   5.125  18.718  0.00  0.00    +0.000 A 
ATOM      2  C   UNL     1       3.691   4.205  17.685  0.00  0.00    +0.000 A 
ATOM      3  C   UNL     1       4.603   4.078  16.633  0.00  0.00    +0.000 A 
ATOM      4  C   UNL     1       5.713   4.926  16.648  0.00  0.00    +0.000 A 
ATOM      5  N   UNL     1       6.753   5.065  15.771  0.00  0.00    +0.000 N 
ATOM      6  N   UNL     1       7.620   6.031  16.094  0.00  0.00    +0.000 NA
ATOM      7  C   UNL     1       7.154   6.528  17.249  0.00  0.00    +0.000 A 
ATOM      8  C   UNL     1       5.948   5.869  17.645  0.00  0.00    +0.000 A 
ATOM      9  C   UNL     1       5.012   5.974  18.697  0.00  0.00    +0.000 A 
ATOM     10  H   UNL     1       6.919   4.540  14.921  0.00  0.00    +0.000 HD
ENDROOT
BRANCH   7  11
ATOM     11  C   UNL     1       7.822   7.614  17.900  0.00  0.00    +0.000 C 
ATOM     12  C   UNL     1       7.845   8.904  17.521  0.00  0.00    +0.000 C 
BRANCH  12  13
ATOM     13  C   UNL     1       8.556   9.949  18.274  0.00  0.00    +0.000 A 
ATOM     14  C   UNL     1       8.713  11.222  17.738  0.00  0.00    +0.000 A 
ATOM     15  C   UNL     1       9.393  12.185  18.483  0.00  0.00    +0.000 A 
ATOM     16  C   UNL     1       9.891  11.852  19.735  0.00  0.00    +0.000 A 
ATOM     17  C   UNL     1       9.690  10.563  20.194  0.00  0.00    +0.000 A 
ATOM     18  N   UNL     1       9.039   9.612  19.493  0.00  0.00    +0.000 NA
ENDBRANCH  12  13
ENDBRANCH   7  11
BRANCH   1  19
ATOM     19  S   UNL     1       2.686   5.291  20.016  0.00  0.00    +0.000 S 
BRANCH  19  26
ATOM     20  F   UNL     1       0.264   9.555  21.652  0.00  0.00    +0.000 F 
ATOM     21  C   UNL     1       0.934   8.933  20.672  0.00  0.00    +0.000 A 
ATOM     22  C   UNL     1       1.086   9.564  19.447  0.00  0.00    +0.000 A 
ATOM     23  C   UNL     1       1.773   8.901  18.443  0.00  0.00    +0.000 A 
ATOM     24  F   UNL     1       1.930   9.492  17.251  0.00  0.00    +0.000 F 
ATOM     25  C   UNL     1       2.289   7.622  18.645  0.00  0.00    +0.000 A 
ATOM     26  C   UNL     1       2.121   6.979  19.879  0.00  0.00    +0.000 A 
ATOM     27  C   UNL     1       1.442   7.654  20.899  0.00  0.00    +0.000 A 
ENDBRANCH  19  26
ENDBRANCH   1  19
TORSDOF 4
ENDMDL
MODEL 6
REMARK VINA RESULT:      -8.4      4.123      6.835
REMARK  Name = 
REMARK  4 active torsions:
REMARK  status: ('A' for Active; 'I' for Inactive)
REMARK    1  A    between atoms: C_7  and  S_8
REMARK    2  A    between atoms: S_8  and  C_9
REMARK    3  A    between atoms: C_15  and  C_16
REMARK    4  A    between atoms: C_17  and  C_18
REMARK                            x       y       z     vdW  Elec       q    Type
REMARK                         _______ _______ _______ _____ _____    ______ ____
ROOT
ATOM      1  C   UNL     1       4.069   5.179  18.544  0.00  0.00    +0.000 A 
ATOM      2  C   UNL     1       4.016   4.276  17.477  0.00  0.00    +0.000 A 
ATOM      3  C   UNL     1       4.994   4.273  16.478  0.00  0.00    +0.000 A 
ATOM      4  C   UNL     1       6.012   5.225  16.580  0.00  0.00    +0.000 A 
ATOM      5  N   UNL     1       7.080   5.492  15.770  0.00  0.00    +0.000 N 
ATOM      6  N   UNL     1       7.826   6.529  16.167  0.00  0.00    +0.000 NA
ATOM      7  C   UNL     1       7.248   6.942  17.305  0.00  0.00    +0.000 A 
ATOM      8  C   UNL     1       6.094   6.155  17.613  0.00  0.00    +0.000 A 
ATOM      9  C   UNL     1       5.095   6.134  18.610  0.00  0.00    +0.000 A 
ATOM     10  H   UNL     1       7.345   5.013  14.918  0.00  0.00    +0.000 HD
ENDROOT
BRANCH   7  11
ATOM     11  C   UNL     1       7.767   8.068  18.021  0.00  0.00    +0.000 C 
ATOM     12  C   UNL     1       8.270   9.203  17.507  0.00  0.00    +0.000 C 
BRANCH  12  13
ATOM     13  C   UNL     1       8.766  10.310  18.338  0.00  0.00    +0.000 A 
ATOM     14  C   UNL     1       9.298  10.063  19.599  0.00  0.00    +0.000 A 
ATOM     15  C   UNL     1       9.758  11.140  20.356  0.00  0.00    +0.000 A 
ATOM     16  C   UNL     1       9.677  12.424  19.835  0.00  0.00    +0.000 A 
ATOM     17  C   UNL     1       9.135  12.581  18.573  0.00  0.00    +0.000 A 
ATOM     18  N   UNL     1       8.680  11.558  17.820  0.00  0.00    +0.000 NA
ENDBRANCH  12  13
ENDBRANCH   7  11
BRANCH   1  19
ATOM     19  S   UNL     1       2.779   5.184  19.772  0.00  0.00    +0.000 S 
BRANCH  19  26
ATOM     20  F   UNL     1       0.452   9.308  21.847  0.00  0.00    +0.000 F 
ATOM     21  C   UNL     1       1.046   8.755  20.782  0.00  0.00    +0.000 A 
ATOM     22  C   UNL     1       1.091   9.458  19.588  0.00  0.00    +0.000 A 
ATOM     23  C   UNL     1       1.702   8.865  18.494  0.00  0.00    +0.000 A 
ATOM     24  F   UNL     1       1.755   9.527  17.331  0.00  0.00    +0.000 F 
ATOM     25  C   UNL     1       2.246   7.585  18.578  0.00  0.00    +0.000 A 
ATOM     26  C   UNL     1       2.186   6.869  19.781  0.00  0.00    +0.000 A 
ATOM     27  C   UNL     1       1.585   7.473  20.891  0.00  0.00    +0.000 A 
ENDBRANCH  19  26
ENDBRANCH   1  19
TORSDOF 4
ENDMDL
MODEL 7
REMARK VINA RESULT:      -8.2      4.574      7.337
REMARK  Name = 
REMARK  4 active torsions:
REMARK  status: ('A' for Active; 'I' for Inactive)
REMARK    1  A    between atoms: C_7  and  S_8
REMARK    2  A    between atoms: S_8  and  C_9
REMARK    3  A    between atoms: C_15  and  C_16
REMARK    4  A    between atoms: C_17  and  C_18
REMARK                            x       y       z     vdW  Elec       q    Type
REMARK                         _______ _______ _______ _____ _____    ______ ____
ROOT
ATOM      1  C   UNL     1       3.906   6.231  17.799  0.00  0.00    +0.000 A 
ATOM      2  C   UNL     1       4.109   5.139  16.949  0.00  0.00    +0.000 A 
ATOM      3  C   UNL     1       5.329   4.941  16.297  0.00  0.00    +0.000 A 
ATOM      4  C   UNL     1       6.328   5.895  16.513  0.00  0.00    +0.000 A 
ATOM      5  N   UNL     1       7.597   6.000  16.015  0.00  0.00    +0.000 N 
ATOM      6  N   UNL     1       8.255   7.094  16.413  0.00  0.00    +0.000 NA
ATOM      7  C   UNL     1       7.401   7.719  17.237  0.00  0.00    +0.000 A 
ATOM      8  C   UNL     1       6.164   7.007  17.335  0.00  0.00    +0.000 A 
ATOM      9  C   UNL     1       4.922   7.180  17.983  0.00  0.00    +0.000 A 
ATOM     10  H   UNL     1       8.066   5.365  15.381  0.00  0.00    +0.000 HD
ENDROOT
BRANCH   7  11
ATOM     11  C   UNL     1       7.756   8.962  17.852  0.00  0.00    +0.000 C 
ATOM     12  C   UNL     1       8.867   9.238  18.556  0.00  0.00    +0.000 C 
BRANCH  12  13
ATOM     13  C   UNL     1       9.142  10.561  19.137  0.00  0.00    +0.000 A 
ATOM     14  C   UNL     1       9.297  11.674  18.318  0.00  0.00    +0.000 A 
ATOM     15  C   UNL     1       9.556  12.910  18.907  0.00  0.00    +0.000 A 
ATOM     16  C   UNL     1       9.651  13.001  20.289  0.00  0.00    +0.000 A 
ATOM     17  C   UNL     1       9.483  11.846  21.030  0.00  0.00    +0.000 A 
ATOM     18  N   UNL     1       9.235  10.636  20.486  0.00  0.00    +0.000 NA
ENDBRANCH  12  13
ENDBRANCH   7  11
BRANCH   1  19
ATOM     19  S   UNL     1       2.320   6.474  18.575  0.00  0.00    +0.000 S 
BRANCH  19  26
ATOM     20  F   UNL     1       0.221   1.751  18.662  0.00  0.00    +0.000 F 
ATOM     21  C   UNL     1       0.898   2.706  19.313  0.00  0.00    +0.000 A 
ATOM     22  C   UNL     1       1.208   2.525  20.652  0.00  0.00    +0.000 A 
ATOM     23  C   UNL     1       1.901   3.528  21.311  0.00  0.00    +0.000 A 
ATOM     24  F   UNL     1       2.208   3.375  22.606  0.00  0.00    +0.000 F 
ATOM     25  C   UNL     1       2.267   4.703  20.655  0.00  0.00    +0.000 A 
ATOM     26  C   UNL     1       1.940   4.890  19.306  0.00  0.00    +0.000 A 
ATOM     27  C   UNL     1       1.256   3.871  18.635  0.00  0.00    +0.000 A 
ENDBRANCH  19  26
ENDBRANCH   1  19
TORSDOF 4
ENDMDL
MODEL 8
REMARK VINA RESULT:      -8.1      4.328      8.207
REMARK  Name = 
REMARK  4 active torsions:
REMARK  status: ('A' for Active; 'I' for Inactive)
REMARK    1  A    between atoms: C_7  and  S_8
REMARK    2  A    between atoms: S_8  and  C_9
REMARK    3  A    between atoms: C_15  and  C_16
REMARK    4  A    between atoms: C_17  and  C_18
REMARK                            x       y       z     vdW  Elec       q    Type
REMARK                         _______ _______ _______ _____ _____    ______ ____
ROOT
ATOM      1  C   UNL     1       2.449   8.032  18.541  0.00  0.00    +0.000 A 
ATOM      2  C   UNL     1       1.907   7.639  19.769  0.00  0.00    +0.000 A 
ATOM      3  C   UNL     1       2.067   6.336  20.251  0.00  0.00    +0.000 A 
ATOM      4  C   UNL     1       2.771   5.440  19.441  0.00  0.00    +0.000 A 
ATOM      5  N   UNL     1       3.073   4.118  19.611  0.00  0.00    +0.000 N 
ATOM      6  N   UNL     1       3.729   3.567  18.584  0.00  0.00    +0.000 NA
ATOM      7  C   UNL     1       3.900   4.574  17.716  0.00  0.00    +0.000 A 
ATOM      8  C   UNL     1       3.311   5.783  18.205  0.00  0.00    +0.000 A 
ATOM      9  C   UNL     1       3.137   7.106  17.744  0.00  0.00    +0.000 A 
ATOM     10  H   UNL     1       2.841   3.527  20.401  0.00  0.00    +0.000 HD
ENDROOT
BRANCH   7  11
ATOM     11  C   UNL     1       4.558   4.356  16.463  0.00  0.00    +0.000 C 
ATOM     12  C   UNL     1       5.504   5.121  15.892  0.00  0.00    +0.000 C 
BRANCH  12  13
ATOM     13  C   UNL     1       6.127   4.796  14.600  0.00  0.00    +0.000 A 
ATOM     14  C   UNL     1       5.537   3.873  13.743  0.00  0.00    +0.000 A 
ATOM     15  C   UNL     1       6.159   3.592  12.528  0.00  0.00    +0.000 A 
ATOM     16  C   UNL     1       7.344   4.238  12.202  0.00  0.00    +0.000 A 
ATOM     17  C   UNL     1       7.863   5.142  13.111  0.00  0.00    +0.000 A 
ATOM     18  N   UNL     1       7.284   5.430  14.295  0.00  0.00    +0.000 NA
ENDBRANCH  12  13
ENDBRANCH   7  11
BRANCH   1  19
ATOM     19  S   UNL     1       2.183   9.688  17.940  0.00  0.00    +0.000 S 
BRANCH  19  26
ATOM     20  F   UNL     1      -2.905   9.622  17.022  0.00  0.00    +0.000 F 
ATOM     21  C   UNL     1      -1.898  10.009  17.817  0.00  0.00    +0.000 A 
ATOM     22  C   UNL     1      -2.168  10.817  18.910  0.00  0.00    +0.000 A 
ATOM     23  C   UNL     1      -1.113  11.214  19.716  0.00  0.00    +0.000 A 
ATOM     24  F   UNL     1      -1.352  11.997  20.776  0.00  0.00    +0.000 F 
ATOM     25  C   UNL     1       0.196  10.829  19.431  0.00  0.00    +0.000 A 
ATOM     26  C   UNL     1       0.470  10.024  18.317  0.00  0.00    +0.000 A 
ATOM     27  C   UNL     1      -0.597   9.608  17.513  0.00  0.00    +0.000 A 
ENDBRANCH  19  26
ENDBRANCH   1  19
TORSDOF 4
ENDMDL
MODEL 9
REMARK VINA RESULT:      -8.1      4.480      7.005
REMARK  Name = 
REMARK  4 active torsions:
REMARK  status: ('A' for Active; 'I' for Inactive)
REMARK    1  A    between atoms: C_7  and  S_8
REMARK    2  A    between atoms: S_8  and  C_9
REMARK    3  A    between atoms: C_15  and  C_16
REMARK    4  A    between atoms: C_17  and  C_18
REMARK                            x       y       z     vdW  Elec       q    Type
REMARK                         _______ _______ _______ _____ _____    ______ ____
ROOT
ATOM      1  C   UNL     1       3.764   5.436  17.686  0.00  0.00    +0.000 A 
ATOM      2  C   UNL     1       3.966   4.441  16.724  0.00  0.00    +0.000 A 
ATOM      3  C   UNL     1       5.142   4.386  15.969  0.00  0.00    +0.000 A 
ATOM      4  C   UNL     1       6.094   5.383  16.202  0.00  0.00    +0.000 A 
ATOM      5  N   UNL     1       7.311   5.618  15.625  0.00  0.00    +0.000 N 
ATOM      6  N   UNL     1       7.931   6.715  16.076  0.00  0.00    +0.000 NA
ATOM      7  C   UNL     1       7.107   7.203  17.015  0.00  0.00    +0.000 A 
ATOM      8  C   UNL     1       5.928   6.403  17.134  0.00  0.00    +0.000 A 
ATOM      9  C   UNL     1       4.732   6.432  17.885  0.00  0.00    +0.000 A 
ATOM     10  H   UNL     1       7.767   5.076  14.902  0.00  0.00    +0.000 HD
ENDROOT
BRANCH   7  11
ATOM     11  C   UNL     1       7.432   8.408  17.717  0.00  0.00    +0.000 C 
ATOM     12  C   UNL     1       8.644   8.974  17.850  0.00  0.00    +0.000 C 
BRANCH  12  13
ATOM     13  C   UNL     1       8.867  10.228  18.586  0.00  0.00    +0.000 A 
ATOM     14  C   UNL     1       8.763  11.455  17.939  0.00  0.00    +0.000 A 
ATOM     15  C   UNL     1       8.982  12.621  18.671  0.00  0.00    +0.000 A 
ATOM     16  C   UNL     1       9.295  12.530  20.021  0.00  0.00    +0.000 A 
ATOM     17  C   UNL     1       9.378  11.271  20.586  0.00  0.00    +0.000 A 
ATOM     18  N   UNL     1       9.174  10.127  19.901  0.00  0.00    +0.000 NA
ENDBRANCH  12  13
ENDBRANCH   7  11
BRANCH   1  19
ATOM     19  S   UNL     1       2.233   5.500  18.594  0.00  0.00    +0.000 S 
BRANCH  19  26
ATOM     20  F   UNL     1       0.571   2.501  22.463  0.00  0.00    +0.000 F 
ATOM     21  C   UNL     1       1.543   2.794  21.589  0.00  0.00    +0.000 A 
ATOM     22  C   UNL     1       2.745   2.107  21.656  0.00  0.00    +0.000 A 
ATOM     23  C   UNL     1       3.743   2.431  20.749  0.00  0.00    +0.000 A 
ATOM     24  F   UNL     1       4.912   1.781  20.797  0.00  0.00    +0.000 F 
ATOM     25  C   UNL     1       3.556   3.434  19.799  0.00  0.00    +0.000 A 
ATOM     26  C   UNL     1       2.345   4.138  19.744  0.00  0.00    +0.000 A 
ATOM     27  C   UNL     1       1.332   3.801  20.647  0.00  0.00    +0.000 A 
ENDBRANCH  19  26
ENDBRANCH   1  19
TORSDOF 4
ENDMDL
