MODEL 1
REMARK VINA RESULT:      -7.0      0.000      0.000
REMARK  Name = 
REMARK  8 active torsions:
REMARK  status: ('A' for Active; 'I' for Inactive)
REMARK    1  A    between atoms: C_1  and  C_2
REMARK    2  A    between atoms: C_2  and  C_3
REMARK    3  A    between atoms: C_3  and  N_4
REMARK    4  A    between atoms: C_9  and  C_10
REMARK    5  A    between atoms: C_10  and  C_11
REMARK    6  A    between atoms: N_13  and  C_14
REMARK    7  A    between atoms: C_14  and  C_15
REMARK    8  A    between atoms: C_15  and  C_16
REMARK                            x       y       z     vdW  Elec       q    Type
REMARK                         _______ _______ _______ _____ _____    ______ ____
ROOT
ATOM      1  C   UNL     1       1.157   3.370  20.759  0.00  0.00    +0.000 C 
ENDROOT
BRANCH   1   7
ATOM      2  N   UNL     1       4.643   2.793  17.436  0.00  0.00    +0.000 N 
ATOM      3  C   UNL     1       3.478   2.569  18.106  0.00  0.00    +0.000 C 
ATOM      4  N   UNL     1       2.309   2.469  17.591  0.00  0.00    +0.000 NA
ATOM      5  C   UNL     1       1.320   2.251  18.516  0.00  0.00    +0.000 C 
ATOM      6  O   UNL     1       0.143   2.119  18.201  0.00  0.00    +0.000 OA
ATOM      7  C   UNL     1       1.784   2.231  19.966  0.00  0.00    +0.000 C 
ATOM      8  S   UNL     1       3.599   2.445  19.842  0.00  0.00    +0.000 S 
ATOM      9  H   UNL     1       5.434   3.011  18.031  0.00  0.00    +0.000 HD
BRANCH   2  10
ATOM     10  C   UNL     1       4.622   3.461  16.144  0.00  0.00    +0.000 C 
BRANCH  10  12
ATOM     11  C   UNL     1       6.036   4.237  14.217  0.00  0.00    +0.000 C 
ATOM     12  C   UNL     1       6.041   3.739  15.655  0.00  0.00    +0.000 C 
ENDBRANCH  10  12
ENDBRANCH   2  10
ENDBRANCH   1   7
BRANCH   1  13
ATOM     13  C   UNL     1       1.999   4.625  20.631  0.00  0.00    +0.000 C 
ATOM     14  O   UNL     1       2.674   5.046  21.566  0.00  0.00    +0.000 OA
ATOM     15  N   UNL     1       1.953   5.219  19.389  0.00  0.00    +0.000 N 
ATOM     16  H   UNL     1       1.182   4.978  18.775  0.00  0.00    +0.000 HD
BRANCH  15  17
ATOM     17  C   UNL     1       2.560   6.526  19.183  0.00  0.00    +0.000 C 
BRANCH  17  18
ATOM     18  C   UNL     1       3.399   6.602  17.899  0.00  0.00    +0.000 C 
BRANCH  18  19
ATOM     19  C   UNL     1       4.891   6.403  18.086  0.00  0.00    +0.000 A 
ATOM     20  C   UNL     1       5.415   5.618  19.122  0.00  0.00    +0.000 A 
ATOM     21  C   UNL     1       6.793   5.506  19.306  0.00  0.00    +0.000 A 
ATOM     22  C   UNL     1       7.669   6.150  18.438  0.00  0.00    +0.000 A 
ATOM     23  C   UNL     1       7.165   6.887  17.369  0.00  0.00    +0.000 A 
ATOM     24  C   UNL     1       5.785   7.007  17.189  0.00  0.00    +0.000 A 
ENDBRANCH  18  19
ENDBRANCH  17  18
ENDBRANCH  15  17
ENDBRANCH   1  13
TORSDOF 7
ENDMDL
MODEL 2
REMARK VINA RESULT:      -6.9      4.287      6.247
REMARK  Name = 
REMARK  8 active torsions:
REMARK  status: ('A' for Active; 'I' for Inactive)
REMARK    1  A    between atoms: C_1  and  C_2
REMARK    2  A    between atoms: C_2  and  C_3
REMARK    3  A    between atoms: C_3  and  N_4
REMARK    4  A    between atoms: C_9  and  C_10
REMARK    5  A    between atoms: C_10  and  C_11
REMARK    6  A    between atoms: N_13  and  C_14
REMARK    7  A    between atoms: C_14  and  C_15
REMARK    8  A    between atoms: C_15  and  C_16
REMARK                            x       y       z     vdW  Elec       q    Type
REMARK                         _______ _______ _______ _____ _____    ______ ____
ROOT
ATOM      1  C   UNL     1       5.524   6.461  17.362  0.00  0.00    +0.000 C 
ENDROOT
BRANCH   1   7
ATOM      2  N   UNL     1       3.295   2.643  19.358  0.00  0.00    +0.000 N 
ATOM      3  C   UNL     1       4.317   3.441  18.943  0.00  0.00    +0.000 C 
ATOM      4  N   UNL     1       5.316   3.830  19.646  0.00  0.00    +0.000 NA
ATOM      5  C   UNL     1       6.186   4.639  18.961  0.00  0.00    +0.000 C 
ATOM      6  O   UNL     1       7.202   5.094  19.472  0.00  0.00    +0.000 OA
ATOM      7  C   UNL     1       5.775   4.968  17.532  0.00  0.00    +0.000 C 
ATOM      8  S   UNL     1       4.227   4.016  17.299  0.00  0.00    +0.000 S 
ATOM      9  H   UNL     1       2.516   2.588  18.713  0.00  0.00    +0.000 HD
BRANCH   2  10
ATOM     10  C   UNL     1       2.951   2.577  20.770  0.00  0.00    +0.000 C 
BRANCH  10  12
ATOM     11  C   UNL     1       0.839   3.836  20.250  0.00  0.00    +0.000 C 
ATOM     12  C   UNL     1       2.053   3.746  21.164  0.00  0.00    +0.000 C 
ENDBRANCH  10  12
ENDBRANCH   2  10
ENDBRANCH   1   7
BRANCH   1  13
ATOM     13  C   UNL     1       6.823   7.181  17.059  0.00  0.00    +0.000 C 
ATOM     14  O   UNL     1       7.688   6.678  16.347  0.00  0.00    +0.000 OA
ATOM     15  N   UNL     1       6.928   8.432  17.626  0.00  0.00    +0.000 N 
ATOM     16  H   UNL     1       6.315   8.655  18.402  0.00  0.00    +0.000 HD
BRANCH  15  17
ATOM     17  C   UNL     1       8.193   9.151  17.574  0.00  0.00    +0.000 C 
BRANCH  17  18
ATOM     18  C   UNL     1       8.860   9.293  18.950  0.00  0.00    +0.000 C 
BRANCH  18  19
ATOM     19  C   UNL     1       9.630  10.580  19.170  0.00  0.00    +0.000 A 
ATOM     20  C   UNL     1      10.238  11.275  18.115  0.00  0.00    +0.000 A 
ATOM     21  C   UNL     1      10.994  12.422  18.358  0.00  0.00    +0.000 A 
ATOM     22  C   UNL     1      11.126  12.912  19.653  0.00  0.00    +0.000 A 
ATOM     23  C   UNL     1      10.480  12.266  20.705  0.00  0.00    +0.000 A 
ATOM     24  C   UNL     1       9.730  11.112  20.464  0.00  0.00    +0.000 A 
ENDBRANCH  18  19
ENDBRANCH  17  18
ENDBRANCH  15  17
ENDBRANCH   1  13
TORSDOF 7
ENDMDL
MODEL 3
REMARK VINA RESULT:      -6.9      4.016      5.791
REMARK  Name = 
REMARK  8 active torsions:
REMARK  status: ('A' for Active; 'I' for Inactive)
REMARK    1  A    between atoms: C_1  and  C_2
REMARK    2  A    between atoms: C_2  and  C_3
REMARK    3  A    between atoms: C_3  and  N_4
REMARK    4  A    between atoms: C_9  and  C_10
REMARK    5  A    between atoms: C_10  and  C_11
REMARK    6  A    between atoms: N_13  and  C_14
REMARK    7  A    between atoms: C_14  and  C_15
REMARK    8  A    between atoms: C_15  and  C_16
REMARK                            x       y       z     vdW  Elec       q    Type
REMARK                         _______ _______ _______ _____ _____    ______ ____
ROOT
ATOM      1  C   UNL     1       7.115   4.675  17.946  0.00  0.00    +0.000 C 
ENDROOT
BRANCH   1   7
ATOM      2  N   UNL     1       2.292   4.280  18.268  0.00  0.00    +0.000 N 
ATOM      3  C   UNL     1       3.518   4.418  17.692  0.00  0.00    +0.000 C 
ATOM      4  N   UNL     1       3.988   3.723  16.723  0.00  0.00    +0.000 NA
ATOM      5  C   UNL     1       5.260   4.083  16.358  0.00  0.00    +0.000 C 
ATOM      6  O   UNL     1       5.862   3.533  15.443  0.00  0.00    +0.000 OA
ATOM      7  C   UNL     1       5.888   5.185  17.201  0.00  0.00    +0.000 C 
ATOM      8  S   UNL     1       4.557   5.642  18.374  0.00  0.00    +0.000 S 
ATOM      9  H   UNL     1       2.169   4.804  19.127  0.00  0.00    +0.000 HD
BRANCH   2  10
ATOM     10  C   UNL     1       1.596   3.004  18.203  0.00  0.00    +0.000 C 
BRANCH  10  12
ATOM     11  C   UNL     1       1.057   3.817  20.519  0.00  0.00    +0.000 C 
ATOM     12  C   UNL     1       0.720   2.801  19.436  0.00  0.00    +0.000 C 
ENDBRANCH  10  12
ENDBRANCH   2  10
ENDBRANCH   1   7
BRANCH   1  13
ATOM     13  C   UNL     1       7.676   5.763  18.841  0.00  0.00    +0.000 C 
ATOM     14  O   UNL     1       7.801   5.601  20.052  0.00  0.00    +0.000 OA
ATOM     15  N   UNL     1       8.043   6.914  18.179  0.00  0.00    +0.000 N 
ATOM     16  H   UNL     1       7.664   7.070  17.251  0.00  0.00    +0.000 HD
BRANCH  15  17
ATOM     17  C   UNL     1       8.418   8.101  18.934  0.00  0.00    +0.000 C 
BRANCH  17  18
ATOM     18  C   UNL     1       8.424   9.378  18.079  0.00  0.00    +0.000 C 
BRANCH  18  19
ATOM     19  C   UNL     1       9.171  10.555  18.674  0.00  0.00    +0.000 A 
ATOM     20  C   UNL     1       9.585  10.574  20.014  0.00  0.00    +0.000 A 
ATOM     21  C   UNL     1      10.214  11.699  20.550  0.00  0.00    +0.000 A 
ATOM     22  C   UNL     1      10.469  12.806  19.748  0.00  0.00    +0.000 A 
ATOM     23  C   UNL     1      10.116  12.781  18.400  0.00  0.00    +0.000 A 
ATOM     24  C   UNL     1       9.478  11.659  17.866  0.00  0.00    +0.000 A 
ENDBRANCH  18  19
ENDBRANCH  17  18
ENDBRANCH  15  17
ENDBRANCH   1  13
TORSDOF 7
ENDMDL
MODEL 4
REMARK VINA RESULT:      -6.8      4.291      6.211
REMARK  Name = 
REMARK  8 active torsions:
REMARK  status: ('A' for Active; 'I' for Inactive)
REMARK    1  A    between atoms: C_1  and  C_2
REMARK    2  A    between atoms: C_2  and  C_3
REMARK    3  A    between atoms: C_3  and  N_4
REMARK    4  A    between atoms: C_9  and  C_10
REMARK    5  A    between atoms: C_10  and  C_11
REMARK    6  A    between atoms: N_13  and  C_14
REMARK    7  A    between atoms: C_14  and  C_15
REMARK    8  A    between atoms: C_15  and  C_16
REMARK                            x       y       z     vdW  Elec       q    Type
REMARK                         _______ _______ _______ _____ _____    ______ ____
ROOT
ATOM      1  C   UNL     1       5.468   6.467  17.291  0.00  0.00    +0.000 C 
ENDROOT
BRANCH   1   7
ATOM      2  N   UNL     1       3.155   2.750  19.379  0.00  0.00    +0.000 N 
ATOM      3  C   UNL     1       4.189   3.479  18.875  0.00  0.00    +0.000 C 
ATOM      4  N   UNL     1       5.296   3.741  19.464  0.00  0.00    +0.000 NA
ATOM      5  C   UNL     1       6.149   4.509  18.711  0.00  0.00    +0.000 C 
ATOM      6  O   UNL     1       7.257   4.846  19.111  0.00  0.00    +0.000 OA
ATOM      7  C   UNL     1       5.600   4.951  17.361  0.00  0.00    +0.000 C 
ATOM      8  S   UNL     1       3.954   4.150  17.282  0.00  0.00    +0.000 S 
ATOM      9  H   UNL     1       2.302   2.798  18.835  0.00  0.00    +0.000 HD
BRANCH   2  10
ATOM     10  C   UNL     1       2.979   2.636  20.819  0.00  0.00    +0.000 C 
BRANCH  10  12
ATOM     11  C   UNL     1       0.846   3.827  20.232  0.00  0.00    +0.000 C 
ATOM     12  C   UNL     1       1.895   3.590  21.310  0.00  0.00    +0.000 C 
ENDBRANCH  10  12
ENDBRANCH   2  10
ENDBRANCH   1   7
BRANCH   1  13
ATOM     13  C   UNL     1       6.811   7.096  16.974  0.00  0.00    +0.000 C 
ATOM     14  O   UNL     1       7.618   6.551  16.226  0.00  0.00    +0.000 OA
ATOM     15  N   UNL     1       7.025   8.318  17.574  0.00  0.00    +0.000 N 
ATOM     16  H   UNL     1       6.448   8.563  18.371  0.00  0.00    +0.000 HD
BRANCH  15  17
ATOM     17  C   UNL     1       8.339   8.942  17.509  0.00  0.00    +0.000 C 
BRANCH  17  18
ATOM     18  C   UNL     1       8.814   9.481  18.867  0.00  0.00    +0.000 C 
BRANCH  18  19
ATOM     19  C   UNL     1       9.478  10.843  18.828  0.00  0.00    +0.000 A 
ATOM     20  C   UNL     1      10.549  11.174  19.670  0.00  0.00    +0.000 A 
ATOM     21  C   UNL     1      11.098  12.457  19.656  0.00  0.00    +0.000 A 
ATOM     22  C   UNL     1      10.607  13.418  18.778  0.00  0.00    +0.000 A 
ATOM     23  C   UNL     1       9.582  13.088  17.894  0.00  0.00    +0.000 A 
ATOM     24  C   UNL     1       9.026  11.806  17.914  0.00  0.00    +0.000 A 
ENDBRANCH  18  19
ENDBRANCH  17  18
ENDBRANCH  15  17
ENDBRANCH   1  13
TORSDOF 7
ENDMDL
MODEL 5
REMARK VINA RESULT:      -6.8      3.457      5.825
REMARK  Name = 
REMARK  8 active torsions:
REMARK  status: ('A' for Active; 'I' for Inactive)
REMARK    1  A    between atoms: C_1  and  C_2
REMARK    2  A    between atoms: C_2  and  C_3
REMARK    3  A    between atoms: C_3  and  N_4
REMARK    4  A    between atoms: C_9  and  C_10
REMARK    5  A    between atoms: C_10  and  C_11
REMARK    6  A    between atoms: N_13  and  C_14
REMARK    7  A    between atoms: C_14  and  C_15
REMARK    8  A    between atoms: C_15  and  C_16
REMARK                            x       y       z     vdW  Elec       q    Type
REMARK                         _______ _______ _______ _____ _____    ______ ____
ROOT
ATOM      1  C   UNL     1       4.794   4.161  16.131  0.00  0.00    +0.000 C 
ENDROOT
BRANCH   1   7
ATOM      2  N   UNL     1       7.842   7.267  18.272  0.00  0.00    +0.000 N 
ATOM      3  C   UNL     1       7.406   6.310  17.406  0.00  0.00    +0.000 C 
ATOM      4  N   UNL     1       7.537   6.319  16.131  0.00  0.00    +0.000 NA
ATOM      5  C   UNL     1       6.987   5.222  15.517  0.00  0.00    +0.000 C 
ATOM      6  O   UNL     1       7.030   5.057  14.304  0.00  0.00    +0.000 OA
ATOM      7  C   UNL     1       6.281   4.245  16.449  0.00  0.00    +0.000 C 
ATOM      8  S   UNL     1       6.552   4.964  18.112  0.00  0.00    +0.000 S 
ATOM      9  H   UNL     1       7.496   7.167  19.218  0.00  0.00    +0.000 HD
BRANCH   2  10
ATOM     10  C   UNL     1       8.032   8.634  17.811  0.00  0.00    +0.000 C 
BRANCH  10  12
ATOM     11  C   UNL     1       9.106  10.850  18.311  0.00  0.00    +0.000 C 
ATOM     12  C   UNL     1       8.888   9.424  18.797  0.00  0.00    +0.000 C 
ENDBRANCH  10  12
ENDBRANCH   2  10
ENDBRANCH   1   7
BRANCH   1  13
ATOM     13  C   UNL     1       3.987   4.081  17.411  0.00  0.00    +0.000 C 
ATOM     14  O   UNL     1       3.997   3.077  18.119  0.00  0.00    +0.000 OA
ATOM     15  N   UNL     1       3.275   5.222  17.710  0.00  0.00    +0.000 N 
ATOM     16  H   UNL     1       3.102   5.884  16.961  0.00  0.00    +0.000 HD
BRANCH  15  17
ATOM     17  C   UNL     1       2.314   5.217  18.804  0.00  0.00    +0.000 C 
BRANCH  17  18
ATOM     18  C   UNL     1       2.580   6.319  19.841  0.00  0.00    +0.000 C 
BRANCH  18  19
ATOM     19  C   UNL     1       2.004   7.680  19.505  0.00  0.00    +0.000 A 
ATOM     20  C   UNL     1       2.104   8.236  18.222  0.00  0.00    +0.000 A 
ATOM     21  C   UNL     1       1.620   9.518  17.960  0.00  0.00    +0.000 A 
ATOM     22  C   UNL     1       0.999  10.250  18.966  0.00  0.00    +0.000 A 
ATOM     23  C   UNL     1       0.840   9.689  20.232  0.00  0.00    +0.000 A 
ATOM     24  C   UNL     1       1.332   8.410  20.497  0.00  0.00    +0.000 A 
ENDBRANCH  18  19
ENDBRANCH  17  18
ENDBRANCH  15  17
ENDBRANCH   1  13
TORSDOF 7
ENDMDL
MODEL 6
REMARK VINA RESULT:      -6.7      2.630      5.359
REMARK  Name = 
REMARK  8 active torsions:
REMARK  status: ('A' for Active; 'I' for Inactive)
REMARK    1  A    between atoms: C_1  and  C_2
REMARK    2  A    between atoms: C_2  and  C_3
REMARK    3  A    between atoms: C_3  and  N_4
REMARK    4  A    between atoms: C_9  and  C_10
REMARK    5  A    between atoms: C_10  and  C_11
REMARK    6  A    between atoms: N_13  and  C_14
REMARK    7  A    between atoms: C_14  and  C_15
REMARK    8  A    between atoms: C_15  and  C_16
REMARK                            x       y       z     vdW  Elec       q    Type
REMARK                         _______ _______ _______ _____ _____    ______ ____
ROOT
ATOM      1  C   UNL     1       5.383   5.644  18.977  0.00  0.00    +0.000 C 
ENDROOT
BRANCH   1   7
ATOM      2  N   UNL     1       6.553   5.164  14.295  0.00  0.00    +0.000 N 
ATOM      3  C   UNL     1       6.727   5.307  15.638  0.00  0.00    +0.000 C 
ATOM      4  N   UNL     1       7.475   4.590  16.391  0.00  0.00    +0.000 NA
ATOM      5  C   UNL     1       7.443   4.964  17.710  0.00  0.00    +0.000 C 
ATOM      6  O   UNL     1       8.106   4.396  18.570  0.00  0.00    +0.000 OA
ATOM      7  C   UNL     1       6.489   6.105  18.036  0.00  0.00    +0.000 C 
ATOM      8  S   UNL     1       5.803   6.573  16.404  0.00  0.00    +0.000 S 
ATOM      9  H   UNL     1       5.794   5.712  13.908  0.00  0.00    +0.000 HD
BRANCH   2  10
ATOM     10  C   UNL     1       6.782   3.872  13.665  0.00  0.00    +0.000 C 
BRANCH  10  12
ATOM     11  C   UNL     1       5.273   3.032  11.840  0.00  0.00    +0.000 C 
ATOM     12  C   UNL     1       6.455   3.930  12.175  0.00  0.00    +0.000 C 
ENDBRANCH  10  12
ENDBRANCH   2  10
ENDBRANCH   1   7
BRANCH   1  13
ATOM     13  C   UNL     1       4.188   5.154  18.182  0.00  0.00    +0.000 C 
ATOM     14  O   UNL     1       3.137   5.789  18.140  0.00  0.00    +0.000 OA
ATOM     15  N   UNL     1       4.396   3.969  17.511  0.00  0.00    +0.000 N 
ATOM     16  H   UNL     1       5.168   3.384  17.809  0.00  0.00    +0.000 HD
BRANCH  15  17
ATOM     17  C   UNL     1       3.280   3.291  16.867  0.00  0.00    +0.000 C 
BRANCH  17  18
ATOM     18  C   UNL     1       2.737   2.114  17.691  0.00  0.00    +0.000 C 
BRANCH  18  19
ATOM     19  C   UNL     1       2.343   2.446  19.116  0.00  0.00    +0.000 A 
ATOM     20  C   UNL     1       3.193   2.197  20.203  0.00  0.00    +0.000 A 
ATOM     21  C   UNL     1       2.777   2.454  21.509  0.00  0.00    +0.000 A 
ATOM     22  C   UNL     1       1.518   2.996  21.748  0.00  0.00    +0.000 A 
ATOM     23  C   UNL     1       0.683   3.304  20.676  0.00  0.00    +0.000 A 
ATOM     24  C   UNL     1       1.096   3.038  19.368  0.00  0.00    +0.000 A 
ENDBRANCH  18  19
ENDBRANCH  17  18
ENDBRANCH  15  17
ENDBRANCH   1  13
TORSDOF 7
ENDMDL
MODEL 7
REMARK VINA RESULT:      -6.7      2.674      5.419
REMARK  Name = 
REMARK  8 active torsions:
REMARK  status: ('A' for Active; 'I' for Inactive)
REMARK    1  A    between atoms: C_1  and  C_2
REMARK    2  A    between atoms: C_2  and  C_3
REMARK    3  A    between atoms: C_3  and  N_4
REMARK    4  A    between atoms: C_9  and  C_10
REMARK    5  A    between atoms: C_10  and  C_11
REMARK    6  A    between atoms: N_13  and  C_14
REMARK    7  A    between atoms: C_14  and  C_15
REMARK    8  A    between atoms: C_15  and  C_16
REMARK                            x       y       z     vdW  Elec       q    Type
REMARK                         _______ _______ _______ _____ _____    ______ ____
ROOT
ATOM      1  C   UNL     1       5.336   5.764  18.637  0.00  0.00    +0.000 C 
ENDROOT
BRANCH   1   7
ATOM      2  N   UNL     1       6.278   4.824  13.973  0.00  0.00    +0.000 N 
ATOM      3  C   UNL     1       6.517   5.086  15.288  0.00  0.00    +0.000 C 
ATOM      4  N   UNL     1       7.284   4.422  16.070  0.00  0.00    +0.000 NA
ATOM      5  C   UNL     1       7.321   4.916  17.350  0.00  0.00    +0.000 C 
ATOM      6  O   UNL     1       8.010   4.413  18.229  0.00  0.00    +0.000 OA
ATOM      7  C   UNL     1       6.408   6.107  17.609  0.00  0.00    +0.000 C 
ATOM      8  S   UNL     1       5.657   6.440  15.972  0.00  0.00    +0.000 S 
ATOM      9  H   UNL     1       5.514   5.354  13.570  0.00  0.00    +0.000 HD
BRANCH   2  10
ATOM     10  C   UNL     1       6.449   3.474  13.456  0.00  0.00    +0.000 C 
BRANCH  10  12
ATOM     11  C   UNL     1       4.639   3.344  11.718  0.00  0.00    +0.000 C 
ATOM     12  C   UNL     1       6.140   3.422  11.963  0.00  0.00    +0.000 C 
ENDBRANCH  10  12
ENDBRANCH   2  10
ENDBRANCH   1   7
BRANCH   1  13
ATOM     13  C   UNL     1       4.124   5.167  17.951  0.00  0.00    +0.000 C 
ATOM     14  O   UNL     1       3.048   5.758  17.913  0.00  0.00    +0.000 OA
ATOM     15  N   UNL     1       4.344   3.937  17.370  0.00  0.00    +0.000 N 
ATOM     16  H   UNL     1       5.153   3.406  17.674  0.00  0.00    +0.000 HD
BRANCH  15  17
ATOM     17  C   UNL     1       3.225   3.167  16.845  0.00  0.00    +0.000 C 
BRANCH  17  18
ATOM     18  C   UNL     1       2.825   1.995  17.754  0.00  0.00    +0.000 C 
BRANCH  18  19
ATOM     19  C   UNL     1       2.328   2.382  19.133  0.00  0.00    +0.000 A 
ATOM     20  C   UNL     1       1.061   2.944  19.339  0.00  0.00    +0.000 A 
ATOM     21  C   UNL     1       0.657   3.349  20.611  0.00  0.00    +0.000 A 
ATOM     22  C   UNL     1       1.500   3.168  21.703  0.00  0.00    +0.000 A 
ATOM     23  C   UNL     1       2.740   2.558  21.525  0.00  0.00    +0.000 A 
ATOM     24  C   UNL     1       3.149   2.161  20.250  0.00  0.00    +0.000 A 
ENDBRANCH  18  19
ENDBRANCH  17  18
ENDBRANCH  15  17
ENDBRANCH   1  13
TORSDOF 7
ENDMDL
MODEL 8
REMARK VINA RESULT:      -6.7      3.192      6.730
REMARK  Name = 
REMARK  8 active torsions:
REMARK  status: ('A' for Active; 'I' for Inactive)
REMARK    1  A    between atoms: C_1  and  C_2
REMARK    2  A    between atoms: C_2  and  C_3
REMARK    3  A    between atoms: C_3  and  N_4
REMARK    4  A    between atoms: C_9  and  C_10
REMARK    5  A    between atoms: C_10  and  C_11
REMARK    6  A    between atoms: N_13  and  C_14
REMARK    7  A    between atoms: C_14  and  C_15
REMARK    8  A    between atoms: C_15  and  C_16
REMARK                            x       y       z     vdW  Elec       q    Type
REMARK                         _______ _______ _______ _____ _____    ______ ____
ROOT
ATOM      1  C   UNL     1       3.948   7.301  17.748  0.00  0.00    +0.000 C 
ENDROOT
BRANCH   1   7
ATOM      2  N   UNL     1       0.760  10.241  19.918  0.00  0.00    +0.000 N 
ATOM      3  C   UNL     1       1.355   9.079  19.532  0.00  0.00    +0.000 C 
ATOM      4  N   UNL     1       1.705   8.111  20.296  0.00  0.00    +0.000 NA
ATOM      5  C   UNL     1       2.293   7.069  19.625  0.00  0.00    +0.000 C 
ATOM      6  O   UNL     1       2.680   6.055  20.193  0.00  0.00    +0.000 OA
ATOM      7  C   UNL     1       2.473   7.284  18.127  0.00  0.00    +0.000 C 
ATOM      8  S   UNL     1       1.705   8.920  17.831  0.00  0.00    +0.000 S 
ATOM      9  H   UNL     1       0.717  10.952  19.197  0.00  0.00    +0.000 HD
BRANCH   2  10
ATOM     10  C   UNL     1       0.933  10.732  21.277  0.00  0.00    +0.000 C 
BRANCH  10  12
ATOM     11  C   UNL     1      -0.295   9.474  23.073  0.00  0.00    +0.000 C 
ATOM     12  C   UNL     1      -0.368  10.614  22.066  0.00  0.00    +0.000 C 
ENDBRANCH  10  12
ENDBRANCH   2  10
ENDBRANCH   1   7
BRANCH   1  13
ATOM     13  C   UNL     1       4.547   5.917  17.907  0.00  0.00    +0.000 C 
ATOM     14  O   UNL     1       5.590   5.734  18.529  0.00  0.00    +0.000 OA
ATOM     15  N   UNL     1       3.816   4.908  17.320  0.00  0.00    +0.000 N 
ATOM     16  H   UNL     1       3.138   5.163  16.611  0.00  0.00    +0.000 HD
BRANCH  15  17
ATOM     17  C   UNL     1       4.369   3.563  17.234  0.00  0.00    +0.000 C 
BRANCH  17  18
ATOM     18  C   UNL     1       3.361   2.474  17.632  0.00  0.00    +0.000 C 
BRANCH  18  19
ATOM     19  C   UNL     1       2.676   2.681  18.968  0.00  0.00    +0.000 A 
ATOM     20  C   UNL     1       3.357   2.541  20.185  0.00  0.00    +0.000 A 
ATOM     21  C   UNL     1       2.684   2.675  21.400  0.00  0.00    +0.000 A 
ATOM     22  C   UNL     1       1.328   2.983  21.417  0.00  0.00    +0.000 A 
ATOM     23  C   UNL     1       0.648   3.182  20.217  0.00  0.00    +0.000 A 
ATOM     24  C   UNL     1       1.320   3.039  19.001  0.00  0.00    +0.000 A 
ENDBRANCH  18  19
ENDBRANCH  17  18
ENDBRANCH  15  17
ENDBRANCH   1  13
TORSDOF 7
ENDMDL
MODEL 9
REMARK VINA RESULT:      -6.5      2.837      4.952
REMARK  Name = 
REMARK  8 active torsions:
REMARK  status: ('A' for Active; 'I' for Inactive)
REMARK    1  A    between atoms: C_1  and  C_2
REMARK    2  A    between atoms: C_2  and  C_3
REMARK    3  A    between atoms: C_3  and  N_4
REMARK    4  A    between atoms: C_9  and  C_10
REMARK    5  A    between atoms: C_10  and  C_11
REMARK    6  A    between atoms: N_13  and  C_14
REMARK    7  A    between atoms: C_14  and  C_15
REMARK    8  A    between atoms: C_15  and  C_16
REMARK                            x       y       z     vdW  Elec       q    Type
REMARK                         _______ _______ _______ _____ _____    ______ ____
ROOT
ATOM      1  C   UNL     1       6.199   5.312  18.709  0.00  0.00    +0.000 C 
ENDROOT
BRANCH   1   7
ATOM      2  N   UNL     1       5.362   4.230  14.055  0.00  0.00    +0.000 N 
ATOM      3  C   UNL     1       5.687   4.979  15.146  0.00  0.00    +0.000 C 
ATOM      4  N   UNL     1       6.726   5.715  15.283  0.00  0.00    +0.000 NA
ATOM      5  C   UNL     1       6.793   6.348  16.498  0.00  0.00    +0.000 C 
ATOM      6  O   UNL     1       7.712   7.100  16.798  0.00  0.00    +0.000 OA
ATOM      7  C   UNL     1       5.665   6.011  17.465  0.00  0.00    +0.000 C 
ATOM      8  S   UNL     1       4.589   4.889  16.497  0.00  0.00    +0.000 S 
ATOM      9  H   UNL     1       4.594   3.586  14.202  0.00  0.00    +0.000 HD
BRANCH   2  10
ATOM     10  C   UNL     1       6.405   3.773  13.149  0.00  0.00    +0.000 C 
BRANCH  10  12
ATOM     11  C   UNL     1       4.496   3.372  11.565  0.00  0.00    +0.000 C 
ATOM     12  C   UNL     1       5.828   2.847  12.083  0.00  0.00    +0.000 C 
ENDBRANCH  10  12
ENDBRANCH   2  10
ENDBRANCH   1   7
BRANCH   1  13
ATOM     13  C   UNL     1       5.081   4.567  19.412  0.00  0.00    +0.000 C 
ATOM     14  O   UNL     1       5.129   3.354  19.593  0.00  0.00    +0.000 OA
ATOM     15  N   UNL     1       4.042   5.366  19.838  0.00  0.00    +0.000 N 
ATOM     16  H   UNL     1       3.947   6.285  19.420  0.00  0.00    +0.000 HD
BRANCH  15  17
ATOM     17  C   UNL     1       2.823   4.761  20.356  0.00  0.00    +0.000 C 
BRANCH  17  18
ATOM     18  C   UNL     1       1.730   5.793  20.674  0.00  0.00    +0.000 C 
BRANCH  18  19
ATOM     19  C   UNL     1       1.773   7.061  19.844  0.00  0.00    +0.000 A 
ATOM     20  C   UNL     1       1.377   8.303  20.358  0.00  0.00    +0.000 A 
ATOM     21  C   UNL     1       1.366   9.440  19.550  0.00  0.00    +0.000 A 
ATOM     22  C   UNL     1       1.784   9.360  18.226  0.00  0.00    +0.000 A 
ATOM     23  C   UNL     1       2.236   8.145  17.715  0.00  0.00    +0.000 A 
ATOM     24  C   UNL     1       2.237   7.005  18.521  0.00  0.00    +0.000 A 
ENDBRANCH  18  19
ENDBRANCH  17  18
ENDBRANCH  15  17
ENDBRANCH   1  13
TORSDOF 7
ENDMDL
