MODEL 1
REMARK VINA RESULT:      -8.3      0.000      0.000
REMARK  Name = 
REMARK  6 active torsions:
REMARK  status: ('A' for Active; 'I' for Inactive)
REMARK    1  A    between atoms: C_1  and  O_2
REMARK    2  A    between atoms: O_2  and  C_3
REMARK    3  A    between atoms: C_6  and  C_7
REMARK    4  A    between atoms: C_15  and  N_16
REMARK    5  A    between atoms: N_19  and  N_20
REMARK    6  A    between atoms: N_23  and  C_24
REMARK                            x       y       z     vdW  Elec       q    Type
REMARK                         _______ _______ _______ _____ _____    ______ ____
ROOT
ATOM      1  C   UNL     1       0.472  11.134  18.575  0.00  0.00    +0.000 A 
ATOM      2  N   UNL     1      -0.908  11.243  18.424  0.00  0.00    +0.000 N 
ATOM      3  N   UNL     1      -1.392  12.484  18.665  0.00  0.00    +0.000 NA
ATOM      4  C   UNL     1      -0.272  13.185  18.704  0.00  0.00    +0.000 A 
ATOM      5  C   UNL     1       0.894  12.443  18.495  0.00  0.00    +0.000 A 
ATOM      6  C   UNL     1       2.048  13.337  18.538  0.00  0.00    +0.000 C 
ATOM      7  O   UNL     1       3.218  13.012  18.536  0.00  0.00    +0.000 OA
ATOM      8  C   UNL     1       1.437  14.727  18.777  0.00  0.00    +0.000 A 
ATOM      9  C   UNL     1       1.983  15.992  18.964  0.00  0.00    +0.000 A 
ATOM     10  C   UNL     1       1.173  16.940  19.632  0.00  0.00    +0.000 A 
ATOM     11  C   UNL     1      -0.159  16.670  20.002  0.00  0.00    +0.000 A 
ATOM     12  C   UNL     1      -0.749  15.462  19.658  0.00  0.00    +0.000 A 
ATOM     13  C   UNL     1       0.053  14.532  19.029  0.00  0.00    +0.000 A 
ATOM     14  H   UNL     1      -1.571  10.483  18.311  0.00  0.00    +0.000 HD
ENDROOT
BRANCH   1  18
ATOM     15  C   UNL     1       2.208   7.315  19.442  0.00  0.00    +0.000 A 
ATOM     16  C   UNL     1       1.490   7.995  20.430  0.00  0.00    +0.000 A 
ATOM     17  C   UNL     1       0.914   9.253  20.178  0.00  0.00    +0.000 A 
ATOM     18  C   UNL     1       1.084   9.858  18.936  0.00  0.00    +0.000 A 
ATOM     19  C   UNL     1       1.832   9.172  17.957  0.00  0.00    +0.000 A 
ATOM     20  C   UNL     1       2.392   7.919  18.200  0.00  0.00    +0.000 A 
BRANCH  15  22
ATOM     21  C   UNL     1       1.832   5.251  20.540  0.00  0.00    +0.000 C 
ATOM     22  O   UNL     1       2.710   6.091  19.793  0.00  0.00    +0.000 OA
ENDBRANCH  15  22
ENDBRANCH   1  18
BRANCH   9  23
ATOM     23  N   UNL     1       3.237  16.475  18.518  0.00  0.00    +0.000 N 
ATOM     24  C   UNL     1       4.461  16.171  19.086  0.00  0.00    +0.000 C 
ATOM     25  O   UNL     1       4.638  15.488  20.085  0.00  0.00    +0.000 OA
ATOM     26  N   UNL     1       5.513  16.725  18.364  0.00  0.00    +0.000 N 
ATOM     27  H   UNL     1       3.290  16.747  17.549  0.00  0.00    +0.000 HD
ATOM     28  H   UNL     1       5.434  16.900  17.367  0.00  0.00    +0.000 HD
BRANCH  26  29
ATOM     29  N   UNL     1       6.832  16.424  18.786  0.00  0.00    +0.000 N 
ATOM     30  C   UNL     1       7.446  15.319  18.206  0.00  0.00    +0.000 C 
ATOM     31  O   UNL     1       6.829  14.563  17.459  0.00  0.00    +0.000 OA
ATOM     32  N   UNL     1       8.751  15.174  18.638  0.00  0.00    +0.000 N 
ATOM     33  H   UNL     1       7.385  17.240  19.027  0.00  0.00    +0.000 HD
ATOM     34  H   UNL     1       9.002  15.719  19.449  0.00  0.00    +0.000 HD
BRANCH  32  35
ATOM     35  C   UNL     1       9.664  14.167  18.249  0.00  0.00    +0.000 A 
ATOM     36  C   UNL     1       9.533  12.826  18.614  0.00  0.00    +0.000 A 
ATOM     37  C   UNL     1      10.486  11.881  18.218  0.00  0.00    +0.000 A 
ATOM     38  C   UNL     1      11.583  12.272  17.450  0.00  0.00    +0.000 A 
ATOM     39  C   UNL     1      11.715  13.602  17.064  0.00  0.00    +0.000 A 
ATOM     40  C   UNL     1      10.753  14.543  17.450  0.00  0.00    +0.000 A 
ENDBRANCH  32  35
ENDBRANCH  26  29
ENDBRANCH   9  23
TORSDOF 5
ENDMDL
MODEL 2
REMARK VINA RESULT:      -8.3      0.417      1.209
REMARK  Name = 
REMARK  6 active torsions:
REMARK  status: ('A' for Active; 'I' for Inactive)
REMARK    1  A    between atoms: C_1  and  O_2
REMARK    2  A    between atoms: O_2  and  C_3
REMARK    3  A    between atoms: C_6  and  C_7
REMARK    4  A    between atoms: C_15  and  N_16
REMARK    5  A    between atoms: N_19  and  N_20
REMARK    6  A    between atoms: N_23  and  C_24
REMARK                            x       y       z     vdW  Elec       q    Type
REMARK                         _______ _______ _______ _____ _____    ______ ____
ROOT
ATOM      1  C   UNL     1       0.374  11.040  18.538  0.00  0.00    +0.000 A 
ATOM      2  N   UNL     1      -1.008  11.166  18.423  0.00  0.00    +0.000 N 
ATOM      3  N   UNL     1      -1.476  12.399  18.728  0.00  0.00    +0.000 NA
ATOM      4  C   UNL     1      -0.349  13.089  18.774  0.00  0.00    +0.000 A 
ATOM      5  C   UNL     1       0.806  12.348  18.507  0.00  0.00    +0.000 A 
ATOM      6  C   UNL     1       1.968  13.229  18.563  0.00  0.00    +0.000 C 
ATOM      7  O   UNL     1       3.135  12.896  18.521  0.00  0.00    +0.000 OA
ATOM      8  C   UNL     1       1.375  14.613  18.877  0.00  0.00    +0.000 A 
ATOM      9  C   UNL     1       1.936  15.864  19.107  0.00  0.00    +0.000 A 
ATOM     10  C   UNL     1       1.149  16.787  19.834  0.00  0.00    +0.000 A 
ATOM     11  C   UNL     1      -0.177  16.511  20.221  0.00  0.00    +0.000 A 
ATOM     12  C   UNL     1      -0.785  15.325  19.838  0.00  0.00    +0.000 A 
ATOM     13  C   UNL     1      -0.005  14.417  19.150  0.00  0.00    +0.000 A 
ATOM     14  H   UNL     1      -1.680  10.417  18.291  0.00  0.00    +0.000 HD
ENDROOT
BRANCH   1  18
ATOM     15  C   UNL     1       2.235   7.322  19.571  0.00  0.00    +0.000 A 
ATOM     16  C   UNL     1       2.286   7.785  18.253  0.00  0.00    +0.000 A 
ATOM     17  C   UNL     1       1.680   8.998  17.881  0.00  0.00    +0.000 A 
ATOM     18  C   UNL     1       0.983   9.744  18.828  0.00  0.00    +0.000 A 
ATOM     19  C   UNL     1       0.917   9.253  20.148  0.00  0.00    +0.000 A 
ATOM     20  C   UNL     1       1.530   8.058  20.521  0.00  0.00    +0.000 A 
BRANCH  15  22
ATOM     21  C   UNL     1       2.823   5.172  18.774  0.00  0.00    +0.000 C 
ATOM     22  O   UNL     1       2.873   6.138  19.822  0.00  0.00    +0.000 OA
ENDBRANCH  15  22
ENDBRANCH   1  18
BRANCH   9  23
ATOM     23  N   UNL     1       3.184  16.355  18.656  0.00  0.00    +0.000 N 
ATOM     24  C   UNL     1       4.413  16.057  19.215  0.00  0.00    +0.000 C 
ATOM     25  O   UNL     1       4.601  15.372  20.210  0.00  0.00    +0.000 OA
ATOM     26  N   UNL     1       5.458  16.620  18.488  0.00  0.00    +0.000 N 
ATOM     27  H   UNL     1       3.229  16.632  17.687  0.00  0.00    +0.000 HD
ATOM     28  H   UNL     1       5.371  16.799  17.492  0.00  0.00    +0.000 HD
BRANCH  26  29
ATOM     29  N   UNL     1       6.781  16.325  18.901  0.00  0.00    +0.000 N 
ATOM     30  C   UNL     1       7.393  15.218  18.323  0.00  0.00    +0.000 C 
ATOM     31  O   UNL     1       6.772  14.456  17.587  0.00  0.00    +0.000 OA
ATOM     32  N   UNL     1       8.702  15.080  18.745  0.00  0.00    +0.000 N 
ATOM     33  H   UNL     1       7.334  17.145  19.131  0.00  0.00    +0.000 HD
ATOM     34  H   UNL     1       8.958  15.631  19.550  0.00  0.00    +0.000 HD
BRANCH  32  35
ATOM     35  C   UNL     1       9.614  14.072  18.355  0.00  0.00    +0.000 A 
ATOM     36  C   UNL     1      10.528  14.223  17.311  0.00  0.00    +0.000 A 
ATOM     37  C   UNL     1      11.387  13.176  16.957  0.00  0.00    +0.000 A 
ATOM     38  C   UNL     1      11.338  11.965  17.647  0.00  0.00    +0.000 A 
ATOM     39  C   UNL     1      10.445  11.809  18.703  0.00  0.00    +0.000 A 
ATOM     40  C   UNL     1       9.596  12.863  19.065  0.00  0.00    +0.000 A 
ENDBRANCH  32  35
ENDBRANCH  26  29
ENDBRANCH   9  23
TORSDOF 5
ENDMDL
MODEL 3
REMARK VINA RESULT:      -8.2      6.180     10.706
REMARK  Name = 
REMARK  6 active torsions:
REMARK  status: ('A' for Active; 'I' for Inactive)
REMARK    1  A    between atoms: C_1  and  O_2
REMARK    2  A    between atoms: O_2  and  C_3
REMARK    3  A    between atoms: C_6  and  C_7
REMARK    4  A    between atoms: C_15  and  N_16
REMARK    5  A    between atoms: N_19  and  N_20
REMARK    6  A    between atoms: N_23  and  C_24
REMARK                            x       y       z     vdW  Elec       q    Type
REMARK                         _______ _______ _______ _____ _____    ______ ____
ROOT
ATOM      1  C   UNL     1       8.372  14.256  22.434  0.00  0.00    +0.000 A 
ATOM      2  N   UNL     1       8.208  15.394  21.647  0.00  0.00    +0.000 N 
ATOM      3  N   UNL     1       8.629  15.245  20.369  0.00  0.00    +0.000 NA
ATOM      4  C   UNL     1       8.804  13.935  20.316  0.00  0.00    +0.000 A 
ATOM      5  C   UNL     1       8.508  13.253  21.500  0.00  0.00    +0.000 A 
ATOM      6  C   UNL     1       8.717  11.823  21.298  0.00  0.00    +0.000 C 
ATOM      7  O   UNL     1       8.691  10.958  22.149  0.00  0.00    +0.000 OA
ATOM      8  C   UNL     1       9.158  11.712  19.829  0.00  0.00    +0.000 A 
ATOM      9  C   UNL     1       9.553  10.647  19.027  0.00  0.00    +0.000 A 
ATOM     10  C   UNL     1      10.343  10.963  17.897  0.00  0.00    +0.000 A 
ATOM     11  C   UNL     1      10.635  12.291  17.526  0.00  0.00    +0.000 A 
ATOM     12  C   UNL     1      10.093  13.351  18.237  0.00  0.00    +0.000 A 
ATOM     13  C   UNL     1       9.343  13.037  19.353  0.00  0.00    +0.000 A 
ATOM     14  H   UNL     1       7.962  16.326  21.965  0.00  0.00    +0.000 HD
ENDROOT
BRANCH   1  18
ATOM     15  C   UNL     1       9.071  14.650  26.642  0.00  0.00    +0.000 A 
ATOM     16  C   UNL     1       8.349  13.557  26.154  0.00  0.00    +0.000 A 
ATOM     17  C   UNL     1       8.097  13.404  24.780  0.00  0.00    +0.000 A 
ATOM     18  C   UNL     1       8.542  14.369  23.880  0.00  0.00    +0.000 A 
ATOM     19  C   UNL     1       9.247  15.479  24.389  0.00  0.00    +0.000 A 
ATOM     20  C   UNL     1       9.510  15.626  25.750  0.00  0.00    +0.000 A 
BRANCH  15  22
ATOM     21  C   UNL     1       8.547  15.697  28.700  0.00  0.00    +0.000 C 
ATOM     22  O   UNL     1       9.270  14.689  27.996  0.00  0.00    +0.000 OA
ENDBRANCH  15  22
ENDBRANCH   1  18
BRANCH   9  23
ATOM     23  N   UNL     1       9.218   9.279  19.167  0.00  0.00    +0.000 N 
ATOM     24  C   UNL     1       8.322   8.587  18.372  0.00  0.00    +0.000 C 
ATOM     25  O   UNL     1       7.648   9.064  17.470  0.00  0.00    +0.000 OA
ATOM     26  N   UNL     1       8.280   7.236  18.703  0.00  0.00    +0.000 N 
ATOM     27  H   UNL     1       9.910   8.695  19.611  0.00  0.00    +0.000 HD
ATOM     28  H   UNL     1       9.085   6.767  19.105  0.00  0.00    +0.000 HD
BRANCH  26  29
ATOM     29  N   UNL     1       7.464   6.390  17.911  0.00  0.00    +0.000 N 
ATOM     30  C   UNL     1       6.551   5.583  18.582  0.00  0.00    +0.000 C 
ATOM     31  O   UNL     1       6.542   5.509  19.808  0.00  0.00    +0.000 OA
ATOM     32  N   UNL     1       5.762   4.864  17.703  0.00  0.00    +0.000 N 
ATOM     33  H   UNL     1       7.223   6.778  17.005  0.00  0.00    +0.000 HD
ATOM     34  H   UNL     1       6.087   4.843  16.748  0.00  0.00    +0.000 HD
BRANCH  32  35
ATOM     35  C   UNL     1       4.734   3.955  18.039  0.00  0.00    +0.000 A 
ATOM     36  C   UNL     1       3.643   3.684  17.211  0.00  0.00    +0.000 A 
ATOM     37  C   UNL     1       2.643   2.791  17.615  0.00  0.00    +0.000 A 
ATOM     38  C   UNL     1       2.727   2.160  18.855  0.00  0.00    +0.000 A 
ATOM     39  C   UNL     1       3.819   2.406  19.682  0.00  0.00    +0.000 A 
ATOM     40  C   UNL     1       4.825   3.289  19.270  0.00  0.00    +0.000 A 
ENDBRANCH  32  35
ENDBRANCH  26  29
ENDBRANCH   9  23
TORSDOF 5
ENDMDL
MODEL 4
REMARK VINA RESULT:      -8.1      0.799      1.149
REMARK  Name = 
REMARK  6 active torsions:
REMARK  status: ('A' for Active; 'I' for Inactive)
REMARK    1  A    between atoms: C_1  and  O_2
REMARK    2  A    between atoms: O_2  and  C_3
REMARK    3  A    between atoms: C_6  and  C_7
REMARK    4  A    between atoms: C_15  and  N_16
REMARK    5  A    between atoms: N_19  and  N_20
REMARK    6  A    between atoms: N_23  and  C_24
REMARK                            x       y       z     vdW  Elec       q    Type
REMARK                         _______ _______ _______ _____ _____    ______ ____
ROOT
ATOM      1  C   UNL     1       0.405  10.435  18.669  0.00  0.00    +0.000 A 
ATOM      2  N   UNL     1      -0.986  10.425  18.592  0.00  0.00    +0.000 N 
ATOM      3  N   UNL     1      -1.562  11.617  18.874  0.00  0.00    +0.000 NA
ATOM      4  C   UNL     1      -0.506  12.412  18.864  0.00  0.00    +0.000 A 
ATOM      5  C   UNL     1       0.707  11.776  18.585  0.00  0.00    +0.000 A 
ATOM      6  C   UNL     1       1.781  12.765  18.579  0.00  0.00    +0.000 C 
ATOM      7  O   UNL     1       2.972  12.543  18.511  0.00  0.00    +0.000 OA
ATOM      8  C   UNL     1       1.066  14.096  18.868  0.00  0.00    +0.000 A 
ATOM      9  C   UNL     1       1.510  15.401  19.042  0.00  0.00    +0.000 A 
ATOM     10  C   UNL     1       0.659  16.270  19.764  0.00  0.00    +0.000 A 
ATOM     11  C   UNL     1      -0.624  15.882  20.199  0.00  0.00    +0.000 A 
ATOM     12  C   UNL     1      -1.125  14.631  19.871  0.00  0.00    +0.000 A 
ATOM     13  C   UNL     1      -0.281  13.779  19.189  0.00  0.00    +0.000 A 
ATOM     14  H   UNL     1      -1.586   9.611  18.504  0.00  0.00    +0.000 HD
ENDROOT
BRANCH   1  18
ATOM     15  C   UNL     1       2.496   6.768  19.400  0.00  0.00    +0.000 A 
ATOM     16  C   UNL     1       1.834   7.414  20.448  0.00  0.00    +0.000 A 
ATOM     17  C   UNL     1       1.145   8.622  20.241  0.00  0.00    +0.000 A 
ATOM     18  C   UNL     1       1.142   9.213  18.980  0.00  0.00    +0.000 A 
ATOM     19  C   UNL     1       1.836   8.564  17.939  0.00  0.00    +0.000 A 
ATOM     20  C   UNL     1       2.508   7.359  18.139  0.00  0.00    +0.000 A 
BRANCH  15  22
ATOM     21  C   UNL     1       4.488   5.491  19.322  0.00  0.00    +0.000 C 
ATOM     22  O   UNL     1       3.120   5.591  19.712  0.00  0.00    +0.000 OA
ENDBRANCH  15  22
ENDBRANCH   1  18
BRANCH   9  23
ATOM     23  N   UNL     1       2.693  15.994  18.538  0.00  0.00    +0.000 N 
ATOM     24  C   UNL     1       3.957  15.847  19.079  0.00  0.00    +0.000 C 
ATOM     25  O   UNL     1       4.233  15.231  20.098  0.00  0.00    +0.000 OA
ATOM     26  N   UNL     1       4.924  16.478  18.302  0.00  0.00    +0.000 N 
ATOM     27  H   UNL     1       2.690  16.228  17.557  0.00  0.00    +0.000 HD
ATOM     28  H   UNL     1       4.799  16.600  17.301  0.00  0.00    +0.000 HD
BRANCH  26  29
ATOM     29  N   UNL     1       6.278  16.337  18.694  0.00  0.00    +0.000 N 
ATOM     30  C   UNL     1       6.990  15.275  18.145  0.00  0.00    +0.000 C 
ATOM     31  O   UNL     1       6.435  14.423  17.455  0.00  0.00    +0.000 OA
ATOM     32  N   UNL     1       8.314  15.288  18.541  0.00  0.00    +0.000 N 
ATOM     33  H   UNL     1       6.749  17.217  18.879  0.00  0.00    +0.000 HD
ATOM     34  H   UNL     1       8.528  15.896  19.318  0.00  0.00    +0.000 HD
BRANCH  32  35
ATOM     35  C   UNL     1       9.317  14.364  18.169  0.00  0.00    +0.000 A 
ATOM     36  C   UNL     1      10.450  14.712  17.432  0.00  0.00    +0.000 A 
ATOM     37  C   UNL     1      11.394  13.742  17.073  0.00  0.00    +0.000 A 
ATOM     38  C   UNL     1      11.211  12.412  17.449  0.00  0.00    +0.000 A 
ATOM     39  C   UNL     1      10.095  12.056  18.201  0.00  0.00    +0.000 A 
ATOM     40  C   UNL     1       9.159  13.030  18.571  0.00  0.00    +0.000 A 
ENDBRANCH  32  35
ENDBRANCH  26  29
ENDBRANCH   9  23
TORSDOF 5
ENDMDL
MODEL 5
REMARK VINA RESULT:      -7.7      5.927      9.094
REMARK  Name = 
REMARK  6 active torsions:
REMARK  status: ('A' for Active; 'I' for Inactive)
REMARK    1  A    between atoms: C_1  and  O_2
REMARK    2  A    between atoms: O_2  and  C_3
REMARK    3  A    between atoms: C_6  and  C_7
REMARK    4  A    between atoms: C_15  and  N_16
REMARK    5  A    between atoms: N_19  and  N_20
REMARK    6  A    between atoms: N_23  and  C_24
REMARK                            x       y       z     vdW  Elec       q    Type
REMARK                         _______ _______ _______ _____ _____    ______ ____
ROOT
ATOM      1  C   UNL     1      -5.394  13.570  21.923  0.00  0.00    +0.000 A 
ATOM      2  N   UNL     1      -6.619  12.987  21.604  0.00  0.00    +0.000 N 
ATOM      3  N   UNL     1      -6.636  12.368  20.400  0.00  0.00    +0.000 NA
ATOM      4  C   UNL     1      -5.347  12.351  20.110  0.00  0.00    +0.000 A 
ATOM      5  C   UNL     1      -4.518  12.927  21.077  0.00  0.00    +0.000 A 
ATOM      6  C   UNL     1      -3.127  12.819  20.646  0.00  0.00    +0.000 C 
ATOM      7  O   UNL     1      -2.162  13.335  21.172  0.00  0.00    +0.000 OA
ATOM      8  C   UNL     1      -3.207  12.081  19.300  0.00  0.00    +0.000 A 
ATOM      9  C   UNL     1      -2.258  11.709  18.355  0.00  0.00    +0.000 A 
ATOM     10  C   UNL     1      -2.725  11.490  17.038  0.00  0.00    +0.000 A 
ATOM     11  C   UNL     1      -4.092  11.537  16.703  0.00  0.00    +0.000 A 
ATOM     12  C   UNL     1      -5.047  11.741  17.689  0.00  0.00    +0.000 A 
ATOM     13  C   UNL     1      -4.585  11.979  18.967  0.00  0.00    +0.000 A 
ATOM     14  H   UNL     1      -7.499  13.111  22.092  0.00  0.00    +0.000 HD
ENDROOT
BRANCH   1  18
ATOM     15  C   UNL     1      -5.109  16.819  24.700  0.00  0.00    +0.000 A 
ATOM     16  C   UNL     1      -6.267  16.656  23.934  0.00  0.00    +0.000 A 
ATOM     17  C   UNL     1      -6.388  15.604  23.010  0.00  0.00    +0.000 A 
ATOM     18  C   UNL     1      -5.328  14.721  22.820  0.00  0.00    +0.000 A 
ATOM     19  C   UNL     1      -4.157  14.912  23.581  0.00  0.00    +0.000 A 
ATOM     20  C   UNL     1      -4.041  15.946  24.509  0.00  0.00    +0.000 A 
BRANCH  15  22
ATOM     21  C   UNL     1      -3.899  18.622  25.643  0.00  0.00    +0.000 C 
ATOM     22  O   UNL     1      -5.108  17.868  25.580  0.00  0.00    +0.000 OA
ENDBRANCH  15  22
ENDBRANCH   1  18
BRANCH   9  23
ATOM     23  N   UNL     1      -0.878  11.465  18.556  0.00  0.00    +0.000 N 
ATOM     24  C   UNL     1      -0.326  10.264  18.962  0.00  0.00    +0.000 C 
ATOM     25  O   UNL     1      -0.948   9.254  19.261  0.00  0.00    +0.000 OA
ATOM     26  N   UNL     1       1.064  10.317  18.978  0.00  0.00    +0.000 N 
ATOM     27  H   UNL     1      -0.243  12.057  18.042  0.00  0.00    +0.000 HD
ATOM     28  H   UNL     1       1.575  10.938  18.358  0.00  0.00    +0.000 HD
BRANCH  26  29
ATOM     29  N   UNL     1       1.765   9.127  19.296  0.00  0.00    +0.000 N 
ATOM     30  C   UNL     1       2.270   8.386  18.232  0.00  0.00    +0.000 C 
ATOM     31  O   UNL     1       2.010   8.680  17.068  0.00  0.00    +0.000 OA
ATOM     32  N   UNL     1       2.997   7.295  18.669  0.00  0.00    +0.000 N 
ATOM     33  H   UNL     1       2.280   9.171  20.169  0.00  0.00    +0.000 HD
ATOM     34  H   UNL     1       2.879   7.057  19.643  0.00  0.00    +0.000 HD
BRANCH  32  35
ATOM     35  C   UNL     1       3.651   6.336  17.862  0.00  0.00    +0.000 A 
ATOM     36  C   UNL     1       4.622   6.662  16.913  0.00  0.00    +0.000 A 
ATOM     37  C   UNL     1       5.215   5.667  16.126  0.00  0.00    +0.000 A 
ATOM     38  C   UNL     1       4.839   4.334  16.283  0.00  0.00    +0.000 A 
ATOM     39  C   UNL     1       3.886   3.994  17.238  0.00  0.00    +0.000 A 
ATOM     40  C   UNL     1       3.305   4.988  18.034  0.00  0.00    +0.000 A 
ENDBRANCH  32  35
ENDBRANCH  26  29
ENDBRANCH   9  23
TORSDOF 5
ENDMDL
MODEL 6
REMARK VINA RESULT:      -7.6      5.650     10.370
REMARK  Name = 
REMARK  6 active torsions:
REMARK  status: ('A' for Active; 'I' for Inactive)
REMARK    1  A    between atoms: C_1  and  O_2
REMARK    2  A    between atoms: O_2  and  C_3
REMARK    3  A    between atoms: C_6  and  C_7
REMARK    4  A    between atoms: C_15  and  N_16
REMARK    5  A    between atoms: N_19  and  N_20
REMARK    6  A    between atoms: N_23  and  C_24
REMARK                            x       y       z     vdW  Elec       q    Type
REMARK                         _______ _______ _______ _____ _____    ______ ____
ROOT
ATOM      1  C   UNL     1       8.706  15.287  22.202  0.00  0.00    +0.000 A 
ATOM      2  N   UNL     1       9.064  16.457  21.535  0.00  0.00    +0.000 N 
ATOM      3  N   UNL     1       9.919  16.263  20.504  0.00  0.00    +0.000 NA
ATOM      4  C   UNL     1       9.871  14.947  20.384  0.00  0.00    +0.000 A 
ATOM      5  C   UNL     1       9.021  14.304  21.289  0.00  0.00    +0.000 A 
ATOM      6  C   UNL     1       9.041  12.868  21.033  0.00  0.00    +0.000 C 
ATOM      7  O   UNL     1       8.534  12.001  21.716  0.00  0.00    +0.000 OA
ATOM      8  C   UNL     1       9.995  12.713  19.837  0.00  0.00    +0.000 A 
ATOM      9  C   UNL     1      10.482  11.615  19.138  0.00  0.00    +0.000 A 
ATOM     10  C   UNL     1      11.693  11.798  18.431  0.00  0.00    +0.000 A 
ATOM     11  C   UNL     1      12.333  13.050  18.339  0.00  0.00    +0.000 A 
ATOM     12  C   UNL     1      11.748  14.177  18.899  0.00  0.00    +0.000 A 
ATOM     13  C   UNL     1      10.580  13.987  19.608  0.00  0.00    +0.000 A 
ATOM     14  H   UNL     1       8.879  17.409  21.831  0.00  0.00    +0.000 HD
ENDROOT
BRANCH   1  18
ATOM     15  C   UNL     1       7.348  15.381  26.263  0.00  0.00    +0.000 A 
ATOM     16  C   UNL     1       8.406  16.202  25.863  0.00  0.00    +0.000 A 
ATOM     17  C   UNL     1       8.879  16.189  24.539  0.00  0.00    +0.000 A 
ATOM     18  C   UNL     1       8.313  15.322  23.608  0.00  0.00    +0.000 A 
ATOM     19  C   UNL     1       7.263  14.482  24.032  0.00  0.00    +0.000 A 
ATOM     20  C   UNL     1       6.784  14.504  25.341  0.00  0.00    +0.000 A 
BRANCH  15  22
ATOM     21  C   UNL     1       7.392  14.439  28.435  0.00  0.00    +0.000 C 
ATOM     22  O   UNL     1       6.961  15.489  27.572  0.00  0.00    +0.000 OA
ENDBRANCH  15  22
ENDBRANCH   1  18
BRANCH   9  23
ATOM     23  N   UNL     1       9.887  10.338  18.997  0.00  0.00    +0.000 N 
ATOM     24  C   UNL     1       8.762  10.056  18.243  0.00  0.00    +0.000 C 
ATOM     25  O   UNL     1       8.085  10.872  17.634  0.00  0.00    +0.000 OA
ATOM     26  N   UNL     1       8.480   8.693  18.230  0.00  0.00    +0.000 N 
ATOM     27  H   UNL     1      10.494   9.546  19.141  0.00  0.00    +0.000 HD
ATOM     28  H   UNL     1       9.216   8.002  18.342  0.00  0.00    +0.000 HD
BRANCH  26  29
ATOM     29  N   UNL     1       7.400   8.252  17.427  0.00  0.00    +0.000 N 
ATOM     30  C   UNL     1       6.780   7.063  17.797  0.00  0.00    +0.000 C 
ATOM     31  O   UNL     1       7.229   6.362  18.700  0.00  0.00    +0.000 OA
ATOM     32  N   UNL     1       5.696   6.779  16.987  0.00  0.00    +0.000 N 
ATOM     33  H   UNL     1       6.850   9.004  17.024  0.00  0.00    +0.000 HD
ATOM     34  H   UNL     1       5.639   7.317  16.135  0.00  0.00    +0.000 HD
BRANCH  32  35
ATOM     35  C   UNL     1       4.840   5.658  17.083  0.00  0.00    +0.000 A 
ATOM     36  C   UNL     1       5.180   4.387  16.617  0.00  0.00    +0.000 A 
ATOM     37  C   UNL     1       4.275   3.323  16.718  0.00  0.00    +0.000 A 
ATOM     38  C   UNL     1       3.019   3.524  17.288  0.00  0.00    +0.000 A 
ATOM     39  C   UNL     1       2.675   4.782  17.774  0.00  0.00    +0.000 A 
ATOM     40  C   UNL     1       3.587   5.841  17.684  0.00  0.00    +0.000 A 
ENDBRANCH  32  35
ENDBRANCH  26  29
ENDBRANCH   9  23
TORSDOF 5
ENDMDL
MODEL 7
REMARK VINA RESULT:      -7.6      5.705     10.174
REMARK  Name = 
REMARK  6 active torsions:
REMARK  status: ('A' for Active; 'I' for Inactive)
REMARK    1  A    between atoms: C_1  and  O_2
REMARK    2  A    between atoms: O_2  and  C_3
REMARK    3  A    between atoms: C_6  and  C_7
REMARK    4  A    between atoms: C_15  and  N_16
REMARK    5  A    between atoms: N_19  and  N_20
REMARK    6  A    between atoms: N_23  and  C_24
REMARK                            x       y       z     vdW  Elec       q    Type
REMARK                         _______ _______ _______ _____ _____    ______ ____
ROOT
ATOM      1  C   UNL     1       7.983  14.703  23.013  0.00  0.00    +0.000 A 
ATOM      2  N   UNL     1       8.296  15.937  22.448  0.00  0.00    +0.000 N 
ATOM      3  N   UNL     1       9.247  15.876  21.486  0.00  0.00    +0.000 NA
ATOM      4  C   UNL     1       9.318  14.571  21.289  0.00  0.00    +0.000 A 
ATOM      5  C   UNL     1       8.454  13.808  22.078  0.00  0.00    +0.000 A 
ATOM      6  C   UNL     1       8.615  12.396  21.744  0.00  0.00    +0.000 C 
ATOM      7  O   UNL     1       8.127  11.451  22.329  0.00  0.00    +0.000 OA
ATOM      8  C   UNL     1       9.675  12.393  20.630  0.00  0.00    +0.000 A 
ATOM      9  C   UNL     1      10.308  11.383  19.915  0.00  0.00    +0.000 A 
ATOM     10  C   UNL     1      11.554  11.706  19.329  0.00  0.00    +0.000 A 
ATOM     11  C   UNL     1      12.092  13.007  19.365  0.00  0.00    +0.000 A 
ATOM     12  C   UNL     1      11.371  14.047  19.934  0.00  0.00    +0.000 A 
ATOM     13  C   UNL     1      10.167  13.722  20.526  0.00  0.00    +0.000 A 
ATOM     14  H   UNL     1       8.007  16.851  22.780  0.00  0.00    +0.000 HD
ENDROOT
BRANCH   1  18
ATOM     15  C   UNL     1       6.504  14.665  27.034  0.00  0.00    +0.000 A 
ATOM     16  C   UNL     1       7.406  13.683  26.613  0.00  0.00    +0.000 A 
ATOM     17  C   UNL     1       7.904  13.665  25.299  0.00  0.00    +0.000 A 
ATOM     18  C   UNL     1       7.472  14.617  24.379  0.00  0.00    +0.000 A 
ATOM     19  C   UNL     1       6.542  15.586  24.810  0.00  0.00    +0.000 A 
ATOM     20  C   UNL     1       6.059  15.614  26.117  0.00  0.00    +0.000 A 
BRANCH  15  22
ATOM     21  C   UNL     1       4.726  14.266  28.545  0.00  0.00    +0.000 C 
ATOM     22  O   UNL     1       6.098  14.594  28.339  0.00  0.00    +0.000 OA
ENDBRANCH  15  22
ENDBRANCH   1  18
BRANCH   9  23
ATOM     23  N   UNL     1       9.836  10.075  19.650  0.00  0.00    +0.000 N 
ATOM     24  C   UNL     1       8.839   9.749  18.748  0.00  0.00    +0.000 C 
ATOM     25  O   UNL     1       8.182  10.543  18.089  0.00  0.00    +0.000 OA
ATOM     26  N   UNL     1       8.667   8.372  18.648  0.00  0.00    +0.000 N 
ATOM     27  H   UNL     1      10.480   9.323  19.840  0.00  0.00    +0.000 HD
ATOM     28  H   UNL     1       9.434   7.731  18.826  0.00  0.00    +0.000 HD
BRANCH  26  29
ATOM     29  N   UNL     1       7.733   7.893  17.696  0.00  0.00    +0.000 N 
ATOM     30  C   UNL     1       6.890   6.863  18.099  0.00  0.00    +0.000 C 
ATOM     31  O   UNL     1       7.035   6.305  19.184  0.00  0.00    +0.000 OA
ATOM     32  N   UNL     1       5.976   6.536  17.115  0.00  0.00    +0.000 N 
ATOM     33  H   UNL     1       7.391   8.605  17.059  0.00  0.00    +0.000 HD
ATOM     34  H   UNL     1       6.176   6.906  16.197  0.00  0.00    +0.000 HD
BRANCH  32  35
ATOM     35  C   UNL     1       4.973   5.543  17.189  0.00  0.00    +0.000 A 
ATOM     36  C   UNL     1       5.168   4.220  16.788  0.00  0.00    +0.000 A 
ATOM     37  C   UNL     1       4.124   3.289  16.862  0.00  0.00    +0.000 A 
ATOM     38  C   UNL     1       2.872   3.677  17.339  0.00  0.00    +0.000 A 
ATOM     39  C   UNL     1       2.671   4.989  17.760  0.00  0.00    +0.000 A 
ATOM     40  C   UNL     1       3.720   5.914  17.698  0.00  0.00    +0.000 A 
ENDBRANCH  32  35
ENDBRANCH  26  29
ENDBRANCH   9  23
TORSDOF 5
ENDMDL
MODEL 8
REMARK VINA RESULT:      -7.5      6.250      9.281
REMARK  Name = 
REMARK  6 active torsions:
REMARK  status: ('A' for Active; 'I' for Inactive)
REMARK    1  A    between atoms: C_1  and  O_2
REMARK    2  A    between atoms: O_2  and  C_3
REMARK    3  A    between atoms: C_6  and  C_7
REMARK    4  A    between atoms: C_15  and  N_16
REMARK    5  A    between atoms: N_19  and  N_20
REMARK    6  A    between atoms: N_23  and  C_24
REMARK                            x       y       z     vdW  Elec       q    Type
REMARK                         _______ _______ _______ _____ _____    ______ ____
ROOT
ATOM      1  C   UNL     1      -5.229  13.553  21.183  0.00  0.00    +0.000 A 
ATOM      2  N   UNL     1      -6.474  13.003  20.887  0.00  0.00    +0.000 N 
ATOM      3  N   UNL     1      -6.506  12.308  19.725  0.00  0.00    +0.000 NA
ATOM      4  C   UNL     1      -5.216  12.219  19.453  0.00  0.00    +0.000 A 
ATOM      5  C   UNL     1      -4.373  12.821  20.391  0.00  0.00    +0.000 A 
ATOM      6  C   UNL     1      -2.984  12.628  19.986  0.00  0.00    +0.000 C 
ATOM      7  O   UNL     1      -2.003  13.136  20.490  0.00  0.00    +0.000 OA
ATOM      8  C   UNL     1      -3.082  11.808  18.689  0.00  0.00    +0.000 A 
ATOM      9  C   UNL     1      -2.140  11.336  17.782  0.00  0.00    +0.000 A 
ATOM     10  C   UNL     1      -2.602  11.052  16.477  0.00  0.00    +0.000 A 
ATOM     11  C   UNL     1      -3.963  11.134  16.122  0.00  0.00    +0.000 A 
ATOM     12  C   UNL     1      -4.918  11.441  17.080  0.00  0.00    +0.000 A 
ATOM     13  C   UNL     1      -4.459  11.742  18.346  0.00  0.00    +0.000 A 
ATOM     14  H   UNL     1      -7.354  13.195  21.355  0.00  0.00    +0.000 HD
ENDROOT
BRANCH   1  18
ATOM     15  C   UNL     1      -5.022  17.188  23.441  0.00  0.00    +0.000 A 
ATOM     16  C   UNL     1      -3.915  16.336  23.388  0.00  0.00    +0.000 A 
ATOM     17  C   UNL     1      -3.954  15.133  22.661  0.00  0.00    +0.000 A 
ATOM     18  C   UNL     1      -5.123  14.756  22.005  0.00  0.00    +0.000 A 
ATOM     19  C   UNL     1      -6.240  15.613  22.088  0.00  0.00    +0.000 A 
ATOM     20  C   UNL     1      -6.198  16.813  22.797  0.00  0.00    +0.000 A 
BRANCH  15  22
ATOM     21  C   UNL     1      -4.745  18.173  25.576  0.00  0.00    +0.000 C 
ATOM     22  O   UNL     1      -4.865  18.339  24.165  0.00  0.00    +0.000 OA
ENDBRANCH  15  22
ENDBRANCH   1  18
BRANCH   9  23
ATOM     23  N   UNL     1      -0.773  11.049  18.016  0.00  0.00    +0.000 N 
ATOM     24  C   UNL     1      -0.293  10.099  18.898  0.00  0.00    +0.000 C 
ATOM     25  O   UNL     1      -0.970   9.407  19.646  0.00  0.00    +0.000 OA
ATOM     26  N   UNL     1       1.093   9.991  18.832  0.00  0.00    +0.000 N 
ATOM     27  H   UNL     1      -0.138  11.271  17.265  0.00  0.00    +0.000 HD
ATOM     28  H   UNL     1       1.598  10.207  17.978  0.00  0.00    +0.000 HD
BRANCH  26  29
ATOM     29  N   UNL     1       1.714   8.994  19.625  0.00  0.00    +0.000 N 
ATOM     30  C   UNL     1       2.115   7.830  18.979  0.00  0.00    +0.000 C 
ATOM     31  O   UNL     1       1.828   7.620  17.803  0.00  0.00    +0.000 OA
ATOM     32  N   UNL     1       2.775   6.970  19.837  0.00  0.00    +0.000 N 
ATOM     33  H   UNL     1       2.268   9.362  20.392  0.00  0.00    +0.000 HD
ATOM     34  H   UNL     1       2.682   7.182  20.819  0.00  0.00    +0.000 HD
BRANCH  32  35
ATOM     35  C   UNL     1       3.320   5.706  19.514  0.00  0.00    +0.000 A 
ATOM     36  C   UNL     1       4.688   5.471  19.367  0.00  0.00    +0.000 A 
ATOM     37  C   UNL     1       5.162   4.201  19.020  0.00  0.00    +0.000 A 
ATOM     38  C   UNL     1       4.267   3.151  18.817  0.00  0.00    +0.000 A 
ATOM     39  C   UNL     1       2.902   3.367  18.979  0.00  0.00    +0.000 A 
ATOM     40  C   UNL     1       2.431   4.635  19.340  0.00  0.00    +0.000 A 
ENDBRANCH  32  35
ENDBRANCH  26  29
ENDBRANCH   9  23
TORSDOF 5
ENDMDL
MODEL 9
REMARK VINA RESULT:      -7.5      5.755     10.002
REMARK  Name = 
REMARK  6 active torsions:
REMARK  status: ('A' for Active; 'I' for Inactive)
REMARK    1  A    between atoms: C_1  and  O_2
REMARK    2  A    between atoms: O_2  and  C_3
REMARK    3  A    between atoms: C_6  and  C_7
REMARK    4  A    between atoms: C_15  and  N_16
REMARK    5  A    between atoms: N_19  and  N_20
REMARK    6  A    between atoms: N_23  and  C_24
REMARK                            x       y       z     vdW  Elec       q    Type
REMARK                         _______ _______ _______ _____ _____    ______ ____
ROOT
ATOM      1  C   UNL     1       8.056  15.429  22.780  0.00  0.00    +0.000 A 
ATOM      2  N   UNL     1       8.381  16.671  22.238  0.00  0.00    +0.000 N 
ATOM      3  N   UNL     1       9.372  16.629  21.318  0.00  0.00    +0.000 NA
ATOM      4  C   UNL     1       9.465  15.326  21.113  0.00  0.00    +0.000 A 
ATOM      5  C   UNL     1       8.575  14.547  21.858  0.00  0.00    +0.000 A 
ATOM      6  C   UNL     1       8.765  13.140  21.519  0.00  0.00    +0.000 C 
ATOM      7  O   UNL     1       8.262  12.185  22.075  0.00  0.00    +0.000 OA
ATOM      8  C   UNL     1       9.871  13.157  20.451  0.00  0.00    +0.000 A 
ATOM      9  C   UNL     1      10.544  12.160  19.755  0.00  0.00    +0.000 A 
ATOM     10  C   UNL     1      11.810  12.499  19.226  0.00  0.00    +0.000 A 
ATOM     11  C   UNL     1      12.333  13.806  19.295  0.00  0.00    +0.000 A 
ATOM     12  C   UNL     1      11.578  14.833  19.842  0.00  0.00    +0.000 A 
ATOM     13  C   UNL     1      10.354  14.491  20.379  0.00  0.00    +0.000 A 
ATOM     14  H   UNL     1       8.069  17.580  22.566  0.00  0.00    +0.000 HD
ENDROOT
BRANCH   1  18
ATOM     15  C   UNL     1       6.491  14.941  26.737  0.00  0.00    +0.000 A 
ATOM     16  C   UNL     1       5.673  15.442  25.721  0.00  0.00    +0.000 A 
ATOM     17  C   UNL     1       6.159  15.620  24.414  0.00  0.00    +0.000 A 
ATOM     18  C   UNL     1       7.489  15.327  24.122  0.00  0.00    +0.000 A 
ATOM     19  C   UNL     1       8.309  14.847  25.163  0.00  0.00    +0.000 A 
ATOM     20  C   UNL     1       7.825  14.656  26.456  0.00  0.00    +0.000 A 
BRANCH  15  22
ATOM     21  C   UNL     1       5.855  13.462  28.473  0.00  0.00    +0.000 C 
ATOM     22  O   UNL     1       5.908  14.794  27.967  0.00  0.00    +0.000 OA
ENDBRANCH  15  22
ENDBRANCH   1  18
BRANCH   9  23
ATOM     23  N   UNL     1      10.096  10.850  19.459  0.00  0.00    +0.000 N 
ATOM     24  C   UNL     1       9.097  10.528  18.559  0.00  0.00    +0.000 C 
ATOM     25  O   UNL     1       8.417  11.324  17.929  0.00  0.00    +0.000 OA
ATOM     26  N   UNL     1       8.953   9.150  18.423  0.00  0.00    +0.000 N 
ATOM     27  H   UNL     1      10.758  10.106  19.622  0.00  0.00    +0.000 HD
ATOM     28  H   UNL     1       9.735   8.521  18.575  0.00  0.00    +0.000 HD
BRANCH  26  29
ATOM     29  N   UNL     1       8.019   8.677  17.468  0.00  0.00    +0.000 N 
ATOM     30  C   UNL     1       7.445   7.433  17.705  0.00  0.00    +0.000 C 
ATOM     31  O   UNL     1       7.826   6.719  18.630  0.00  0.00    +0.000 OA
ATOM     32  N   UNL     1       6.498   7.117  16.750  0.00  0.00    +0.000 N 
ATOM     33  H   UNL     1       7.471   9.410  17.028  0.00  0.00    +0.000 HD
ATOM     34  H   UNL     1       6.510   7.691  15.920  0.00  0.00    +0.000 HD
BRANCH  32  35
ATOM     35  C   UNL     1       5.720   5.938  16.688  0.00  0.00    +0.000 A 
ATOM     36  C   UNL     1       5.850   4.981  15.679  0.00  0.00    +0.000 A 
ATOM     37  C   UNL     1       5.031   3.846  15.661  0.00  0.00    +0.000 A 
ATOM     38  C   UNL     1       4.071   3.659  16.654  0.00  0.00    +0.000 A 
ATOM     39  C   UNL     1       3.944   4.596  17.676  0.00  0.00    +0.000 A 
ATOM     40  C   UNL     1       4.774   5.723  17.700  0.00  0.00    +0.000 A 
ENDBRANCH  32  35
ENDBRANCH  26  29
ENDBRANCH   9  23
TORSDOF 5
ENDMDL
