MODEL 1
REMARK VINA RESULT:      -8.6      0.000      0.000
REMARK  Name = 
REMARK  10 active torsions:
REMARK  status: ('A' for Active; 'I' for Inactive)
REMARK    1  A    between atoms: C_1  and  C_2
REMARK    2  A    between atoms: N_4  and  C_5
REMARK    3  A    between atoms: C_8  and  O_9
REMARK    4  A    between atoms: O_9  and  C_10
REMARK    5  A    between atoms: C_10  and  C_12
REMARK    6  A    between atoms: C_12  and  C_13
REMARK    7  A    between atoms: C_13  and  C_14
REMARK    8  A    between atoms: C_17  and  N_18
REMARK    9  A    between atoms: N_18  and  C_19
REMARK   10  A    between atoms: C_23  and  C_24
REMARK                            x       y       z     vdW  Elec       q    Type
REMARK                         _______ _______ _______ _____ _____    ______ ____
ROOT
ATOM      1  C   UNL     1       2.242   5.890  19.426  0.00  0.00    +0.000 A 
ATOM      2  C   UNL     1       1.768   6.661  20.494  0.00  0.00    +0.000 A 
ATOM      3  C   UNL     1       1.553   8.035  20.340  0.00  0.00    +0.000 A 
ATOM      4  C   UNL     1       1.813   8.668  19.120  0.00  0.00    +0.000 A 
ATOM      5  C   UNL     1       2.257   7.886  18.047  0.00  0.00    +0.000 A 
ATOM      6  C   UNL     1       2.474   6.514  18.197  0.00  0.00    +0.000 A 
ENDROOT
BRANCH   4   7
ATOM      7  N   UNL     1       1.590  10.055  18.983  0.00  0.00    +0.000 N 
ATOM      8  H   UNL     1       2.367  10.539  18.542  0.00  0.00    +0.000 HD
BRANCH   7   9
ATOM      9  C   UNL     1       0.372  10.727  18.752  0.00  0.00    +0.000 A 
ATOM     10  C   UNL     1       0.141  12.034  19.176  0.00  0.00    +0.000 A 
ATOM     11  C   UNL     1      -1.087  12.613  18.919  0.00  0.00    +0.000 A 
ATOM     12  N   UNL     1      -2.095  11.985  18.279  0.00  0.00    +0.000 NA
ATOM     13  C   UNL     1      -1.879  10.705  17.868  0.00  0.00    +0.000 A 
ATOM     14  C   UNL     1      -0.661  10.055  18.093  0.00  0.00    +0.000 A 
BRANCH  13  15
ATOM     15  C   UNL     1      -2.989   9.954  17.146  0.00  0.00    +0.000 C 
ATOM     16  F   UNL     1      -3.574   8.967  17.880  0.00  0.00    +0.000 F 
ATOM     17  F   UNL     1      -4.006  10.775  16.749  0.00  0.00    +0.000 F 
ATOM     18  F   UNL     1      -2.547   9.349  16.003  0.00  0.00    +0.000 F 
ENDBRANCH  13  15
ENDBRANCH   7   9
ENDBRANCH   4   7
BRANCH   1  19
ATOM     19  C   UNL     1       2.490   4.417  19.586  0.00  0.00    +0.000 C 
BRANCH  19  20
ATOM     20  C   UNL     1       2.262   3.634  18.297  0.00  0.00    +0.000 C 
BRANCH  20  21
ATOM     21  C   UNL     1       3.286   2.535  18.256  0.00  0.00    +0.000 C 
ATOM     22  O   UNL     1       3.245   1.536  18.962  0.00  0.00    +0.000 OA
BRANCH  21  23
ATOM     23  O   UNL     1       4.171   2.795  17.210  0.00  0.00    +0.000 OA
BRANCH  23  27
ATOM     24  C   UNL     1       6.275   6.432  17.181  0.00  0.00    +0.000 A 
ATOM     25  C   UNL     1       6.308   5.561  18.271  0.00  0.00    +0.000 A 
ATOM     26  C   UNL     1       5.632   4.342  18.222  0.00  0.00    +0.000 A 
ATOM     27  C   UNL     1       4.914   3.987  17.082  0.00  0.00    +0.000 A 
ATOM     28  C   UNL     1       4.901   4.824  15.973  0.00  0.00    +0.000 A 
ATOM     29  C   UNL     1       5.567   6.054  16.032  0.00  0.00    +0.000 A 
BRANCH  24  33
ATOM     30  C   UNL     1       8.301   9.550  17.787  0.00  0.00    +0.000 C 
ATOM     31  C   UNL     1       7.946   8.100  17.989  0.00  0.00    +0.000 C 
ATOM     32  O   UNL     1       8.557   7.411  18.797  0.00  0.00    +0.000 OA
ATOM     33  N   UNL     1       6.896   7.697  17.180  0.00  0.00    +0.000 N 
ATOM     34  H   UNL     1       6.580   8.352  16.475  0.00  0.00    +0.000 HD
ENDBRANCH  24  33
ENDBRANCH  23  27
ENDBRANCH  21  23
ENDBRANCH  20  21
ENDBRANCH  19  20
ENDBRANCH   1  19
TORSDOF 9
ENDMDL
MODEL 2
REMARK VINA RESULT:      -8.3      5.612      8.708
REMARK  Name = 
REMARK  10 active torsions:
REMARK  status: ('A' for Active; 'I' for Inactive)
REMARK    1  A    between atoms: C_1  and  C_2
REMARK    2  A    between atoms: N_4  and  C_5
REMARK    3  A    between atoms: C_8  and  O_9
REMARK    4  A    between atoms: O_9  and  C_10
REMARK    5  A    between atoms: C_10  and  C_12
REMARK    6  A    between atoms: C_12  and  C_13
REMARK    7  A    between atoms: C_13  and  C_14
REMARK    8  A    between atoms: C_17  and  N_18
REMARK    9  A    between atoms: N_18  and  C_19
REMARK   10  A    between atoms: C_23  and  C_24
REMARK                            x       y       z     vdW  Elec       q    Type
REMARK                         _______ _______ _______ _____ _____    ______ ____
ROOT
ATOM      1  C   UNL     1       7.790   7.861  17.961  0.00  0.00    +0.000 A 
ATOM      2  C   UNL     1       8.262   6.940  18.904  0.00  0.00    +0.000 A 
ATOM      3  C   UNL     1       7.672   5.677  19.023  0.00  0.00    +0.000 A 
ATOM      4  C   UNL     1       6.593   5.311  18.210  0.00  0.00    +0.000 A 
ATOM      5  C   UNL     1       6.146   6.226  17.250  0.00  0.00    +0.000 A 
ATOM      6  C   UNL     1       6.732   7.488  17.128  0.00  0.00    +0.000 A 
ENDROOT
BRANCH   4   7
ATOM      7  N   UNL     1       6.010   4.033  18.345  0.00  0.00    +0.000 N 
ATOM      8  H   UNL     1       6.577   3.396  18.899  0.00  0.00    +0.000 HD
BRANCH   7   9
ATOM      9  C   UNL     1       4.642   3.698  18.422  0.00  0.00    +0.000 A 
ATOM     10  C   UNL     1       4.005   2.912  17.464  0.00  0.00    +0.000 A 
ATOM     11  C   UNL     1       2.657   2.642  17.610  0.00  0.00    +0.000 A 
ATOM     12  N   UNL     1       1.906   3.102  18.632  0.00  0.00    +0.000 NA
ATOM     13  C   UNL     1       2.521   3.875  19.568  0.00  0.00    +0.000 A 
ATOM     14  C   UNL     1       3.881   4.189  19.486  0.00  0.00    +0.000 A 
BRANCH  13  15
ATOM     15  C   UNL     1       1.711   4.420  20.737  0.00  0.00    +0.000 C 
ATOM     16  F   UNL     1       1.908   5.743  20.994  0.00  0.00    +0.000 F 
ATOM     17  F   UNL     1       0.365   4.273  20.558  0.00  0.00    +0.000 F 
ATOM     18  F   UNL     1       1.992   3.772  21.908  0.00  0.00    +0.000 F 
ENDBRANCH  13  15
ENDBRANCH   7   9
ENDBRANCH   4   7
BRANCH   1  19
ATOM     19  C   UNL     1       8.408   9.224  17.836  0.00  0.00    +0.000 C 
BRANCH  19  20
ATOM     20  C   UNL     1       9.021   9.719  19.142  0.00  0.00    +0.000 C 
BRANCH  20  21
ATOM     21  C   UNL     1       9.891  10.898  18.808  0.00  0.00    +0.000 C 
ATOM     22  O   UNL     1      10.160  11.247  17.667  0.00  0.00    +0.000 OA
BRANCH  21  23
ATOM     23  O   UNL     1      10.201  11.567  19.992  0.00  0.00    +0.000 OA
BRANCH  23  27
ATOM     24  C   UNL     1       7.510  14.098  21.995  0.00  0.00    +0.000 A 
ATOM     25  C   UNL     1       8.150  13.035  22.635  0.00  0.00    +0.000 A 
ATOM     26  C   UNL     1       9.070  12.246  21.945  0.00  0.00    +0.000 A 
ATOM     27  C   UNL     1       9.357  12.515  20.608  0.00  0.00    +0.000 A 
ATOM     28  C   UNL     1       8.759  13.592  19.966  0.00  0.00    +0.000 A 
ATOM     29  C   UNL     1       7.823  14.371  20.657  0.00  0.00    +0.000 A 
BRANCH  24  33
ATOM     30  C   UNL     1       4.422  15.738  23.398  0.00  0.00    +0.000 C 
ATOM     31  C   UNL     1       5.193  14.608  22.767  0.00  0.00    +0.000 C 
ATOM     32  O   UNL     1       4.630  13.569  22.444  0.00  0.00    +0.000 OA
ATOM     33  N   UNL     1       6.537  14.906  22.617  0.00  0.00    +0.000 N 
ATOM     34  H   UNL     1       6.871  15.759  23.049  0.00  0.00    +0.000 HD
ENDBRANCH  24  33
ENDBRANCH  23  27
ENDBRANCH  21  23
ENDBRANCH  20  21
ENDBRANCH  19  20
ENDBRANCH   1  19
TORSDOF 9
ENDMDL
MODEL 3
REMARK VINA RESULT:      -8.2      2.229      2.975
REMARK  Name = 
REMARK  10 active torsions:
REMARK  status: ('A' for Active; 'I' for Inactive)
REMARK    1  A    between atoms: C_1  and  C_2
REMARK    2  A    between atoms: N_4  and  C_5
REMARK    3  A    between atoms: C_8  and  O_9
REMARK    4  A    between atoms: O_9  and  C_10
REMARK    5  A    between atoms: C_10  and  C_12
REMARK    6  A    between atoms: C_12  and  C_13
REMARK    7  A    between atoms: C_13  and  C_14
REMARK    8  A    between atoms: C_17  and  N_18
REMARK    9  A    between atoms: N_18  and  C_19
REMARK   10  A    between atoms: C_23  and  C_24
REMARK                            x       y       z     vdW  Elec       q    Type
REMARK                         _______ _______ _______ _____ _____    ______ ____
ROOT
ATOM      1  C   UNL     1       1.473   3.780  19.151  0.00  0.00    +0.000 A 
ATOM      2  C   UNL     1       1.539   4.199  20.484  0.00  0.00    +0.000 A 
ATOM      3  C   UNL     1       1.768   5.543  20.799  0.00  0.00    +0.000 A 
ATOM      4  C   UNL     1       1.944   6.495  19.788  0.00  0.00    +0.000 A 
ATOM      5  C   UNL     1       1.847   6.074  18.457  0.00  0.00    +0.000 A 
ATOM      6  C   UNL     1       1.619   4.733  18.138  0.00  0.00    +0.000 A 
ENDROOT
BRANCH   4   7
ATOM      7  N   UNL     1       2.174   7.846  20.124  0.00  0.00    +0.000 N 
ATOM      8  H   UNL     1       3.143   8.126  19.995  0.00  0.00    +0.000 HD
BRANCH   7   9
ATOM      9  C   UNL     1       1.302   8.944  19.982  0.00  0.00    +0.000 A 
ATOM     10  C   UNL     1       1.034   9.538  18.750  0.00  0.00    +0.000 A 
ATOM     11  C   UNL     1       0.175  10.620  18.703  0.00  0.00    +0.000 A 
ATOM     12  N   UNL     1      -0.427  11.149  19.787  0.00  0.00    +0.000 NA
ATOM     13  C   UNL     1      -0.165  10.577  20.995  0.00  0.00    +0.000 A 
ATOM     14  C   UNL     1       0.693   9.481  21.120  0.00  0.00    +0.000 A 
BRANCH  13  15
ATOM     15  C   UNL     1      -0.819  11.144  22.248  0.00  0.00    +0.000 C 
ATOM     16  F   UNL     1      -0.744  10.334  23.341  0.00  0.00    +0.000 F 
ATOM     17  F   UNL     1      -0.273  12.336  22.632  0.00  0.00    +0.000 F 
ATOM     18  F   UNL     1      -2.150  11.398  22.069  0.00  0.00    +0.000 F 
ENDBRANCH  13  15
ENDBRANCH   7   9
ENDBRANCH   4   7
BRANCH   1  19
ATOM     19  C   UNL     1       1.242   2.337  18.804  0.00  0.00    +0.000 C 
BRANCH  19  20
ATOM     20  C   UNL     1       2.201   1.824  17.734  0.00  0.00    +0.000 C 
BRANCH  20  21
ATOM     21  C   UNL     1       3.597   2.036  18.249  0.00  0.00    +0.000 C 
ATOM     22  O   UNL     1       3.995   1.628  19.332  0.00  0.00    +0.000 OA
BRANCH  21  23
ATOM     23  O   UNL     1       4.353   2.635  17.241  0.00  0.00    +0.000 OA
BRANCH  23  27
ATOM     24  C   UNL     1       6.127   6.443  17.175  0.00  0.00    +0.000 A 
ATOM     25  C   UNL     1       5.709   5.796  16.011  0.00  0.00    +0.000 A 
ATOM     26  C   UNL     1       5.083   4.552  16.081  0.00  0.00    +0.000 A 
ATOM     27  C   UNL     1       4.873   3.944  17.317  0.00  0.00    +0.000 A 
ATOM     28  C   UNL     1       5.248   4.590  18.489  0.00  0.00    +0.000 A 
ATOM     29  C   UNL     1       5.891   5.831  18.413  0.00  0.00    +0.000 A 
BRANCH  24  33
ATOM     30  C   UNL     1       8.310   9.456  17.767  0.00  0.00    +0.000 C 
ATOM     31  C   UNL     1       7.896   8.021  17.957  0.00  0.00    +0.000 C 
ATOM     32  O   UNL     1       8.498   7.292  18.737  0.00  0.00    +0.000 OA
ATOM     33  N   UNL     1       6.806   7.679  17.174  0.00  0.00    +0.000 N 
ATOM     34  H   UNL     1       6.499   8.358  16.489  0.00  0.00    +0.000 HD
ENDBRANCH  24  33
ENDBRANCH  23  27
ENDBRANCH  21  23
ENDBRANCH  20  21
ENDBRANCH  19  20
ENDBRANCH   1  19
TORSDOF 9
ENDMDL
MODEL 4
REMARK VINA RESULT:      -8.0      1.723      2.700
REMARK  Name = 
REMARK  10 active torsions:
REMARK  status: ('A' for Active; 'I' for Inactive)
REMARK    1  A    between atoms: C_1  and  C_2
REMARK    2  A    between atoms: N_4  and  C_5
REMARK    3  A    between atoms: C_8  and  O_9
REMARK    4  A    between atoms: O_9  and  C_10
REMARK    5  A    between atoms: C_10  and  C_12
REMARK    6  A    between atoms: C_12  and  C_13
REMARK    7  A    between atoms: C_13  and  C_14
REMARK    8  A    between atoms: C_17  and  N_18
REMARK    9  A    between atoms: N_18  and  C_19
REMARK   10  A    between atoms: C_23  and  C_24
REMARK                            x       y       z     vdW  Elec       q    Type
REMARK                         _______ _______ _______ _____ _____    ______ ____
ROOT
ATOM      1  C   UNL     1       2.014   5.314  19.406  0.00  0.00    +0.000 A 
ATOM      2  C   UNL     1       2.328   5.948  18.199  0.00  0.00    +0.000 A 
ATOM      3  C   UNL     1       2.296   7.343  18.096  0.00  0.00    +0.000 A 
ATOM      4  C   UNL     1       1.941   8.133  19.195  0.00  0.00    +0.000 A 
ATOM      5  C   UNL     1       1.657   7.495  20.408  0.00  0.00    +0.000 A 
ATOM      6  C   UNL     1       1.688   6.102  20.514  0.00  0.00    +0.000 A 
ENDROOT
BRANCH   4   7
ATOM      7  N   UNL     1       1.913   9.539  19.073  0.00  0.00    +0.000 N 
ATOM      8  H   UNL     1       2.691   9.904  18.529  0.00  0.00    +0.000 HD
BRANCH   7   9
ATOM      9  C   UNL     1       0.791  10.389  18.995  0.00  0.00    +0.000 A 
ATOM     10  C   UNL     1       0.697  11.579  19.715  0.00  0.00    +0.000 A 
ATOM     11  C   UNL     1      -0.446  12.347  19.589  0.00  0.00    +0.000 A 
ATOM     12  N   UNL     1      -1.493  12.013  18.807  0.00  0.00    +0.000 NA
ATOM     13  C   UNL     1      -1.410  10.848  18.106  0.00  0.00    +0.000 A 
ATOM     14  C   UNL     1      -0.286  10.021  18.183  0.00  0.00    +0.000 A 
BRANCH  13  15
ATOM     15  C   UNL     1      -2.570  10.429  17.214  0.00  0.00    +0.000 C 
ATOM     16  F   UNL     1      -3.551   9.730  17.853  0.00  0.00    +0.000 F 
ATOM     17  F   UNL     1      -3.194  11.493  16.627  0.00  0.00    +0.000 F 
ATOM     18  F   UNL     1      -2.166   9.632  16.179  0.00  0.00    +0.000 F 
ENDBRANCH  13  15
ENDBRANCH   7   9
ENDBRANCH   4   7
BRANCH   1  19
ATOM     19  C   UNL     1       2.032   3.816  19.522  0.00  0.00    +0.000 C 
BRANCH  19  20
ATOM     20  C   UNL     1       3.080   3.311  20.508  0.00  0.00    +0.000 C 
BRANCH  20  21
ATOM     21  C   UNL     1       4.213   2.741  19.702  0.00  0.00    +0.000 C 
ATOM     22  O   UNL     1       4.180   1.647  19.155  0.00  0.00    +0.000 OA
BRANCH  21  23
ATOM     23  O   UNL     1       5.206   3.714  19.586  0.00  0.00    +0.000 OA
BRANCH  23  27
ATOM     24  C   UNL     1       6.512   4.883  15.767  0.00  0.00    +0.000 A 
ATOM     25  C   UNL     1       5.288   4.244  15.973  0.00  0.00    +0.000 A 
ATOM     26  C   UNL     1       4.871   3.913  17.262  0.00  0.00    +0.000 A 
ATOM     27  C   UNL     1       5.679   4.217  18.356  0.00  0.00    +0.000 A 
ATOM     28  C   UNL     1       6.882   4.888  18.175  0.00  0.00    +0.000 A 
ATOM     29  C   UNL     1       7.305   5.202  16.877  0.00  0.00    +0.000 A 
BRANCH  24  33
ATOM     30  C   UNL     1       7.581   5.064  12.159  0.00  0.00    +0.000 C 
ATOM     31  C   UNL     1       6.823   4.483  13.324  0.00  0.00    +0.000 C 
ATOM     32  O   UNL     1       6.133   3.479  13.186  0.00  0.00    +0.000 OA
ATOM     33  N   UNL     1       7.014   5.205  14.490  0.00  0.00    +0.000 N 
ATOM     34  H   UNL     1       7.513   6.082  14.412  0.00  0.00    +0.000 HD
ENDBRANCH  24  33
ENDBRANCH  23  27
ENDBRANCH  21  23
ENDBRANCH  20  21
ENDBRANCH  19  20
ENDBRANCH   1  19
TORSDOF 9
ENDMDL
MODEL 5
REMARK VINA RESULT:      -7.8      5.879      8.960
REMARK  Name = 
REMARK  10 active torsions:
REMARK  status: ('A' for Active; 'I' for Inactive)
REMARK    1  A    between atoms: C_1  and  C_2
REMARK    2  A    between atoms: N_4  and  C_5
REMARK    3  A    between atoms: C_8  and  O_9
REMARK    4  A    between atoms: O_9  and  C_10
REMARK    5  A    between atoms: C_10  and  C_12
REMARK    6  A    between atoms: C_12  and  C_13
REMARK    7  A    between atoms: C_13  and  C_14
REMARK    8  A    between atoms: C_17  and  N_18
REMARK    9  A    between atoms: N_18  and  C_19
REMARK   10  A    between atoms: C_23  and  C_24
REMARK                            x       y       z     vdW  Elec       q    Type
REMARK                         _______ _______ _______ _____ _____    ______ ____
ROOT
ATOM      1  C   UNL     1       7.652   7.662  17.809  0.00  0.00    +0.000 A 
ATOM      2  C   UNL     1       6.487   7.250  17.153  0.00  0.00    +0.000 A 
ATOM      3  C   UNL     1       5.911   6.006  17.437  0.00  0.00    +0.000 A 
ATOM      4  C   UNL     1       6.492   5.146  18.375  0.00  0.00    +0.000 A 
ATOM      5  C   UNL     1       7.640   5.578  19.050  0.00  0.00    +0.000 A 
ATOM      6  C   UNL     1       8.218   6.818  18.769  0.00  0.00    +0.000 A 
ENDROOT
BRANCH   4   7
ATOM      7  N   UNL     1       5.897   3.896  18.648  0.00  0.00    +0.000 N 
ATOM      8  H   UNL     1       6.393   3.370  19.363  0.00  0.00    +0.000 HD
BRANCH   7   9
ATOM      9  C   UNL     1       4.530   3.551  18.615  0.00  0.00    +0.000 A 
ATOM     10  C   UNL     1       3.919   3.005  17.488  0.00  0.00    +0.000 A 
ATOM     11  C   UNL     1       2.570   2.707  17.538  0.00  0.00    +0.000 A 
ATOM     12  N   UNL     1       1.794   2.918  18.620  0.00  0.00    +0.000 NA
ATOM     13  C   UNL     1       2.383   3.457  19.723  0.00  0.00    +0.000 A 
ATOM     14  C   UNL     1       3.743   3.783  19.746  0.00  0.00    +0.000 A 
BRANCH  13  15
ATOM     15  C   UNL     1       1.545   3.717  20.967  0.00  0.00    +0.000 C 
ATOM     16  F   UNL     1       0.821   2.645  21.396  0.00  0.00    +0.000 F 
ATOM     17  F   UNL     1       2.299   4.108  22.037  0.00  0.00    +0.000 F 
ATOM     18  F   UNL     1       0.638   4.723  20.780  0.00  0.00    +0.000 F 
ENDBRANCH  13  15
ENDBRANCH   7   9
ENDBRANCH   4   7
BRANCH   1  19
ATOM     19  C   UNL     1       8.285   8.989  17.501  0.00  0.00    +0.000 C 
BRANCH  19  20
ATOM     20  C   UNL     1       8.303   9.930  18.701  0.00  0.00    +0.000 C 
BRANCH  20  21
ATOM     21  C   UNL     1       9.571  10.733  18.619  0.00  0.00    +0.000 C 
ATOM     22  O   UNL     1       9.997  11.235  17.588  0.00  0.00    +0.000 OA
BRANCH  21  23
ATOM     23  O   UNL     1      10.068  10.904  19.911  0.00  0.00    +0.000 OA
BRANCH  23  27
ATOM     24  C   UNL     1       9.375  14.166  22.469  0.00  0.00    +0.000 A 
ATOM     25  C   UNL     1      10.277  14.232  21.405  0.00  0.00    +0.000 A 
ATOM     26  C   UNL     1      10.444  13.141  20.552  0.00  0.00    +0.000 A 
ATOM     27  C   UNL     1       9.712  11.974  20.759  0.00  0.00    +0.000 A 
ATOM     28  C   UNL     1       8.782  11.903  21.790  0.00  0.00    +0.000 A 
ATOM     29  C   UNL     1       8.630  12.994  22.654  0.00  0.00    +0.000 A 
BRANCH  24  33
ATOM     30  C   UNL     1       8.209  17.041  24.606  0.00  0.00    +0.000 C 
ATOM     31  C   UNL     1       8.025  15.930  23.606  0.00  0.00    +0.000 C 
ATOM     32  O   UNL     1       6.938  15.739  23.073  0.00  0.00    +0.000 OA
ATOM     33  N   UNL     1       9.191  15.212  23.395  0.00  0.00    +0.000 N 
ATOM     34  H   UNL     1       9.973  15.414  24.005  0.00  0.00    +0.000 HD
ENDBRANCH  24  33
ENDBRANCH  23  27
ENDBRANCH  21  23
ENDBRANCH  20  21
ENDBRANCH  19  20
ENDBRANCH   1  19
TORSDOF 9
ENDMDL
MODEL 6
REMARK VINA RESULT:      -7.8      1.143      1.570
REMARK  Name = 
REMARK  10 active torsions:
REMARK  status: ('A' for Active; 'I' for Inactive)
REMARK    1  A    between atoms: C_1  and  C_2
REMARK    2  A    between atoms: N_4  and  C_5
REMARK    3  A    between atoms: C_8  and  O_9
REMARK    4  A    between atoms: O_9  and  C_10
REMARK    5  A    between atoms: C_10  and  C_12
REMARK    6  A    between atoms: C_12  and  C_13
REMARK    7  A    between atoms: C_13  and  C_14
REMARK    8  A    between atoms: C_17  and  N_18
REMARK    9  A    between atoms: N_18  and  C_19
REMARK   10  A    between atoms: C_23  and  C_24
REMARK                            x       y       z     vdW  Elec       q    Type
REMARK                         _______ _______ _______ _____ _____    ______ ____
ROOT
ATOM      1  C   UNL     1       2.400   6.034  19.500  0.00  0.00    +0.000 A 
ATOM      2  C   UNL     1       2.625   7.083  18.600  0.00  0.00    +0.000 A 
ATOM      3  C   UNL     1       2.163   8.374  18.881  0.00  0.00    +0.000 A 
ATOM      4  C   UNL     1       1.462   8.642  20.062  0.00  0.00    +0.000 A 
ATOM      5  C   UNL     1       1.268   7.595  20.971  0.00  0.00    +0.000 A 
ATOM      6  C   UNL     1       1.726   6.305  20.694  0.00  0.00    +0.000 A 
ENDROOT
BRANCH   4   7
ATOM      7  N   UNL     1       1.004   9.950  20.328  0.00  0.00    +0.000 N 
ATOM      8  H   UNL     1       1.661  10.494  20.882  0.00  0.00    +0.000 HD
BRANCH   7   9
ATOM      9  C   UNL     1       0.211  10.783  19.512  0.00  0.00    +0.000 A 
ATOM     10  C   UNL     1       0.552  12.105  19.230  0.00  0.00    +0.000 A 
ATOM     11  C   UNL     1      -0.289  12.855  18.430  0.00  0.00    +0.000 A 
ATOM     12  N   UNL     1      -1.438  12.387  17.900  0.00  0.00    +0.000 NA
ATOM     13  C   UNL     1      -1.780  11.098  18.177  0.00  0.00    +0.000 A 
ATOM     14  C   UNL     1      -0.978  10.280  18.978  0.00  0.00    +0.000 A 
BRANCH  13  15
ATOM     15  C   UNL     1      -3.070  10.528  17.605  0.00  0.00    +0.000 C 
ATOM     16  F   UNL     1      -4.194  10.865  18.298  0.00  0.00    +0.000 F 
ATOM     17  F   UNL     1      -3.295  10.926  16.317  0.00  0.00    +0.000 F 
ATOM     18  F   UNL     1      -3.059   9.162  17.563  0.00  0.00    +0.000 F 
ENDBRANCH  13  15
ENDBRANCH   7   9
ENDBRANCH   4   7
BRANCH   1  19
ATOM     19  C   UNL     1       2.879   4.642  19.200  0.00  0.00    +0.000 C 
BRANCH  19  20
ATOM     20  C   UNL     1       2.890   4.329  17.707  0.00  0.00    +0.000 C 
BRANCH  20  21
ATOM     21  C   UNL     1       4.030   3.381  17.459  0.00  0.00    +0.000 C 
ATOM     22  O   UNL     1       4.062   2.229  17.869  0.00  0.00    +0.000 OA
BRANCH  21  23
ATOM     23  O   UNL     1       4.934   3.996  16.593  0.00  0.00    +0.000 OA
BRANCH  23  27
ATOM     24  C   UNL     1       7.602   6.854  18.134  0.00  0.00    +0.000 A 
ATOM     25  C   UNL     1       7.514   5.561  18.653  0.00  0.00    +0.000 A 
ATOM     26  C   UNL     1       6.647   4.629  18.084  0.00  0.00    +0.000 A 
ATOM     27  C   UNL     1       5.859   4.985  16.990  0.00  0.00    +0.000 A 
ATOM     28  C   UNL     1       5.962   6.255  16.436  0.00  0.00    +0.000 A 
ATOM     29  C   UNL     1       6.820   7.193  17.022  0.00  0.00    +0.000 A 
BRANCH  24  33
ATOM     30  C   UNL     1       9.462   9.984  19.100  0.00  0.00    +0.000 C 
ATOM     31  C   UNL     1       8.380   9.211  18.393  0.00  0.00    +0.000 C 
ATOM     32  O   UNL     1       7.586   9.778  17.652  0.00  0.00    +0.000 OA
ATOM     33  N   UNL     1       8.421   7.859  18.688  0.00  0.00    +0.000 N 
ATOM     34  H   UNL     1       9.059   7.564  19.417  0.00  0.00    +0.000 HD
ENDBRANCH  24  33
ENDBRANCH  23  27
ENDBRANCH  21  23
ENDBRANCH  20  21
ENDBRANCH  19  20
ENDBRANCH   1  19
TORSDOF 9
ENDMDL
MODEL 7
REMARK VINA RESULT:      -7.8      5.755      8.771
REMARK  Name = 
REMARK  10 active torsions:
REMARK  status: ('A' for Active; 'I' for Inactive)
REMARK    1  A    between atoms: C_1  and  C_2
REMARK    2  A    between atoms: N_4  and  C_5
REMARK    3  A    between atoms: C_8  and  O_9
REMARK    4  A    between atoms: O_9  and  C_10
REMARK    5  A    between atoms: C_10  and  C_12
REMARK    6  A    between atoms: C_12  and  C_13
REMARK    7  A    between atoms: C_13  and  C_14
REMARK    8  A    between atoms: C_17  and  N_18
REMARK    9  A    between atoms: N_18  and  C_19
REMARK   10  A    between atoms: C_23  and  C_24
REMARK                            x       y       z     vdW  Elec       q    Type
REMARK                         _______ _______ _______ _____ _____    ______ ____
ROOT
ATOM      1  C   UNL     1       9.283  10.601  19.108  0.00  0.00    +0.000 A 
ATOM      2  C   UNL     1       9.862  11.114  20.274  0.00  0.00    +0.000 A 
ATOM      3  C   UNL     1      10.222  12.463  20.357  0.00  0.00    +0.000 A 
ATOM      4  C   UNL     1      10.017  13.326  19.275  0.00  0.00    +0.000 A 
ATOM      5  C   UNL     1       9.410  12.814  18.123  0.00  0.00    +0.000 A 
ATOM      6  C   UNL     1       9.050  11.466  18.036  0.00  0.00    +0.000 A 
ENDROOT
BRANCH   4   7
ATOM      7  N   UNL     1      10.386  14.685  19.376  0.00  0.00    +0.000 N 
ATOM      8  H   UNL     1      11.378  14.839  19.211  0.00  0.00    +0.000 HD
BRANCH   7   9
ATOM      9  C   UNL     1       9.629  15.825  19.039  0.00  0.00    +0.000 A 
ATOM     10  C   UNL     1      10.172  16.916  18.363  0.00  0.00    +0.000 A 
ATOM     11  C   UNL     1       9.360  17.999  18.082  0.00  0.00    +0.000 A 
ATOM     12  N   UNL     1       8.059  18.074  18.431  0.00  0.00    +0.000 NA
ATOM     13  C   UNL     1       7.524  17.014  19.097  0.00  0.00    +0.000 A 
ATOM     14  C   UNL     1       8.284  15.884  19.414  0.00  0.00    +0.000 A 
BRANCH  13  15
ATOM     15  C   UNL     1       6.060  17.055  19.514  0.00  0.00    +0.000 C 
ATOM     16  F   UNL     1       5.194  17.358  18.507  0.00  0.00    +0.000 F 
ATOM     17  F   UNL     1       5.628  15.866  20.031  0.00  0.00    +0.000 F 
ATOM     18  F   UNL     1       5.826  17.980  20.493  0.00  0.00    +0.000 F 
ENDBRANCH  13  15
ENDBRANCH   7   9
ENDBRANCH   4   7
BRANCH   1  19
ATOM     19  C   UNL     1       8.907   9.150  19.005  0.00  0.00    +0.000 C 
BRANCH  19  20
ATOM     20  C   UNL     1       8.150   8.824  17.722  0.00  0.00    +0.000 C 
BRANCH  20  21
ATOM     21  C   UNL     1       7.730   7.383  17.806  0.00  0.00    +0.000 C 
ATOM     22  O   UNL     1       8.055   6.628  18.712  0.00  0.00    +0.000 OA
BRANCH  21  23
ATOM     23  O   UNL     1       6.827   7.126  16.774  0.00  0.00    +0.000 OA
BRANCH  23  27
ATOM     24  C   UNL     1       3.384   4.830  17.502  0.00  0.00    +0.000 A 
ATOM     25  C   UNL     1       3.426   6.205  17.738  0.00  0.00    +0.000 A 
ATOM     26  C   UNL     1       4.574   6.938  17.440  0.00  0.00    +0.000 A 
ATOM     27  C   UNL     1       5.691   6.299  16.906  0.00  0.00    +0.000 A 
ATOM     28  C   UNL     1       5.655   4.938  16.629  0.00  0.00    +0.000 A 
ATOM     29  C   UNL     1       4.507   4.203  16.946  0.00  0.00    +0.000 A 
BRANCH  24  33
ATOM     30  C   UNL     1       0.811   2.511  18.984  0.00  0.00    +0.000 C 
ATOM     31  C   UNL     1       2.054   3.361  19.019  0.00  0.00    +0.000 C 
ATOM     32  O   UNL     1       2.748   3.416  20.028  0.00  0.00    +0.000 OA
ATOM     33  N   UNL     1       2.274   4.021  17.822  0.00  0.00    +0.000 N 
ATOM     34  H   UNL     1       1.541   3.971  17.126  0.00  0.00    +0.000 HD
ENDBRANCH  24  33
ENDBRANCH  23  27
ENDBRANCH  21  23
ENDBRANCH  20  21
ENDBRANCH  19  20
ENDBRANCH   1  19
TORSDOF 9
ENDMDL
MODEL 8
REMARK VINA RESULT:      -7.8      1.232      1.735
REMARK  Name = 
REMARK  10 active torsions:
REMARK  status: ('A' for Active; 'I' for Inactive)
REMARK    1  A    between atoms: C_1  and  C_2
REMARK    2  A    between atoms: N_4  and  C_5
REMARK    3  A    between atoms: C_8  and  O_9
REMARK    4  A    between atoms: O_9  and  C_10
REMARK    5  A    between atoms: C_10  and  C_12
REMARK    6  A    between atoms: C_12  and  C_13
REMARK    7  A    between atoms: C_13  and  C_14
REMARK    8  A    between atoms: C_17  and  N_18
REMARK    9  A    between atoms: N_18  and  C_19
REMARK   10  A    between atoms: C_23  and  C_24
REMARK                            x       y       z     vdW  Elec       q    Type
REMARK                         _______ _______ _______ _____ _____    ______ ____
ROOT
ATOM      1  C   UNL     1       2.447   6.883  19.476  0.00  0.00    +0.000 A 
ATOM      2  C   UNL     1       2.618   7.355  18.170  0.00  0.00    +0.000 A 
ATOM      3  C   UNL     1       2.084   8.589  17.782  0.00  0.00    +0.000 A 
ATOM      4  C   UNL     1       1.361   9.372  18.690  0.00  0.00    +0.000 A 
ATOM      5  C   UNL     1       1.220   8.908  20.002  0.00  0.00    +0.000 A 
ATOM      6  C   UNL     1       1.751   7.676  20.393  0.00  0.00    +0.000 A 
ENDROOT
BRANCH   4   7
ATOM      7  N   UNL     1       0.829  10.614  18.281  0.00  0.00    +0.000 N 
ATOM      8  H   UNL     1       1.016  10.822  17.303  0.00  0.00    +0.000 HD
BRANCH   7   9
ATOM      9  C   UNL     1      -0.351  11.248  18.722  0.00  0.00    +0.000 A 
ATOM     10  C   UNL     1      -0.381  12.096  19.828  0.00  0.00    +0.000 A 
ATOM     11  C   UNL     1      -1.584  12.667  20.199  0.00  0.00    +0.000 A 
ATOM     12  N   UNL     1      -2.749  12.450  19.554  0.00  0.00    +0.000 NA
ATOM     13  C   UNL     1      -2.728  11.618  18.477  0.00  0.00    +0.000 A 
ATOM     14  C   UNL     1      -1.548  11.005  18.043  0.00  0.00    +0.000 A 
BRANCH  13  15
ATOM     15  C   UNL     1      -4.020  11.340  17.721  0.00  0.00    +0.000 C 
ATOM     16  F   UNL     1      -5.025  12.225  17.974  0.00  0.00    +0.000 F 
ATOM     17  F   UNL     1      -3.849  11.351  16.365  0.00  0.00    +0.000 F 
ATOM     18  F   UNL     1      -4.534  10.107  18.009  0.00  0.00    +0.000 F 
ENDBRANCH  13  15
ENDBRANCH   7   9
ENDBRANCH   4   7
BRANCH   1  19
ATOM     19  C   UNL     1       3.006   5.553  19.896  0.00  0.00    +0.000 C 
BRANCH  19  20
ATOM     20  C   UNL     1       3.024   4.533  18.762  0.00  0.00    +0.000 C 
BRANCH  20  21
ATOM     21  C   UNL     1       4.208   3.635  18.989  0.00  0.00    +0.000 C 
ATOM     22  O   UNL     1       4.287   2.826  19.903  0.00  0.00    +0.000 OA
BRANCH  21  23
ATOM     23  O   UNL     1       5.094   3.797  17.924  0.00  0.00    +0.000 OA
BRANCH  23  27
ATOM     24  C   UNL     1       7.162   7.426  17.466  0.00  0.00    +0.000 A 
ATOM     25  C   UNL     1       7.539   6.468  18.408  0.00  0.00    +0.000 A 
ATOM     26  C   UNL     1       6.853   5.257  18.497  0.00  0.00    +0.000 A 
ATOM     27  C   UNL     1       5.782   4.997  17.645  0.00  0.00    +0.000 A 
ATOM     28  C   UNL     1       5.417   5.922  16.675  0.00  0.00    +0.000 A 
ATOM     29  C   UNL     1       6.097   7.144  16.601  0.00  0.00    +0.000 A 
BRANCH  24  33
ATOM     30  C   UNL     1       9.006  10.684  17.887  0.00  0.00    +0.000 C 
ATOM     31  C   UNL     1       8.591   9.296  18.297  0.00  0.00    +0.000 C 
ATOM     32  O   UNL     1       8.962   8.819  19.363  0.00  0.00    +0.000 OA
ATOM     33  N   UNL     1       7.781   8.688  17.353  0.00  0.00    +0.000 N 
ATOM     34  H   UNL     1       7.667   9.165  16.467  0.00  0.00    +0.000 HD
ENDBRANCH  24  33
ENDBRANCH  23  27
ENDBRANCH  21  23
ENDBRANCH  20  21
ENDBRANCH  19  20
ENDBRANCH   1  19
TORSDOF 9
ENDMDL
MODEL 9
REMARK VINA RESULT:      -7.8      5.925     10.594
REMARK  Name = 
REMARK  10 active torsions:
REMARK  status: ('A' for Active; 'I' for Inactive)
REMARK    1  A    between atoms: C_1  and  C_2
REMARK    2  A    between atoms: N_4  and  C_5
REMARK    3  A    between atoms: C_8  and  O_9
REMARK    4  A    between atoms: O_9  and  C_10
REMARK    5  A    between atoms: C_10  and  C_12
REMARK    6  A    between atoms: C_12  and  C_13
REMARK    7  A    between atoms: C_13  and  C_14
REMARK    8  A    between atoms: C_17  and  N_18
REMARK    9  A    between atoms: N_18  and  C_19
REMARK   10  A    between atoms: C_23  and  C_24
REMARK                            x       y       z     vdW  Elec       q    Type
REMARK                         _______ _______ _______ _____ _____    ______ ____
ROOT
ATOM      1  C   UNL     1       0.749   9.623  19.415  0.00  0.00    +0.000 A 
ATOM      2  C   UNL     1       0.835   8.912  20.618  0.00  0.00    +0.000 A 
ATOM      3  C   UNL     1       1.652   7.781  20.721  0.00  0.00    +0.000 A 
ATOM      4  C   UNL     1       2.394   7.332  19.623  0.00  0.00    +0.000 A 
ATOM      5  C   UNL     1       2.327   8.064  18.432  0.00  0.00    +0.000 A 
ATOM      6  C   UNL     1       1.511   9.194  18.325  0.00  0.00    +0.000 A 
ENDROOT
BRANCH   4   7
ATOM      7  N   UNL     1       3.212   6.189  19.745  0.00  0.00    +0.000 N 
ATOM      8  H   UNL     1       2.973   5.615  20.550  0.00  0.00    +0.000 HD
BRANCH   7   9
ATOM      9  C   UNL     1       3.793   5.414  18.720  0.00  0.00    +0.000 A 
ATOM     10  C   UNL     1       3.090   4.422  18.037  0.00  0.00    +0.000 A 
ATOM     11  C   UNL     1       3.740   3.700  17.053  0.00  0.00    +0.000 A 
ATOM     12  N   UNL     1       5.030   3.892  16.709  0.00  0.00    +0.000 NA
ATOM     13  C   UNL     1       5.724   4.856  17.376  0.00  0.00    +0.000 A 
ATOM     14  C   UNL     1       5.132   5.625  18.382  0.00  0.00    +0.000 A 
BRANCH  13  15
ATOM     15  C   UNL     1       7.184   5.105  17.024  0.00  0.00    +0.000 C 
ATOM     16  F   UNL     1       8.051   4.177  17.517  0.00  0.00    +0.000 F 
ATOM     17  F   UNL     1       7.401   5.137  15.676  0.00  0.00    +0.000 F 
ATOM     18  F   UNL     1       7.631   6.310  17.490  0.00  0.00    +0.000 F 
ENDBRANCH  13  15
ENDBRANCH   7   9
ENDBRANCH   4   7
BRANCH   1  19
ATOM     19  C   UNL     1      -0.137  10.829  19.292  0.00  0.00    +0.000 C 
BRANCH  19  20
ATOM     20  C   UNL     1       0.649  12.132  19.180  0.00  0.00    +0.000 C 
BRANCH  20  21
ATOM     21  C   UNL     1       0.851  12.652  20.576  0.00  0.00    +0.000 C 
ATOM     22  O   UNL     1       1.833  12.404  21.262  0.00  0.00    +0.000 OA
BRANCH  21  23
ATOM     23  O   UNL     1      -0.182  13.543  20.868  0.00  0.00    +0.000 OA
BRANCH  23  27
ATOM     24  C   UNL     1      -4.054  12.718  22.275  0.00  0.00    +0.000 A 
ATOM     25  C   UNL     1      -3.820  13.243  21.003  0.00  0.00    +0.000 A 
ATOM     26  C   UNL     1      -2.517  13.460  20.558  0.00  0.00    +0.000 A 
ATOM     27  C   UNL     1      -1.437  13.155  21.384  0.00  0.00    +0.000 A 
ATOM     28  C   UNL     1      -1.649  12.595  22.638  0.00  0.00    +0.000 A 
ATOM     29  C   UNL     1      -2.960  12.395  23.087  0.00  0.00    +0.000 A 
BRANCH  24  33
ATOM     30  C   UNL     1      -7.383  12.843  24.035  0.00  0.00    +0.000 C 
ATOM     31  C   UNL     1      -6.081  13.423  23.549  0.00  0.00    +0.000 C 
ATOM     32  O   UNL     1      -5.768  14.577  23.820  0.00  0.00    +0.000 OA
ATOM     33  N   UNL     1      -5.345  12.516  22.805  0.00  0.00    +0.000 N 
ATOM     34  H   UNL     1      -5.798  11.643  22.564  0.00  0.00    +0.000 HD
ENDBRANCH  24  33
ENDBRANCH  23  27
ENDBRANCH  21  23
ENDBRANCH  20  21
ENDBRANCH  19  20
ENDBRANCH   1  19
TORSDOF 9
ENDMDL
