MODEL 1
REMARK VINA RESULT:      -7.3      0.000      0.000
REMARK  Name = 
REMARK  12 active torsions:
REMARK  status: ('A' for Active; 'I' for Inactive)
REMARK    1  A    between atoms: N_4  and  C_5
REMARK    2  A    between atoms: C_8  and  N_9
REMARK    3  A    between atoms: N_9  and  C_10
REMARK    4  A    between atoms: C_13  and  N_14
REMARK    5  A    between atoms: C_15  and  C_17
REMARK    6  A    between atoms: C_17  and  C_18
REMARK    7  A    between atoms: C_18  and  C_19
REMARK    8  A    between atoms: C_19  and  C_20
REMARK    9  A    between atoms: C_20  and  C_21
REMARK   10  A    between atoms: C_21  and  C_22
REMARK   11  A    between atoms: C_22  and  C_23
REMARK   12  A    between atoms: C_23  and  N_24
REMARK                            x       y       z     vdW  Elec       q    Type
REMARK                         _______ _______ _______ _____ _____    ______ ____
ROOT
ATOM      1  C   UNL     1       1.198   9.357  19.434  0.00  0.00    +0.000 A 
ATOM      2  C   UNL     1       1.924   8.624  18.484  0.00  0.00    +0.000 A 
ATOM      3  C   UNL     1       2.421   7.369  18.778  0.00  0.00    +0.000 A 
ATOM      4  C   UNL     1       2.216   6.788  20.044  0.00  0.00    +0.000 A 
ATOM      5  C   UNL     1       1.479   7.520  20.999  0.00  0.00    +0.000 A 
ATOM      6  C   UNL     1       0.992   8.799  20.703  0.00  0.00    +0.000 A 
ENDROOT
BRANCH   4   7
ATOM      7  N   UNL     1       2.721   5.491  20.400  0.00  0.00    +0.000 N 
ATOM      8  C   UNL     1       1.968   4.360  20.566  0.00  0.00    +0.000 C 
ATOM      9  O   UNL     1       0.760   4.363  20.406  0.00  0.00    +0.000 OA
ATOM     10  H   UNL     1       3.746   5.398  20.486  0.00  0.00    +0.000 HD
BRANCH   8  11
ATOM     11  C   UNL     1       2.613   3.054  20.927  0.00  0.00    +0.000 C 
BRANCH  11  12
ATOM     12  C   UNL     1       2.896   2.263  19.645  0.00  0.00    +0.000 C 
BRANCH  12  13
ATOM     13  C   UNL     1       4.176   2.744  18.965  0.00  0.00    +0.000 C 
BRANCH  13  14
ATOM     14  C   UNL     1       3.884   3.156  17.519  0.00  0.00    +0.000 C 
BRANCH  14  15
ATOM     15  C   UNL     1       4.406   4.567  17.242  0.00  0.00    +0.000 C 
BRANCH  15  16
ATOM     16  C   UNL     1       5.731   4.810  17.968  0.00  0.00    +0.000 C 
BRANCH  16  17
ATOM     17  C   UNL     1       6.906   4.705  16.994  0.00  0.00    +0.000 C 
BRANCH  17  18
ATOM     18  N   UNL     1       8.066   4.127  17.660  0.00  0.00    +0.000 NA
ATOM     19  H   UNL     1       7.743   3.553  18.474  0.00  0.00    +0.000 HD
ATOM     20  H   UNL     1       8.653   4.908  18.034  0.00  0.00    +0.000 HD
ENDBRANCH  17  18
ENDBRANCH  16  17
ENDBRANCH  15  16
ENDBRANCH  14  15
ENDBRANCH  13  14
ENDBRANCH  12  13
ENDBRANCH  11  12
ENDBRANCH   8  11
ENDBRANCH   4   7
BRANCH   1  21
ATOM     21  N   UNL     1       0.724  10.667  19.141  0.00  0.00    +0.000 N 
ATOM     22  H   UNL     1       1.375  11.457  19.259  0.00  0.00    +0.000 HD
BRANCH  21  26
ATOM     23  C   UNL     1      -3.109  11.489  17.502  0.00  0.00    +0.000 A 
ATOM     24  C   UNL     1      -2.346  10.435  16.987  0.00  0.00    +0.000 A 
ATOM     25  C   UNL     1      -1.090  10.149  17.530  0.00  0.00    +0.000 A 
ATOM     26  C   UNL     1      -0.565  10.929  18.583  0.00  0.00    +0.000 A 
ATOM     27  C   UNL     1      -1.330  11.977  19.096  0.00  0.00    +0.000 A 
ATOM     28  C   UNL     1      -2.583  12.260  18.558  0.00  0.00    +0.000 A 
BRANCH  23  32
ATOM     29  N   UNL     1      -5.683  10.586  18.477  0.00  0.00    +0.000 NA
ATOM     30  C   UNL     1      -5.618  11.506  17.578  0.00  0.00    +0.000 C 
ATOM     31  N   UNL     1      -6.792  12.200  17.195  0.00  0.00    +0.000 N 
ATOM     32  N   UNL     1      -4.380  11.791  16.929  0.00  0.00    +0.000 N 
ATOM     33  H   UNL     1      -6.565  10.334  18.941  0.00  0.00    +0.000 HD
ATOM     34  H   UNL     1      -7.686  12.009  17.670  0.00  0.00    +0.000 HD
ATOM     35  H   UNL     1      -6.743  12.966  16.510  0.00  0.00    +0.000 HD
ATOM     36  H   UNL     1      -4.409  12.225  15.993  0.00  0.00    +0.000 HD
ENDBRANCH  23  32
ENDBRANCH  21  26
ENDBRANCH   1  21
TORSDOF 12
ENDMDL
MODEL 2
REMARK VINA RESULT:      -7.3      1.091      1.774
REMARK  Name = 
REMARK  12 active torsions:
REMARK  status: ('A' for Active; 'I' for Inactive)
REMARK    1  A    between atoms: N_4  and  C_5
REMARK    2  A    between atoms: C_8  and  N_9
REMARK    3  A    between atoms: N_9  and  C_10
REMARK    4  A    between atoms: C_13  and  N_14
REMARK    5  A    between atoms: C_15  and  C_17
REMARK    6  A    between atoms: C_17  and  C_18
REMARK    7  A    between atoms: C_18  and  C_19
REMARK    8  A    between atoms: C_19  and  C_20
REMARK    9  A    between atoms: C_20  and  C_21
REMARK   10  A    between atoms: C_21  and  C_22
REMARK   11  A    between atoms: C_22  and  C_23
REMARK   12  A    between atoms: C_23  and  N_24
REMARK                            x       y       z     vdW  Elec       q    Type
REMARK                         _______ _______ _______ _____ _____    ______ ____
ROOT
ATOM      1  C   UNL     1       1.308   9.258  18.934  0.00  0.00    +0.000 A 
ATOM      2  C   UNL     1       1.072   8.938  20.280  0.00  0.00    +0.000 A 
ATOM      3  C   UNL     1       1.528   7.752  20.823  0.00  0.00    +0.000 A 
ATOM      4  C   UNL     1       2.242   6.825  20.039  0.00  0.00    +0.000 A 
ATOM      5  C   UNL     1       2.488   7.148  18.688  0.00  0.00    +0.000 A 
ATOM      6  C   UNL     1       2.010   8.344  18.137  0.00  0.00    +0.000 A 
ENDROOT
BRANCH   4   7
ATOM      7  N   UNL     1       2.727   5.575  20.554  0.00  0.00    +0.000 N 
ATOM      8  C   UNL     1       1.983   4.439  20.722  0.00  0.00    +0.000 C 
ATOM      9  O   UNL     1       0.802   4.394  20.424  0.00  0.00    +0.000 OA
ATOM     10  H   UNL     1       3.736   5.519  20.765  0.00  0.00    +0.000 HD
BRANCH   8  11
ATOM     11  C   UNL     1       2.607   3.184  21.259  0.00  0.00    +0.000 C 
BRANCH  11  12
ATOM     12  C   UNL     1       3.604   2.641  20.229  0.00  0.00    +0.000 C 
BRANCH  12  13
ATOM     13  C   UNL     1       2.888   2.069  19.008  0.00  0.00    +0.000 C 
BRANCH  13  14
ATOM     14  C   UNL     1       3.638   2.452  17.728  0.00  0.00    +0.000 C 
BRANCH  14  15
ATOM     15  C   UNL     1       4.458   3.724  17.941  0.00  0.00    +0.000 C 
BRANCH  15  16
ATOM     16  C   UNL     1       4.310   4.674  16.751  0.00  0.00    +0.000 C 
BRANCH  16  17
ATOM     17  C   UNL     1       5.681   5.162  16.277  0.00  0.00    +0.000 C 
BRANCH  17  18
ATOM     18  N   UNL     1       5.529   6.277  15.351  0.00  0.00    +0.000 NA
ATOM     19  H   UNL     1       4.510   6.460  15.199  0.00  0.00    +0.000 HD
ATOM     20  H   UNL     1       5.943   5.999  14.431  0.00  0.00    +0.000 HD
ENDBRANCH  17  18
ENDBRANCH  16  17
ENDBRANCH  15  16
ENDBRANCH  14  15
ENDBRANCH  13  14
ENDBRANCH  12  13
ENDBRANCH  11  12
ENDBRANCH   8  11
ENDBRANCH   4   7
BRANCH   1  21
ATOM     21  N   UNL     1       0.801  10.462  18.369  0.00  0.00    +0.000 N 
ATOM     22  H   UNL     1       1.446  11.050  17.821  0.00  0.00    +0.000 HD
BRANCH  21  26
ATOM     23  C   UNL     1      -3.307  11.535  18.525  0.00  0.00    +0.000 A 
ATOM     24  C   UNL     1      -2.364  12.297  19.224  0.00  0.00    +0.000 A 
ATOM     25  C   UNL     1      -1.009  11.959  19.166  0.00  0.00    +0.000 A 
ATOM     26  C   UNL     1      -0.576  10.838  18.427  0.00  0.00    +0.000 A 
ATOM     27  C   UNL     1      -1.519  10.082  17.729  0.00  0.00    +0.000 A 
ATOM     28  C   UNL     1      -2.868  10.420  17.783  0.00  0.00    +0.000 A 
BRANCH  23  32
ATOM     29  N   UNL     1      -5.028  12.242  16.306  0.00  0.00    +0.000 NA
ATOM     30  C   UNL     1      -5.534  11.990  17.462  0.00  0.00    +0.000 C 
ATOM     31  N   UNL     1      -6.940  11.883  17.607  0.00  0.00    +0.000 N 
ATOM     32  N   UNL     1      -4.691  11.869  18.607  0.00  0.00    +0.000 N 
ATOM     33  H   UNL     1      -5.610  12.366  15.467  0.00  0.00    +0.000 HD
ATOM     34  H   UNL     1      -7.554  11.954  16.782  0.00  0.00    +0.000 HD
ATOM     35  H   UNL     1      -7.351  11.639  18.518  0.00  0.00    +0.000 HD
ATOM     36  H   UNL     1      -5.102  12.048  19.536  0.00  0.00    +0.000 HD
ENDBRANCH  23  32
ENDBRANCH  21  26
ENDBRANCH   1  21
TORSDOF 12
ENDMDL
MODEL 3
REMARK VINA RESULT:      -7.1      1.164      1.444
REMARK  Name = 
REMARK  12 active torsions:
REMARK  status: ('A' for Active; 'I' for Inactive)
REMARK    1  A    between atoms: N_4  and  C_5
REMARK    2  A    between atoms: C_8  and  N_9
REMARK    3  A    between atoms: N_9  and  C_10
REMARK    4  A    between atoms: C_13  and  N_14
REMARK    5  A    between atoms: C_15  and  C_17
REMARK    6  A    between atoms: C_17  and  C_18
REMARK    7  A    between atoms: C_18  and  C_19
REMARK    8  A    between atoms: C_19  and  C_20
REMARK    9  A    between atoms: C_20  and  C_21
REMARK   10  A    between atoms: C_21  and  C_22
REMARK   11  A    between atoms: C_22  and  C_23
REMARK   12  A    between atoms: C_23  and  N_24
REMARK                            x       y       z     vdW  Elec       q    Type
REMARK                         _______ _______ _______ _____ _____    ______ ____
ROOT
ATOM      1  C   UNL     1       1.200   9.531  18.738  0.00  0.00    +0.000 A 
ATOM      2  C   UNL     1       1.958   8.823  17.794  0.00  0.00    +0.000 A 
ATOM      3  C   UNL     1       2.583   7.636  18.125  0.00  0.00    +0.000 A 
ATOM      4  C   UNL     1       2.481   7.102  19.423  0.00  0.00    +0.000 A 
ATOM      5  C   UNL     1       1.711   7.808  20.373  0.00  0.00    +0.000 A 
ATOM      6  C   UNL     1       1.093   9.020  20.038  0.00  0.00    +0.000 A 
ENDROOT
BRANCH   4   7
ATOM      7  N   UNL     1       3.120   5.878  19.819  0.00  0.00    +0.000 N 
ATOM      8  C   UNL     1       2.626   4.618  19.613  0.00  0.00    +0.000 C 
ATOM      9  O   UNL     1       1.565   4.428  19.045  0.00  0.00    +0.000 OA
ATOM     10  H   UNL     1       4.056   5.959  20.246  0.00  0.00    +0.000 HD
BRANCH   8  11
ATOM     11  C   UNL     1       3.395   3.409  20.061  0.00  0.00    +0.000 C 
BRANCH  11  12
ATOM     12  C   UNL     1       4.686   3.306  19.243  0.00  0.00    +0.000 C 
BRANCH  12  13
ATOM     13  C   UNL     1       4.478   3.789  17.809  0.00  0.00    +0.000 C 
BRANCH  13  14
ATOM     14  C   UNL     1       5.784   4.359  17.248  0.00  0.00    +0.000 C 
BRANCH  14  15
ATOM     15  C   UNL     1       5.745   5.888  17.231  0.00  0.00    +0.000 C 
BRANCH  15  16
ATOM     16  C   UNL     1       6.950   6.472  17.972  0.00  0.00    +0.000 C 
BRANCH  16  17
ATOM     17  C   UNL     1       7.756   5.361  18.648  0.00  0.00    +0.000 C 
BRANCH  17  18
ATOM     18  N   UNL     1       7.782   5.560  20.092  0.00  0.00    +0.000 NA
ATOM     19  H   UNL     1       7.045   4.961  20.533  0.00  0.00    +0.000 HD
ATOM     20  H   UNL     1       7.541   6.559  20.290  0.00  0.00    +0.000 HD
ENDBRANCH  17  18
ENDBRANCH  16  17
ENDBRANCH  15  16
ENDBRANCH  14  15
ENDBRANCH  13  14
ENDBRANCH  12  13
ENDBRANCH  11  12
ENDBRANCH   8  11
ENDBRANCH   4   7
BRANCH   1  21
ATOM     21  N   UNL     1       0.592  10.774  18.403  0.00  0.00    +0.000 N 
ATOM     22  H   UNL     1       1.188  11.514  18.005  0.00  0.00    +0.000 HD
BRANCH  21  26
ATOM     23  C   UNL     1      -3.585  11.510  18.664  0.00  0.00    +0.000 A 
ATOM     24  C   UNL     1      -3.110  10.496  17.825  0.00  0.00    +0.000 A 
ATOM     25  C   UNL     1      -1.738  10.238  17.744  0.00  0.00    +0.000 A 
ATOM     26  C   UNL     1      -0.815  11.007  18.484  0.00  0.00    +0.000 A 
ATOM     27  C   UNL     1      -1.293  12.015  19.323  0.00  0.00    +0.000 A 
ATOM     28  C   UNL     1      -2.659  12.270  19.407  0.00  0.00    +0.000 A 
BRANCH  23  32
ATOM     29  N   UNL     1      -5.194  12.655  16.547  0.00  0.00    +0.000 NA
ATOM     30  C   UNL     1      -5.759  12.138  17.581  0.00  0.00    +0.000 C 
ATOM     31  N   UNL     1      -7.166  11.968  17.603  0.00  0.00    +0.000 N 
ATOM     32  N   UNL     1      -4.983  11.785  18.725  0.00  0.00    +0.000 N 
ATOM     33  H   UNL     1      -5.728  12.950  15.718  0.00  0.00    +0.000 HD
ATOM     34  H   UNL     1      -7.731  12.208  16.776  0.00  0.00    +0.000 HD
ATOM     35  H   UNL     1      -7.622  11.517  18.407  0.00  0.00    +0.000 HD
ATOM     36  H   UNL     1      -5.456  11.741  19.640  0.00  0.00    +0.000 HD
ENDBRANCH  23  32
ENDBRANCH  21  26
ENDBRANCH   1  21
TORSDOF 12
ENDMDL
MODEL 4
REMARK VINA RESULT:      -7.0      0.514      1.078
REMARK  Name = 
REMARK  12 active torsions:
REMARK  status: ('A' for Active; 'I' for Inactive)
REMARK    1  A    between atoms: N_4  and  C_5
REMARK    2  A    between atoms: C_8  and  N_9
REMARK    3  A    between atoms: N_9  and  C_10
REMARK    4  A    between atoms: C_13  and  N_14
REMARK    5  A    between atoms: C_15  and  C_17
REMARK    6  A    between atoms: C_17  and  C_18
REMARK    7  A    between atoms: C_18  and  C_19
REMARK    8  A    between atoms: C_19  and  C_20
REMARK    9  A    between atoms: C_20  and  C_21
REMARK   10  A    between atoms: C_21  and  C_22
REMARK   11  A    between atoms: C_22  and  C_23
REMARK   12  A    between atoms: C_23  and  N_24
REMARK                            x       y       z     vdW  Elec       q    Type
REMARK                         _______ _______ _______ _____ _____    ______ ____
ROOT
ATOM      1  C   UNL     1       1.091   9.431  19.317  0.00  0.00    +0.000 A 
ATOM      2  C   UNL     1       1.839   8.743  18.350  0.00  0.00    +0.000 A 
ATOM      3  C   UNL     1       2.410   7.516  18.629  0.00  0.00    +0.000 A 
ATOM      4  C   UNL     1       2.261   6.919  19.896  0.00  0.00    +0.000 A 
ATOM      5  C   UNL     1       1.502   7.606  20.868  0.00  0.00    +0.000 A 
ATOM      6  C   UNL     1       0.939   8.857  20.586  0.00  0.00    +0.000 A 
ENDROOT
BRANCH   4   7
ATOM      7  N   UNL     1       2.843   5.651  20.237  0.00  0.00    +0.000 N 
ATOM      8  C   UNL     1       2.165   4.468  20.355  0.00  0.00    +0.000 C 
ATOM      9  O   UNL     1       0.964   4.393  20.161  0.00  0.00    +0.000 OA
ATOM     10  H   UNL     1       3.869   5.625  20.349  0.00  0.00    +0.000 HD
BRANCH   8  11
ATOM     11  C   UNL     1       2.888   3.200  20.704  0.00  0.00    +0.000 C 
BRANCH  11  12
ATOM     12  C   UNL     1       4.082   3.027  19.759  0.00  0.00    +0.000 C 
BRANCH  12  13
ATOM     13  C   UNL     1       3.727   2.137  18.571  0.00  0.00    +0.000 C 
BRANCH  13  14
ATOM     14  C   UNL     1       3.202   2.988  17.410  0.00  0.00    +0.000 C 
BRANCH  14  15
ATOM     15  C   UNL     1       4.036   4.260  17.252  0.00  0.00    +0.000 C 
BRANCH  15  16
ATOM     16  C   UNL     1       5.372   3.955  16.571  0.00  0.00    +0.000 C 
BRANCH  16  17
ATOM     17  C   UNL     1       6.493   4.799  17.181  0.00  0.00    +0.000 C 
BRANCH  17  18
ATOM     18  N   UNL     1       7.782   4.150  16.982  0.00  0.00    +0.000 NA
ATOM     19  H   UNL     1       8.530   4.728  17.432  0.00  0.00    +0.000 HD
ATOM     20  H   UNL     1       7.979   4.117  15.956  0.00  0.00    +0.000 HD
ENDBRANCH  17  18
ENDBRANCH  16  17
ENDBRANCH  15  16
ENDBRANCH  14  15
ENDBRANCH  13  14
ENDBRANCH  12  13
ENDBRANCH  11  12
ENDBRANCH   8  11
ENDBRANCH   4   7
BRANCH   1  21
ATOM     21  N   UNL     1       0.539  10.714  19.038  0.00  0.00    +0.000 N 
ATOM     22  H   UNL     1       1.150  11.537  19.140  0.00  0.00    +0.000 HD
BRANCH  21  26
ATOM     23  C   UNL     1      -3.374  11.240  17.470  0.00  0.00    +0.000 A 
ATOM     24  C   UNL     1      -2.915  12.084  18.488  0.00  0.00    +0.000 A 
ATOM     25  C   UNL     1      -1.624  11.926  18.999  0.00  0.00    +0.000 A 
ATOM     26  C   UNL     1      -0.777  10.906  18.518  0.00  0.00    +0.000 A 
ATOM     27  C   UNL     1      -1.237  10.068  17.501  0.00  0.00    +0.000 A 
ATOM     28  C   UNL     1      -2.521  10.227  16.988  0.00  0.00    +0.000 A 
BRANCH  23  32
ATOM     29  N   UNL     1      -5.818  11.006  19.005  0.00  0.00    +0.000 NA
ATOM     30  C   UNL     1      -5.848  11.485  17.811  0.00  0.00    +0.000 C 
ATOM     31  N   UNL     1      -7.043  12.061  17.314  0.00  0.00    +0.000 N 
ATOM     32  N   UNL     1      -4.701  11.390  16.968  0.00  0.00    +0.000 N 
ATOM     33  H   UNL     1      -6.637  11.029  19.628  0.00  0.00    +0.000 HD
ATOM     34  H   UNL     1      -7.871  12.145  17.921  0.00  0.00    +0.000 HD
ATOM     35  H   UNL     1      -7.065  12.485  16.376  0.00  0.00    +0.000 HD
ATOM     36  H   UNL     1      -4.843  11.417  15.947  0.00  0.00    +0.000 HD
ENDBRANCH  23  32
ENDBRANCH  21  26
ENDBRANCH   1  21
TORSDOF 12
ENDMDL
MODEL 5
REMARK VINA RESULT:      -7.0      4.410      6.269
REMARK  Name = 
REMARK  12 active torsions:
REMARK  status: ('A' for Active; 'I' for Inactive)
REMARK    1  A    between atoms: N_4  and  C_5
REMARK    2  A    between atoms: C_8  and  N_9
REMARK    3  A    between atoms: N_9  and  C_10
REMARK    4  A    between atoms: C_13  and  N_14
REMARK    5  A    between atoms: C_15  and  C_17
REMARK    6  A    between atoms: C_17  and  C_18
REMARK    7  A    between atoms: C_18  and  C_19
REMARK    8  A    between atoms: C_19  and  C_20
REMARK    9  A    between atoms: C_20  and  C_21
REMARK   10  A    between atoms: C_21  and  C_22
REMARK   11  A    between atoms: C_22  and  C_23
REMARK   12  A    between atoms: C_23  and  N_24
REMARK                            x       y       z     vdW  Elec       q    Type
REMARK                         _______ _______ _______ _____ _____    ______ ____
ROOT
ATOM      1  C   UNL     1       3.540   6.137  18.417  0.00  0.00    +0.000 A 
ATOM      2  C   UNL     1       3.508   4.773  18.092  0.00  0.00    +0.000 A 
ATOM      3  C   UNL     1       4.092   4.302  16.932  0.00  0.00    +0.000 A 
ATOM      4  C   UNL     1       4.735   5.179  16.037  0.00  0.00    +0.000 A 
ATOM      5  C   UNL     1       4.776   6.551  16.366  0.00  0.00    +0.000 A 
ATOM      6  C   UNL     1       4.168   7.027  17.535  0.00  0.00    +0.000 A 
ENDROOT
BRANCH   4   7
ATOM      7  N   UNL     1       5.347   4.739  14.815  0.00  0.00    +0.000 N 
ATOM      8  C   UNL     1       6.693   4.686  14.571  0.00  0.00    +0.000 C 
ATOM      9  O   UNL     1       7.512   5.010  15.412  0.00  0.00    +0.000 OA
ATOM     10  H   UNL     1       4.716   4.384  14.079  0.00  0.00    +0.000 HD
BRANCH   8  11
ATOM     11  C   UNL     1       7.216   4.193  13.253  0.00  0.00    +0.000 C 
BRANCH  11  12
ATOM     12  C   UNL     1       6.054   4.091  12.260  0.00  0.00    +0.000 C 
BRANCH  12  13
ATOM     13  C   UNL     1       5.792   2.642  11.855  0.00  0.00    +0.000 C 
BRANCH  13  14
ATOM     14  C   UNL     1       4.371   2.496  11.302  0.00  0.00    +0.000 C 
BRANCH  14  15
ATOM     15  C   UNL     1       3.817   3.854  10.867  0.00  0.00    +0.000 C 
BRANCH  15  16
ATOM     16  C   UNL     1       2.793   3.689   9.743  0.00  0.00    +0.000 C 
BRANCH  16  17
ATOM     17  C   UNL     1       3.008   4.749   8.660  0.00  0.00    +0.000 C 
BRANCH  17  18
ATOM     18  N   UNL     1       1.785   5.516   8.452  0.00  0.00    +0.000 NA
ATOM     19  H   UNL     1       2.036   6.515   8.265  0.00  0.00    +0.000 HD
ATOM     20  H   UNL     1       1.226   5.488   9.335  0.00  0.00    +0.000 HD
ENDBRANCH  17  18
ENDBRANCH  16  17
ENDBRANCH  15  16
ENDBRANCH  14  15
ENDBRANCH  13  14
ENDBRANCH  12  13
ENDBRANCH  11  12
ENDBRANCH   8  11
ENDBRANCH   4   7
BRANCH   1  21
ATOM     21  N   UNL     1       2.901   6.624  19.593  0.00  0.00    +0.000 N 
ATOM     22  H   UNL     1       3.107   6.153  20.486  0.00  0.00    +0.000 HD
BRANCH  21  26
ATOM     23  C   UNL     1       0.473  10.110  19.612  0.00  0.00    +0.000 A 
ATOM     24  C   UNL     1       0.557   9.317  20.762  0.00  0.00    +0.000 A 
ATOM     25  C   UNL     1       1.365   8.176  20.768  0.00  0.00    +0.000 A 
ATOM     26  C   UNL     1       2.085   7.795  19.616  0.00  0.00    +0.000 A 
ATOM     27  C   UNL     1       2.000   8.590  18.472  0.00  0.00    +0.000 A 
ATOM     28  C   UNL     1       1.199   9.729  18.466  0.00  0.00    +0.000 A 
BRANCH  23  32
ATOM     29  N   UNL     1      -1.415  10.828  17.536  0.00  0.00    +0.000 NA
ATOM     30  C   UNL     1      -1.434  11.441  18.667  0.00  0.00    +0.000 C 
ATOM     31  N   UNL     1      -2.488  12.340  18.963  0.00  0.00    +0.000 N 
ATOM     32  N   UNL     1      -0.372  11.259  19.603  0.00  0.00    +0.000 N 
ATOM     33  H   UNL     1      -2.147  10.960  16.826  0.00  0.00    +0.000 HD
ATOM     34  H   UNL     1      -3.265  12.465  18.298  0.00  0.00    +0.000 HD
ATOM     35  H   UNL     1      -2.535  12.801  19.881  0.00  0.00    +0.000 HD
ATOM     36  H   UNL     1      -0.200  12.004  20.295  0.00  0.00    +0.000 HD
ENDBRANCH  23  32
ENDBRANCH  21  26
ENDBRANCH   1  21
TORSDOF 12
ENDMDL
MODEL 6
REMARK VINA RESULT:      -6.9      1.562      2.961
REMARK  Name = 
REMARK  12 active torsions:
REMARK  status: ('A' for Active; 'I' for Inactive)
REMARK    1  A    between atoms: N_4  and  C_5
REMARK    2  A    between atoms: C_8  and  N_9
REMARK    3  A    between atoms: N_9  and  C_10
REMARK    4  A    between atoms: C_13  and  N_14
REMARK    5  A    between atoms: C_15  and  C_17
REMARK    6  A    between atoms: C_17  and  C_18
REMARK    7  A    between atoms: C_18  and  C_19
REMARK    8  A    between atoms: C_19  and  C_20
REMARK    9  A    between atoms: C_20  and  C_21
REMARK   10  A    between atoms: C_21  and  C_22
REMARK   11  A    between atoms: C_22  and  C_23
REMARK   12  A    between atoms: C_23  and  N_24
REMARK                            x       y       z     vdW  Elec       q    Type
REMARK                         _______ _______ _______ _____ _____    ______ ____
ROOT
ATOM      1  C   UNL     1       0.982   9.528  19.496  0.00  0.00    +0.000 A 
ATOM      2  C   UNL     1       1.292   8.456  20.346  0.00  0.00    +0.000 A 
ATOM      3  C   UNL     1       2.093   7.415  19.918  0.00  0.00    +0.000 A 
ATOM      4  C   UNL     1       2.621   7.396  18.613  0.00  0.00    +0.000 A 
ATOM      5  C   UNL     1       2.316   8.478  17.758  0.00  0.00    +0.000 A 
ATOM      6  C   UNL     1       1.490   9.523  18.190  0.00  0.00    +0.000 A 
ENDROOT
BRANCH   4   7
ATOM      7  N   UNL     1       3.449   6.332  18.119  0.00  0.00    +0.000 N 
ATOM      8  C   UNL     1       3.003   5.124  17.655  0.00  0.00    +0.000 C 
ATOM      9  O   UNL     1       1.817   4.849  17.613  0.00  0.00    +0.000 OA
ATOM     10  H   UNL     1       4.463   6.520  18.061  0.00  0.00    +0.000 HD
BRANCH   8  11
ATOM     11  C   UNL     1       3.968   4.092  17.149  0.00  0.00    +0.000 C 
BRANCH  11  12
ATOM     12  C   UNL     1       3.992   2.908  18.122  0.00  0.00    +0.000 C 
BRANCH  12  13
ATOM     13  C   UNL     1       4.640   3.293  19.451  0.00  0.00    +0.000 C 
BRANCH  13  14
ATOM     14  C   UNL     1       4.259   2.283  20.537  0.00  0.00    +0.000 C 
BRANCH  14  15
ATOM     15  C   UNL     1       2.779   2.414  20.902  0.00  0.00    +0.000 C 
BRANCH  15  16
ATOM     16  C   UNL     1       2.393   3.883  21.092  0.00  0.00    +0.000 C 
BRANCH  16  17
ATOM     17  C   UNL     1       0.940   4.115  20.671  0.00  0.00    +0.000 C 
BRANCH  17  18
ATOM     18  N   UNL     1       0.489   3.042  19.794  0.00  0.00    +0.000 NA
ATOM     19  H   UNL     1       1.281   2.748  19.176  0.00  0.00    +0.000 HD
ATOM     20  H   UNL     1      -0.271   3.416  19.180  0.00  0.00    +0.000 HD
ENDBRANCH  17  18
ENDBRANCH  16  17
ENDBRANCH  15  16
ENDBRANCH  14  15
ENDBRANCH  13  14
ENDBRANCH  12  13
ENDBRANCH  11  12
ENDBRANCH   8  11
ENDBRANCH   4   7
BRANCH   1  21
ATOM     21  N   UNL     1       0.122  10.578  19.928  0.00  0.00    +0.000 N 
ATOM     22  H   UNL     1       0.445  11.184  20.696  0.00  0.00    +0.000 HD
BRANCH  21  26
ATOM     23  C   UNL     1      -3.534  11.592  18.016  0.00  0.00    +0.000 A 
ATOM     24  C   UNL     1      -2.747  10.556  17.501  0.00  0.00    +0.000 A 
ATOM     25  C   UNL     1      -1.549  10.207  18.133  0.00  0.00    +0.000 A 
ATOM     26  C   UNL     1      -1.107  10.905  19.277  0.00  0.00    +0.000 A 
ATOM     27  C   UNL     1      -1.897  11.935  19.789  0.00  0.00    +0.000 A 
ATOM     28  C   UNL     1      -3.091  12.281  19.163  0.00  0.00    +0.000 A 
BRANCH  23  32
ATOM     29  N   UNL     1      -6.180  10.566  18.595  0.00  0.00    +0.000 NA
ATOM     30  C   UNL     1      -6.037  11.591  17.829  0.00  0.00    +0.000 C 
ATOM     31  N   UNL     1      -7.176  12.324  17.414  0.00  0.00    +0.000 N 
ATOM     32  N   UNL     1      -4.743  11.960  17.354  0.00  0.00    +0.000 N 
ATOM     33  H   UNL     1      -7.102  10.255  18.929  0.00  0.00    +0.000 HD
ATOM     34  H   UNL     1      -8.112  12.073  17.765  0.00  0.00    +0.000 HD
ATOM     35  H   UNL     1      -7.068  13.170  16.838  0.00  0.00    +0.000 HD
ATOM     36  H   UNL     1      -4.682  12.507  16.482  0.00  0.00    +0.000 HD
ENDBRANCH  23  32
ENDBRANCH  21  26
ENDBRANCH   1  21
TORSDOF 12
ENDMDL
MODEL 7
REMARK VINA RESULT:      -6.9      1.067      1.435
REMARK  Name = 
REMARK  12 active torsions:
REMARK  status: ('A' for Active; 'I' for Inactive)
REMARK    1  A    between atoms: N_4  and  C_5
REMARK    2  A    between atoms: C_8  and  N_9
REMARK    3  A    between atoms: N_9  and  C_10
REMARK    4  A    between atoms: C_13  and  N_14
REMARK    5  A    between atoms: C_15  and  C_17
REMARK    6  A    between atoms: C_17  and  C_18
REMARK    7  A    between atoms: C_18  and  C_19
REMARK    8  A    between atoms: C_19  and  C_20
REMARK    9  A    between atoms: C_20  and  C_21
REMARK   10  A    between atoms: C_21  and  C_22
REMARK   11  A    between atoms: C_22  and  C_23
REMARK   12  A    between atoms: C_23  and  N_24
REMARK                            x       y       z     vdW  Elec       q    Type
REMARK                         _______ _______ _______ _____ _____    ______ ____
ROOT
ATOM      1  C   UNL     1       1.069   9.452  18.813  0.00  0.00    +0.000 A 
ATOM      2  C   UNL     1       0.970   9.086  20.164  0.00  0.00    +0.000 A 
ATOM      3  C   UNL     1       1.559   7.928  20.635  0.00  0.00    +0.000 A 
ATOM      4  C   UNL     1       2.274   7.077  19.770  0.00  0.00    +0.000 A 
ATOM      5  C   UNL     1       2.382   7.448  18.413  0.00  0.00    +0.000 A 
ATOM      6  C   UNL     1       1.769   8.614  17.936  0.00  0.00    +0.000 A 
ENDROOT
BRANCH   4   7
ATOM      7  N   UNL     1       2.894   5.858  20.209  0.00  0.00    +0.000 N 
ATOM      8  C   UNL     1       2.245   4.681  20.467  0.00  0.00    +0.000 C 
ATOM      9  O   UNL     1       1.041   4.567  20.327  0.00  0.00    +0.000 OA
ATOM     10  H   UNL     1       3.924   5.861  20.284  0.00  0.00    +0.000 HD
BRANCH   8  11
ATOM     11  C   UNL     1       3.007   3.465  20.909  0.00  0.00    +0.000 C 
BRANCH  11  12
ATOM     12  C   UNL     1       3.045   2.453  19.759  0.00  0.00    +0.000 C 
BRANCH  12  13
ATOM     13  C   UNL     1       4.106   2.824  18.725  0.00  0.00    +0.000 C 
BRANCH  13  14
ATOM     14  C   UNL     1       3.438   3.306  17.433  0.00  0.00    +0.000 C 
BRANCH  14  15
ATOM     15  C   UNL     1       4.099   4.591  16.930  0.00  0.00    +0.000 C 
BRANCH  15  16
ATOM     16  C   UNL     1       5.462   4.798  17.593  0.00  0.00    +0.000 C 
BRANCH  16  17
ATOM     17  C   UNL     1       6.319   5.764  16.772  0.00  0.00    +0.000 C 
BRANCH  17  18
ATOM     18  N   UNL     1       5.472   6.610  15.939  0.00  0.00    +0.000 NA
ATOM     19  H   UNL     1       5.966   7.515  15.756  0.00  0.00    +0.000 HD
ATOM     20  H   UNL     1       4.598   6.826  16.473  0.00  0.00    +0.000 HD
ENDBRANCH  17  18
ENDBRANCH  16  17
ENDBRANCH  15  16
ENDBRANCH  14  15
ENDBRANCH  13  14
ENDBRANCH  12  13
ENDBRANCH  11  12
ENDBRANCH   8  11
ENDBRANCH   4   7
BRANCH   1  21
ATOM     21  N   UNL     1       0.426  10.625  18.325  0.00  0.00    +0.000 N 
ATOM     22  H   UNL     1       1.018  11.410  18.015  0.00  0.00    +0.000 HD
BRANCH  21  26
ATOM     23  C   UNL     1      -3.775  10.967  17.789  0.00  0.00    +0.000 A 
ATOM     24  C   UNL     1      -3.045  10.073  16.997  0.00  0.00    +0.000 A 
ATOM     25  C   UNL     1      -1.665   9.945  17.177  0.00  0.00    +0.000 A 
ATOM     26  C   UNL     1      -0.987  10.726  18.137  0.00  0.00    +0.000 A 
ATOM     27  C   UNL     1      -1.719  11.613  18.927  0.00  0.00    +0.000 A 
ATOM     28  C   UNL     1      -3.094  11.739  18.751  0.00  0.00    +0.000 A 
BRANCH  23  32
ATOM     29  N   UNL     1      -5.377  13.272  18.501  0.00  0.00    +0.000 NA
ATOM     30  C   UNL     1      -5.869  12.350  17.750  0.00  0.00    +0.000 C 
ATOM     31  N   UNL     1      -7.127  12.546  17.128  0.00  0.00    +0.000 N 
ATOM     32  N   UNL     1      -5.179  11.112  17.585  0.00  0.00    +0.000 N 
ATOM     33  H   UNL     1      -5.863  14.163  18.667  0.00  0.00    +0.000 HD
ATOM     34  H   UNL     1      -7.623  13.442  17.231  0.00  0.00    +0.000 HD
ATOM     35  H   UNL     1      -7.508  11.833  16.491  0.00  0.00    +0.000 HD
ATOM     36  H   UNL     1      -5.728  10.280  17.318  0.00  0.00    +0.000 HD
ENDBRANCH  23  32
ENDBRANCH  21  26
ENDBRANCH   1  21
TORSDOF 12
ENDMDL
MODEL 8
REMARK VINA RESULT:      -6.9      1.846      2.270
REMARK  Name = 
REMARK  12 active torsions:
REMARK  status: ('A' for Active; 'I' for Inactive)
REMARK    1  A    between atoms: N_4  and  C_5
REMARK    2  A    between atoms: C_8  and  N_9
REMARK    3  A    between atoms: N_9  and  C_10
REMARK    4  A    between atoms: C_13  and  N_14
REMARK    5  A    between atoms: C_15  and  C_17
REMARK    6  A    between atoms: C_17  and  C_18
REMARK    7  A    between atoms: C_18  and  C_19
REMARK    8  A    between atoms: C_19  and  C_20
REMARK    9  A    between atoms: C_20  and  C_21
REMARK   10  A    between atoms: C_21  and  C_22
REMARK   11  A    between atoms: C_22  and  C_23
REMARK   12  A    between atoms: C_23  and  N_24
REMARK                            x       y       z     vdW  Elec       q    Type
REMARK                         _______ _______ _______ _____ _____    ______ ____
ROOT
ATOM      1  C   UNL     1       1.300   9.413  18.768  0.00  0.00    +0.000 A 
ATOM      2  C   UNL     1       1.090   9.119  20.123  0.00  0.00    +0.000 A 
ATOM      3  C   UNL     1       1.541   7.936  20.676  0.00  0.00    +0.000 A 
ATOM      4  C   UNL     1       2.223   6.985  19.893  0.00  0.00    +0.000 A 
ATOM      5  C   UNL     1       2.443   7.282  18.531  0.00  0.00    +0.000 A 
ATOM      6  C   UNL     1       1.970   8.475  17.971  0.00  0.00    +0.000 A 
ENDROOT
BRANCH   4   7
ATOM      7  N   UNL     1       2.701   5.737  20.418  0.00  0.00    +0.000 N 
ATOM      8  C   UNL     1       1.944   4.615  20.624  0.00  0.00    +0.000 C 
ATOM      9  O   UNL     1       0.756   4.584  20.355  0.00  0.00    +0.000 OA
ATOM     10  H   UNL     1       3.714   5.668  20.605  0.00  0.00    +0.000 HD
BRANCH   8  11
ATOM     11  C   UNL     1       2.562   3.360  21.167  0.00  0.00    +0.000 C 
BRANCH  11  12
ATOM     12  C   UNL     1       2.961   2.452  19.999  0.00  0.00    +0.000 C 
BRANCH  12  13
ATOM     13  C   UNL     1       4.319   2.848  19.425  0.00  0.00    +0.000 C 
BRANCH  13  14
ATOM     14  C   UNL     1       4.159   3.342  17.983  0.00  0.00    +0.000 C 
BRANCH  14  15
ATOM     15  C   UNL     1       5.249   4.357  17.634  0.00  0.00    +0.000 C 
BRANCH  15  16
ATOM     16  C   UNL     1       5.097   4.844  16.192  0.00  0.00    +0.000 C 
BRANCH  16  17
ATOM     17  C   UNL     1       6.409   4.668  15.423  0.00  0.00    +0.000 C 
BRANCH  17  18
ATOM     18  N   UNL     1       7.358   5.709  15.797  0.00  0.00    +0.000 NA
ATOM     19  H   UNL     1       6.922   6.327  16.521  0.00  0.00    +0.000 HD
ATOM     20  H   UNL     1       7.552   6.295  14.953  0.00  0.00    +0.000 HD
ENDBRANCH  17  18
ENDBRANCH  16  17
ENDBRANCH  15  16
ENDBRANCH  14  15
ENDBRANCH  13  14
ENDBRANCH  12  13
ENDBRANCH  11  12
ENDBRANCH   8  11
ENDBRANCH   4   7
BRANCH   1  21
ATOM     21  N   UNL     1       0.798  10.615  18.194  0.00  0.00    +0.000 N 
ATOM     22  H   UNL     1       1.242  10.963  17.332  0.00  0.00    +0.000 HD
BRANCH  21  26
ATOM     23  C   UNL     1      -2.608  12.683  19.668  0.00  0.00    +0.000 A 
ATOM     24  C   UNL     1      -2.778  11.565  18.844  0.00  0.00    +0.000 A 
ATOM     25  C   UNL     1      -1.662  10.871  18.366  0.00  0.00    +0.000 A 
ATOM     26  C   UNL     1      -0.356  11.298  18.686  0.00  0.00    +0.000 A 
ATOM     27  C   UNL     1      -0.190  12.411  19.510  0.00  0.00    +0.000 A 
ATOM     28  C   UNL     1      -1.301  13.101  19.990  0.00  0.00    +0.000 A 
BRANCH  23  32
ATOM     29  N   UNL     1      -3.909  12.352  22.234  0.00  0.00    +0.000 NA
ATOM     30  C   UNL     1      -4.205  13.355  21.483  0.00  0.00    +0.000 C 
ATOM     31  N   UNL     1      -5.032  14.390  21.986  0.00  0.00    +0.000 N 
ATOM     32  N   UNL     1      -3.748  13.403  20.132  0.00  0.00    +0.000 N 
ATOM     33  H   UNL     1      -4.247  12.271  23.202  0.00  0.00    +0.000 HD
ATOM     34  H   UNL     1      -5.354  14.369  22.964  0.00  0.00    +0.000 HD
ATOM     35  H   UNL     1      -5.239  15.216  21.408  0.00  0.00    +0.000 HD
ATOM     36  H   UNL     1      -4.280  13.975  19.459  0.00  0.00    +0.000 HD
ENDBRANCH  23  32
ENDBRANCH  21  26
ENDBRANCH   1  21
TORSDOF 12
ENDMDL
MODEL 9
REMARK VINA RESULT:      -6.8      1.445      3.071
REMARK  Name = 
REMARK  12 active torsions:
REMARK  status: ('A' for Active; 'I' for Inactive)
REMARK    1  A    between atoms: N_4  and  C_5
REMARK    2  A    between atoms: C_8  and  N_9
REMARK    3  A    between atoms: N_9  and  C_10
REMARK    4  A    between atoms: C_13  and  N_14
REMARK    5  A    between atoms: C_15  and  C_17
REMARK    6  A    between atoms: C_17  and  C_18
REMARK    7  A    between atoms: C_18  and  C_19
REMARK    8  A    between atoms: C_19  and  C_20
REMARK    9  A    between atoms: C_20  and  C_21
REMARK   10  A    between atoms: C_21  and  C_22
REMARK   11  A    between atoms: C_22  and  C_23
REMARK   12  A    between atoms: C_23  and  N_24
REMARK                            x       y       z     vdW  Elec       q    Type
REMARK                         _______ _______ _______ _____ _____    ______ ____
ROOT
ATOM      1  C   UNL     1       1.014   9.519  19.524  0.00  0.00    +0.000 A 
ATOM      2  C   UNL     1       1.332   8.436  20.357  0.00  0.00    +0.000 A 
ATOM      3  C   UNL     1       2.121   7.395  19.905  0.00  0.00    +0.000 A 
ATOM      4  C   UNL     1       2.627   7.388  18.591  0.00  0.00    +0.000 A 
ATOM      5  C   UNL     1       2.314   8.480  17.754  0.00  0.00    +0.000 A 
ATOM      6  C   UNL     1       1.501   9.525  18.211  0.00  0.00    +0.000 A 
ENDROOT
BRANCH   4   7
ATOM      7  N   UNL     1       3.441   6.325  18.072  0.00  0.00    +0.000 N 
ATOM      8  C   UNL     1       2.987   5.102  17.657  0.00  0.00    +0.000 C 
ATOM      9  O   UNL     1       1.804   4.812  17.686  0.00  0.00    +0.000 OA
ATOM     10  H   UNL     1       4.447   6.524  17.954  0.00  0.00    +0.000 HD
BRANCH   8  11
ATOM     11  C   UNL     1       3.937   4.072  17.117  0.00  0.00    +0.000 C 
BRANCH  11  12
ATOM     12  C   UNL     1       5.178   4.017  18.015  0.00  0.00    +0.000 C 
BRANCH  12  13
ATOM     13  C   UNL     1       4.809   3.661  19.453  0.00  0.00    +0.000 C 
BRANCH  13  14
ATOM     14  C   UNL     1       4.331   2.208  19.532  0.00  0.00    +0.000 C 
BRANCH  14  15
ATOM     15  C   UNL     1       2.838   2.147  19.858  0.00  0.00    +0.000 C 
BRANCH  15  16
ATOM     16  C   UNL     1       2.562   2.707  21.255  0.00  0.00    +0.000 C 
BRANCH  16  17
ATOM     17  C   UNL     1       1.753   4.002  21.166  0.00  0.00    +0.000 C 
BRANCH  17  18
ATOM     18  N   UNL     1       0.581   3.811  20.320  0.00  0.00    +0.000 NA
ATOM     19  H   UNL     1      -0.210   4.385  20.695  0.00  0.00    +0.000 HD
ATOM     20  H   UNL     1       0.299   2.805  20.373  0.00  0.00    +0.000 HD
ENDBRANCH  17  18
ENDBRANCH  16  17
ENDBRANCH  15  16
ENDBRANCH  14  15
ENDBRANCH  13  14
ENDBRANCH  12  13
ENDBRANCH  11  12
ENDBRANCH   8  11
ENDBRANCH   4   7
BRANCH   1  21
ATOM     21  N   UNL     1       0.168  10.568  19.982  0.00  0.00    +0.000 N 
ATOM     22  H   UNL     1       0.493  11.144  20.772  0.00  0.00    +0.000 HD
BRANCH  21  26
ATOM     23  C   UNL     1      -3.451  11.619  18.020  0.00  0.00    +0.000 A 
ATOM     24  C   UNL     1      -3.085  12.278  19.198  0.00  0.00    +0.000 A 
ATOM     25  C   UNL     1      -1.889  11.948  19.842  0.00  0.00    +0.000 A 
ATOM     26  C   UNL     1      -1.050  10.936  19.330  0.00  0.00    +0.000 A 
ATOM     27  C   UNL     1      -1.417  10.283  18.153  0.00  0.00    +0.000 A 
ATOM     28  C   UNL     1      -2.606  10.613  17.509  0.00  0.00    +0.000 A 
BRANCH  23  32
ATOM     29  N   UNL     1      -6.033  10.435  18.586  0.00  0.00    +0.000 NA
ATOM     30  C   UNL     1      -5.952  11.490  17.853  0.00  0.00    +0.000 C 
ATOM     31  N   UNL     1      -7.133  12.174  17.472  0.00  0.00    +0.000 N 
ATOM     32  N   UNL     1      -4.684  11.943  17.380  0.00  0.00    +0.000 N 
ATOM     33  H   UNL     1      -6.933  10.064  18.918  0.00  0.00    +0.000 HD
ATOM     34  H   UNL     1      -8.050  11.862  17.822  0.00  0.00    +0.000 HD
ATOM     35  H   UNL     1      -7.076  13.042  16.922  0.00  0.00    +0.000 HD
ATOM     36  H   UNL     1      -4.661  12.520  16.525  0.00  0.00    +0.000 HD
ENDBRANCH  23  32
ENDBRANCH  21  26
ENDBRANCH   1  21
TORSDOF 12
ENDMDL
