MODEL 1
REMARK VINA RESULT:      -8.6      0.000      0.000
REMARK  Name = 
REMARK  3 active torsions:
REMARK  status: ('A' for Active; 'I' for Inactive)
REMARK    1  A    between atoms: C_1  and  N_2
REMARK    2  A    between atoms: C_5  and  C_6
REMARK    3  A    between atoms: C_19  and  O_20
REMARK                            x       y       z     vdW  Elec       q    Type
REMARK                         _______ _______ _______ _____ _____    ______ ____
ROOT
ATOM      1  C   UNL     1       5.636   3.890  15.949  0.00  0.00    +0.000 C 
ATOM      2  N   UNL     1       4.726   4.875  16.621  0.00  0.00    +0.000 NA
ATOM      3  C   UNL     1       5.616   5.441  17.746  0.00  0.00    +0.000 C 
ATOM      4  C   UNL     1       4.902   6.015  19.012  0.00  0.00    +0.000 C 
ATOM      5  C   UNL     1       3.441   5.519  19.153  0.00  0.00    +0.000 C 
ATOM      6  C   UNL     1       3.872   3.978  18.525  0.00  0.00    +0.000 C 
ATOM      7  C   UNL     1       3.546   4.065  17.096  0.00  0.00    +0.000 C 
ATOM      8  C   UNL     1       1.974   4.356  17.239  0.00  0.00    +0.000 C 
ATOM      9  C   UNL     1       1.498   4.076  18.800  0.00  0.00    +0.000 A 
ATOM     10  C   UNL     1       0.832   2.903  19.165  0.00  0.00    +0.000 A 
ATOM     11  C   UNL     1       1.160   2.297  20.394  0.00  0.00    +0.000 A 
ATOM     12  C   UNL     1       2.027   2.890  21.330  0.00  0.00    +0.000 A 
ATOM     13  C   UNL     1       2.605   4.134  21.101  0.00  0.00    +0.000 A 
ATOM     14  C   UNL     1       2.401   4.667  19.825  0.00  0.00    +0.000 A 
ENDROOT
BRANCH   5  15
ATOM     15  C   UNL     1       2.585   6.888  19.117  0.00  0.00    +0.000 A 
ATOM     16  C   UNL     1       1.899   7.543  20.155  0.00  0.00    +0.000 A 
ATOM     17  C   UNL     1       1.290   8.810  20.019  0.00  0.00    +0.000 A 
ATOM     18  C   UNL     1       1.370   9.500  18.823  0.00  0.00    +0.000 A 
ATOM     19 CL   UNL     1       0.653  11.047  18.659  0.00  0.00    +0.000 Cl
ATOM     20  C   UNL     1       2.089   8.940  17.781  0.00  0.00    +0.000 A 
ATOM     21  C   UNL     1       2.707   7.683  17.937  0.00  0.00    +0.000 A 
ENDBRANCH   5  15
BRANCH  12  22
ATOM     22  O   UNL     1       2.523   2.192  22.395  0.00  0.00    +0.000 OA
ATOM     23  H   UNL     1       3.222   1.589  22.076  0.00  0.00    +0.000 HD
ENDBRANCH  12  22
TORSDOF 2
ENDMDL
MODEL 2
REMARK VINA RESULT:      -8.3      0.276      1.041
REMARK  Name = 
REMARK  3 active torsions:
REMARK  status: ('A' for Active; 'I' for Inactive)
REMARK    1  A    between atoms: C_1  and  N_2
REMARK    2  A    between atoms: C_5  and  C_6
REMARK    3  A    between atoms: C_19  and  O_20
REMARK                            x       y       z     vdW  Elec       q    Type
REMARK                         _______ _______ _______ _____ _____    ______ ____
ROOT
ATOM      1  C   UNL     1       5.806   3.655  15.975  0.00  0.00    +0.000 C 
ATOM      2  N   UNL     1       4.944   4.715  16.593  0.00  0.00    +0.000 NA
ATOM      3  C   UNL     1       5.834   5.248  17.735  0.00  0.00    +0.000 C 
ATOM      4  C   UNL     1       5.122   5.899  18.962  0.00  0.00    +0.000 C 
ATOM      5  C   UNL     1       3.627   5.506  19.066  0.00  0.00    +0.000 C 
ATOM      6  C   UNL     1       3.972   3.925  18.488  0.00  0.00    +0.000 C 
ATOM      7  C   UNL     1       3.698   3.998  17.047  0.00  0.00    +0.000 C 
ATOM      8  C   UNL     1       2.145   4.396  17.131  0.00  0.00    +0.000 C 
ATOM      9  C   UNL     1       1.603   4.188  18.682  0.00  0.00    +0.000 A 
ATOM     10  C   UNL     1       0.848   3.072  19.051  0.00  0.00    +0.000 A 
ATOM     11  C   UNL     1       1.095   2.475  20.304  0.00  0.00    +0.000 A 
ATOM     12  C   UNL     1       1.970   3.033  21.255  0.00  0.00    +0.000 A 
ATOM     13  C   UNL     1       2.638   4.229  21.016  0.00  0.00    +0.000 A 
ATOM     14  C   UNL     1       2.511   4.742  19.723  0.00  0.00    +0.000 A 
ENDROOT
BRANCH   5  15
ATOM     15  C   UNL     1       2.866   6.928  18.971  0.00  0.00    +0.000 A 
ATOM     16  C   UNL     1       2.644   7.752  17.854  0.00  0.00    +0.000 A 
ATOM     17  C   UNL     1       1.849   8.919  17.882  0.00  0.00    +0.000 A 
ATOM     18  C   UNL     1       1.206   9.299  19.047  0.00  0.00    +0.000 A 
ATOM     19 CL   UNL     1       0.221  10.701  19.081  0.00  0.00    +0.000 Cl
ATOM     20  C   UNL     1       1.329   8.494  20.165  0.00  0.00    +0.000 A 
ATOM     21  C   UNL     1       2.111   7.323  20.117  0.00  0.00    +0.000 A 
ENDBRANCH   5  15
BRANCH  12  22
ATOM     22  O   UNL     1       2.384   2.330  22.351  0.00  0.00    +0.000 OA
ATOM     23  H   UNL     1       1.721   2.434  23.060  0.00  0.00    +0.000 HD
ENDBRANCH  12  22
TORSDOF 2
ENDMDL
MODEL 3
REMARK VINA RESULT:      -8.0      2.595      4.674
REMARK  Name = 
REMARK  3 active torsions:
REMARK  status: ('A' for Active; 'I' for Inactive)
REMARK    1  A    between atoms: C_1  and  N_2
REMARK    2  A    between atoms: C_5  and  C_6
REMARK    3  A    between atoms: C_19  and  O_20
REMARK                            x       y       z     vdW  Elec       q    Type
REMARK                         _______ _______ _______ _____ _____    ______ ____
ROOT
ATOM      1  C   UNL     1       4.296   1.857  20.336  0.00  0.00    +0.000 C 
ATOM      2  N   UNL     1       3.908   3.258  19.970  0.00  0.00    +0.000 NA
ATOM      3  C   UNL     1       2.748   3.037  18.977  0.00  0.00    +0.000 C 
ATOM      4  C   UNL     1       2.474   4.160  17.926  0.00  0.00    +0.000 C 
ATOM      5  C   UNL     1       3.682   5.111  17.736  0.00  0.00    +0.000 C 
ATOM      6  C   UNL     1       4.781   3.807  17.946  0.00  0.00    +0.000 C 
ATOM      7  C   UNL     1       5.148   3.868  19.366  0.00  0.00    +0.000 C 
ATOM      8  C   UNL     1       5.789   5.340  19.373  0.00  0.00    +0.000 C 
ATOM      9  C   UNL     1       6.010   5.854  17.815  0.00  0.00    +0.000 A 
ATOM     10  C   UNL     1       7.267   5.825  17.205  0.00  0.00    +0.000 A 
ATOM     11  C   UNL     1       7.350   5.444  15.850  0.00  0.00    +0.000 A 
ATOM     12  C   UNL     1       6.215   5.224  15.049  0.00  0.00    +0.000 A 
ATOM     13  C   UNL     1       4.928   5.387  15.549  0.00  0.00    +0.000 A 
ATOM     14  C   UNL     1       4.841   5.618  16.924  0.00  0.00    +0.000 A 
ENDROOT
BRANCH   5  15
ATOM     15  C   UNL     1       3.080   6.553  18.146  0.00  0.00    +0.000 A 
ATOM     16  C   UNL     1       2.839   7.684  17.347  0.00  0.00    +0.000 A 
ATOM     17  C   UNL     1       2.186   8.849  17.807  0.00  0.00    +0.000 A 
ATOM     18  C   UNL     1       1.711   8.918  19.104  0.00  0.00    +0.000 A 
ATOM     19 CL   UNL     1       0.898  10.320  19.661  0.00  0.00    +0.000 Cl
ATOM     20  C   UNL     1       1.856   7.813  19.924  0.00  0.00    +0.000 A 
ATOM     21  C   UNL     1       2.494   6.651  19.445  0.00  0.00    +0.000 A 
ENDBRANCH   5  15
BRANCH  12  22
ATOM     22  O   UNL     1       6.304   4.626  13.824  0.00  0.00    +0.000 OA
ATOM     23  H   UNL     1       7.014   5.062  13.313  0.00  0.00    +0.000 HD
ENDBRANCH  12  22
TORSDOF 2
ENDMDL
MODEL 4
REMARK VINA RESULT:      -7.8      2.658      4.405
REMARK  Name = 
REMARK  3 active torsions:
REMARK  status: ('A' for Active; 'I' for Inactive)
REMARK    1  A    between atoms: C_1  and  N_2
REMARK    2  A    between atoms: C_5  and  C_6
REMARK    3  A    between atoms: C_19  and  O_20
REMARK                            x       y       z     vdW  Elec       q    Type
REMARK                         _______ _______ _______ _____ _____    ______ ____
ROOT
ATOM      1  C   UNL     1       3.421   1.121  19.211  0.00  0.00    +0.000 C 
ATOM      2  N   UNL     1       3.087   2.582  19.240  0.00  0.00    +0.000 NA
ATOM      3  C   UNL     1       2.173   2.743  18.008  0.00  0.00    +0.000 C 
ATOM      4  C   UNL     1       2.104   4.152  17.339  0.00  0.00    +0.000 C 
ATOM      5  C   UNL     1       3.301   5.058  17.723  0.00  0.00    +0.000 C 
ATOM      6  C   UNL     1       4.360   3.705  17.730  0.00  0.00    +0.000 C 
ATOM      7  C   UNL     1       4.413   3.293  19.139  0.00  0.00    +0.000 C 
ATOM      8  C   UNL     1       5.002   4.656  19.752  0.00  0.00    +0.000 C 
ATOM      9  C   UNL     1       5.540   5.628  18.524  0.00  0.00    +0.000 A 
ATOM     10  C   UNL     1       6.899   5.736  18.216  0.00  0.00    +0.000 A 
ATOM     11  C   UNL     1       7.279   5.801  16.860  0.00  0.00    +0.000 A 
ATOM     12  C   UNL     1       6.348   5.900  15.811  0.00  0.00    +0.000 A 
ATOM     13  C   UNL     1       4.980   5.956  16.054  0.00  0.00    +0.000 A 
ATOM     14  C   UNL     1       4.595   5.742  17.380  0.00  0.00    +0.000 A 
ENDROOT
BRANCH   5  15
ATOM     15  C   UNL     1       2.591   6.321  18.437  0.00  0.00    +0.000 A 
ATOM     16  C   UNL     1       2.223   6.499  19.782  0.00  0.00    +0.000 A 
ATOM     17  C   UNL     1       1.720   7.710  20.307  0.00  0.00    +0.000 A 
ATOM     18  C   UNL     1       1.591   8.823  19.496  0.00  0.00    +0.000 A 
ATOM     19 CL   UNL     1       1.003  10.301  20.132  0.00  0.00    +0.000 Cl
ATOM     20  C   UNL     1       1.998   8.734  18.177  0.00  0.00    +0.000 A 
ATOM     21  C   UNL     1       2.515   7.524  17.671  0.00  0.00    +0.000 A 
ENDBRANCH   5  15
BRANCH  12  22
ATOM     22  O   UNL     1       6.712   5.719  14.507  0.00  0.00    +0.000 OA
ATOM     23  H   UNL     1       5.977   6.010  13.932  0.00  0.00    +0.000 HD
ENDBRANCH  12  22
TORSDOF 2
ENDMDL
MODEL 5
REMARK VINA RESULT:      -7.7      1.762      2.039
REMARK  Name = 
REMARK  3 active torsions:
REMARK  status: ('A' for Active; 'I' for Inactive)
REMARK    1  A    between atoms: C_1  and  N_2
REMARK    2  A    between atoms: C_5  and  C_6
REMARK    3  A    between atoms: C_19  and  O_20
REMARK                            x       y       z     vdW  Elec       q    Type
REMARK                         _______ _______ _______ _____ _____    ______ ____
ROOT
ATOM      1  C   UNL     1       7.012   4.924  14.588  0.00  0.00    +0.000 C 
ATOM      2  N   UNL     1       5.956   5.479  15.496  0.00  0.00    +0.000 NA
ATOM      3  C   UNL     1       6.786   6.084  16.647  0.00  0.00    +0.000 C 
ATOM      4  C   UNL     1       6.099   6.209  18.044  0.00  0.00    +0.000 C 
ATOM      5  C   UNL     1       4.856   5.295  18.186  0.00  0.00    +0.000 C 
ATOM      6  C   UNL     1       5.611   4.071  17.246  0.00  0.00    +0.000 C 
ATOM      7  C   UNL     1       5.106   4.295  15.885  0.00  0.00    +0.000 C 
ATOM      8  C   UNL     1       3.542   4.091  16.187  0.00  0.00    +0.000 C 
ATOM      9  C   UNL     1       3.351   3.432  17.694  0.00  0.00    +0.000 A 
ATOM     10  C   UNL     1       3.077   2.073  17.871  0.00  0.00    +0.000 A 
ATOM     11  C   UNL     1       3.702   1.392  18.935  0.00  0.00    +0.000 A 
ATOM     12  C   UNL     1       4.480   2.048  19.907  0.00  0.00    +0.000 A 
ATOM     13  C   UNL     1       4.667   3.426  19.883  0.00  0.00    +0.000 A 
ATOM     14  C   UNL     1       4.175   4.080  18.750  0.00  0.00    +0.000 A 
ENDROOT
BRANCH   5  15
ATOM     15  C   UNL     1       3.661   6.345  18.472  0.00  0.00    +0.000 A 
ATOM     16  C   UNL     1       2.848   6.487  19.609  0.00  0.00    +0.000 A 
ATOM     17  C   UNL     1       1.916   7.534  19.785  0.00  0.00    +0.000 A 
ATOM     18  C   UNL     1       1.782   8.519  18.823  0.00  0.00    +0.000 A 
ATOM     19 CL   UNL     1       0.671   9.805  19.041  0.00  0.00    +0.000 Cl
ATOM     20  C   UNL     1       2.602   8.475  17.709  0.00  0.00    +0.000 A 
ATOM     21  C   UNL     1       3.539   7.433  17.556  0.00  0.00    +0.000 A 
ENDBRANCH   5  15
BRANCH  12  22
ATOM     22  O   UNL     1       5.271   1.358  20.782  0.00  0.00    +0.000 OA
ATOM     23  H   UNL     1       6.134   1.810  20.849  0.00  0.00    +0.000 HD
ENDBRANCH  12  22
TORSDOF 2
ENDMDL
MODEL 6
REMARK VINA RESULT:      -7.3      1.818      2.409
REMARK  Name = 
REMARK  3 active torsions:
REMARK  status: ('A' for Active; 'I' for Inactive)
REMARK    1  A    between atoms: C_1  and  N_2
REMARK    2  A    between atoms: C_5  and  C_6
REMARK    3  A    between atoms: C_19  and  O_20
REMARK                            x       y       z     vdW  Elec       q    Type
REMARK                         _______ _______ _______ _____ _____    ______ ____
ROOT
ATOM      1  C   UNL     1       7.146   4.806  14.366  0.00  0.00    +0.000 C 
ATOM      2  N   UNL     1       6.162   5.448  15.298  0.00  0.00    +0.000 NA
ATOM      3  C   UNL     1       7.065   5.964  16.437  0.00  0.00    +0.000 C 
ATOM      4  C   UNL     1       6.419   6.140  17.847  0.00  0.00    +0.000 C 
ATOM      5  C   UNL     1       5.099   5.343  18.006  0.00  0.00    +0.000 C 
ATOM      6  C   UNL     1       5.721   4.063  17.044  0.00  0.00    +0.000 C 
ATOM      7  C   UNL     1       5.214   4.344  15.694  0.00  0.00    +0.000 C 
ATOM      8  C   UNL     1       3.644   4.282  16.025  0.00  0.00    +0.000 C 
ATOM      9  C   UNL     1       3.420   3.631  17.530  0.00  0.00    +0.000 A 
ATOM     10  C   UNL     1       3.026   2.301  17.703  0.00  0.00    +0.000 A 
ATOM     11  C   UNL     1       3.604   1.557  18.751  0.00  0.00    +0.000 A 
ATOM     12  C   UNL     1       4.457   2.130  19.712  0.00  0.00    +0.000 A 
ATOM     13  C   UNL     1       4.769   3.485  19.693  0.00  0.00    +0.000 A 
ATOM     14  C   UNL     1       4.319   4.191  18.575  0.00  0.00    +0.000 A 
ENDROOT
BRANCH   5  15
ATOM     15  C   UNL     1       4.012   6.496  18.322  0.00  0.00    +0.000 A 
ATOM     16  C   UNL     1       3.567   7.554  17.511  0.00  0.00    +0.000 A 
ATOM     17  C   UNL     1       2.512   8.424  17.862  0.00  0.00    +0.000 A 
ATOM     18  C   UNL     1       1.825   8.248  19.050  0.00  0.00    +0.000 A 
ATOM     19 CL   UNL     1       0.529   9.287  19.470  0.00  0.00    +0.000 Cl
ATOM     20  C   UNL     1       2.169   7.183  19.863  0.00  0.00    +0.000 A 
ATOM     21  C   UNL     1       3.213   6.312  19.492  0.00  0.00    +0.000 A 
ENDBRANCH   5  15
BRANCH  12  22
ATOM     22  O   UNL     1       5.196   1.362  20.566  0.00  0.00    +0.000 OA
ATOM     23  H   UNL     1       5.329   0.482  20.163  0.00  0.00    +0.000 HD
ENDBRANCH  12  22
TORSDOF 2
ENDMDL
MODEL 7
REMARK VINA RESULT:      -6.2      3.794      6.552
REMARK  Name = 
REMARK  3 active torsions:
REMARK  status: ('A' for Active; 'I' for Inactive)
REMARK    1  A    between atoms: C_1  and  N_2
REMARK    2  A    between atoms: C_5  and  C_6
REMARK    3  A    between atoms: C_19  and  O_20
REMARK                            x       y       z     vdW  Elec       q    Type
REMARK                         _______ _______ _______ _____ _____    ______ ____
ROOT
ATOM      1  C   UNL     1       1.764   5.685  18.512  0.00  0.00    +0.000 C 
ATOM      2  N   UNL     1       2.767   5.329  17.455  0.00  0.00    +0.000 NA
ATOM      3  C   UNL     1       3.077   3.852  17.770  0.00  0.00    +0.000 C 
ATOM      4  C   UNL     1       4.466   3.294  17.322  0.00  0.00    +0.000 C 
ATOM      5  C   UNL     1       5.499   4.414  17.041  0.00  0.00    +0.000 C 
ATOM      6  C   UNL     1       4.865   5.363  18.325  0.00  0.00    +0.000 C 
ATOM      7  C   UNL     1       3.920   6.276  17.668  0.00  0.00    +0.000 C 
ATOM      8  C   UNL     1       4.959   7.013  16.691  0.00  0.00    +0.000 C 
ATOM      9  C   UNL     1       6.507   6.639  17.144  0.00  0.00    +0.000 A 
ATOM     10  C   UNL     1       7.293   7.533  17.877  0.00  0.00    +0.000 A 
ATOM     11  C   UNL     1       8.119   7.023  18.899  0.00  0.00    +0.000 A 
ATOM     12  C   UNL     1       8.291   5.645  19.124  0.00  0.00    +0.000 A 
ATOM     13  C   UNL     1       7.660   4.693  18.330  0.00  0.00    +0.000 A 
ATOM     14  C   UNL     1       6.728   5.192  17.416  0.00  0.00    +0.000 A 
ENDROOT
BRANCH   5  15
ATOM     15  C   UNL     1       5.877   4.181  15.487  0.00  0.00    +0.000 A 
ATOM     16  C   UNL     1       5.094   3.658  14.444  0.00  0.00    +0.000 A 
ATOM     17  C   UNL     1       5.505   3.624  13.093  0.00  0.00    +0.000 A 
ATOM     18  C   UNL     1       6.728   4.151  12.720  0.00  0.00    +0.000 A 
ATOM     19 CL   UNL     1       7.222   4.134  11.079  0.00  0.00    +0.000 Cl
ATOM     20  C   UNL     1       7.519   4.742  13.689  0.00  0.00    +0.000 A 
ATOM     21  C   UNL     1       7.088   4.784  15.031  0.00  0.00    +0.000 A 
ENDBRANCH   5  15
BRANCH  12  22
ATOM     22  O   UNL     1       8.892   5.170  20.255  0.00  0.00    +0.000 OA
ATOM     23  H   UNL     1       8.819   5.845  20.956  0.00  0.00    +0.000 HD
ENDBRANCH  12  22
TORSDOF 2
ENDMDL
MODEL 8
REMARK VINA RESULT:      -6.1      3.647      5.802
REMARK  Name = 
REMARK  3 active torsions:
REMARK  status: ('A' for Active; 'I' for Inactive)
REMARK    1  A    between atoms: C_1  and  N_2
REMARK    2  A    between atoms: C_5  and  C_6
REMARK    3  A    between atoms: C_19  and  O_20
REMARK                            x       y       z     vdW  Elec       q    Type
REMARK                         _______ _______ _______ _____ _____    ______ ____
ROOT
ATOM      1  C   UNL     1       8.211   5.471  20.625  0.00  0.00    +0.000 C 
ATOM      2  N   UNL     1       7.736   5.173  19.234  0.00  0.00    +0.000 NA
ATOM      3  C   UNL     1       8.061   6.479  18.480  0.00  0.00    +0.000 C 
ATOM      4  C   UNL     1       7.208   6.815  17.216  0.00  0.00    +0.000 C 
ATOM      5  C   UNL     1       5.872   6.031  17.168  0.00  0.00    +0.000 C 
ATOM      6  C   UNL     1       5.712   6.141  18.875  0.00  0.00    +0.000 C 
ATOM      7  C   UNL     1       6.264   4.874  19.374  0.00  0.00    +0.000 C 
ATOM      8  C   UNL     1       5.249   3.876  18.631  0.00  0.00    +0.000 C 
ATOM      9  C   UNL     1       3.977   4.738  18.014  0.00  0.00    +0.000 A 
ATOM     10  C   UNL     1       2.734   4.768  18.652  0.00  0.00    +0.000 A 
ATOM     11  C   UNL     1       2.022   5.984  18.685  0.00  0.00    +0.000 A 
ATOM     12  C   UNL     1       2.443   7.133  17.989  0.00  0.00    +0.000 A 
ATOM     13  C   UNL     1       3.592   7.129  17.205  0.00  0.00    +0.000 A 
ATOM     14  C   UNL     1       4.375   5.976  17.290  0.00  0.00    +0.000 A 
ENDROOT
BRANCH   5  15
ATOM     15  C   UNL     1       5.992   5.188  15.795  0.00  0.00    +0.000 A 
ATOM     16  C   UNL     1       4.993   4.523  15.062  0.00  0.00    +0.000 A 
ATOM     17  C   UNL     1       5.209   3.925  13.801  0.00  0.00    +0.000 A 
ATOM     18  C   UNL     1       6.451   3.996  13.196  0.00  0.00    +0.000 A 
ATOM     19 CL   UNL     1       6.712   3.292  11.656  0.00  0.00    +0.000 Cl
ATOM     20  C   UNL     1       7.460   4.694  13.835  0.00  0.00    +0.000 A 
ATOM     21  C   UNL     1       7.226   5.301  15.085  0.00  0.00    +0.000 A 
ENDBRANCH   5  15
BRANCH  12  22
ATOM     22  O   UNL     1       1.886   8.358  18.221  0.00  0.00    +0.000 OA
ATOM     23  H   UNL     1       0.914   8.265  18.229  0.00  0.00    +0.000 HD
ENDBRANCH  12  22
TORSDOF 2
ENDMDL
MODEL 9
REMARK VINA RESULT:      -6.1      5.633      7.805
REMARK  Name = 
REMARK  3 active torsions:
REMARK  status: ('A' for Active; 'I' for Inactive)
REMARK    1  A    between atoms: C_1  and  N_2
REMARK    2  A    between atoms: C_5  and  C_6
REMARK    3  A    between atoms: C_19  and  O_20
REMARK                            x       y       z     vdW  Elec       q    Type
REMARK                         _______ _______ _______ _____ _____    ______ ____
ROOT
ATOM      1  C   UNL     1       2.947  14.073  18.667  0.00  0.00    +0.000 C 
ATOM      2  N   UNL     1       1.530  13.584  18.615  0.00  0.00    +0.000 NA
ATOM      3  C   UNL     1       0.830  14.471  19.665  0.00  0.00    +0.000 C 
ATOM      4  C   UNL     1      -0.457  13.904  20.346  0.00  0.00    +0.000 C 
ATOM      5  C   UNL     1      -0.580  12.366  20.209  0.00  0.00    +0.000 C 
ATOM      6  C   UNL     1       1.122  12.186  20.359  0.00  0.00    +0.000 C 
ATOM      7  C   UNL     1       1.603  12.121  18.973  0.00  0.00    +0.000 C 
ATOM      8  C   UNL     1       0.792  10.814  18.512  0.00  0.00    +0.000 C 
ATOM      9  C   UNL     1       0.152  10.062  19.841  0.00  0.00    +0.000 A 
ATOM     10  C   UNL     1       0.741   8.921  20.393  0.00  0.00    +0.000 A 
ATOM     11  C   UNL     1       0.782   8.796  21.796  0.00  0.00    +0.000 A 
ATOM     12  C   UNL     1       0.139   9.698  22.662  0.00  0.00    +0.000 A 
ATOM     13  C   UNL     1      -0.599  10.773  22.176  0.00  0.00    +0.000 A 
ATOM     14  C   UNL     1      -0.519  10.985  20.797  0.00  0.00    +0.000 A 
ENDROOT
BRANCH   5  15
ATOM     15  C   UNL     1      -1.972  12.181  19.410  0.00  0.00    +0.000 A 
ATOM     16  C   UNL     1      -2.226  11.524  18.193  0.00  0.00    +0.000 A 
ATOM     17  C   UNL     1      -3.519  11.323  17.662  0.00  0.00    +0.000 A 
ATOM     18  C   UNL     1      -4.636  11.754  18.357  0.00  0.00    +0.000 A 
ATOM     19 CL   UNL     1      -6.208  11.492  17.729  0.00  0.00    +0.000 Cl
ATOM     20  C   UNL     1      -4.458  12.348  19.593  0.00  0.00    +0.000 A 
ATOM     21  C   UNL     1      -3.163  12.526  20.119  0.00  0.00    +0.000 A 
ENDBRANCH   5  15
BRANCH  12  22
ATOM     22  O   UNL     1       0.386   9.707  24.005  0.00  0.00    +0.000 OA
ATOM     23  H   UNL     1       1.350   9.639  24.148  0.00  0.00    +0.000 HD
ENDBRANCH  12  22
TORSDOF 2
ENDMDL
