MODEL 1
REMARK VINA RESULT:      -7.6      0.000      0.000
REMARK  Name = 
REMARK  8 active torsions:
REMARK  status: ('A' for Active; 'I' for Inactive)
REMARK    1  A    between atoms: C_1  and  O_2
REMARK    2  A    between atoms: O_2  and  C_3
REMARK    3  A    between atoms: C_6  and  C_7
REMARK    4  A    between atoms: C_7  and  C_9
REMARK    5  A    between atoms: C_10  and  C_11
REMARK    6  A    between atoms: N_12  and  C_13
REMARK    7  A    between atoms: C_13  and  C_14
REMARK    8  A    between atoms: C_14  and  N_15
REMARK                            x       y       z     vdW  Elec       q    Type
REMARK                         _______ _______ _______ _____ _____    ______ ____
ROOT
ATOM      1  C   UNL     1      -0.898  11.212  19.671  0.00  0.00    +0.000 A 
ATOM      2  C   UNL     1      -1.085  12.596  19.465  0.00  0.00    +0.000 A 
ATOM      3  C   UNL     1      -0.335  13.321  18.337  0.00  0.00    +0.000 C 
ATOM      4  N   UNL     1      -2.469  12.674  19.553  0.00  0.00    +0.000 N 
ATOM      5  C   UNL     1      -2.842  11.809  18.541  0.00  0.00    +0.000 A 
ATOM      6  C   UNL     1      -3.933  11.865  17.669  0.00  0.00    +0.000 A 
ATOM      7  C   UNL     1      -4.047  10.834  16.752  0.00  0.00    +0.000 A 
ATOM      8  C   UNL     1      -3.124   9.775  16.768  0.00  0.00    +0.000 A 
ATOM      9  C   UNL     1      -2.058   9.723  17.704  0.00  0.00    +0.000 A 
ATOM     10  C   UNL     1      -1.885  10.771  18.641  0.00  0.00    +0.000 A 
ENDROOT
BRANCH   1  11
ATOM     11  C   UNL     1       0.430  10.732  20.124  0.00  0.00    +0.000 C 
ATOM     12  O   UNL     1       0.954  11.255  21.110  0.00  0.00    +0.000 OA
BRANCH  11  16
ATOM     13  C   UNL     1       2.598   7.089  18.985  0.00  0.00    +0.000 A 
ATOM     14  C   UNL     1       2.028   7.256  20.250  0.00  0.00    +0.000 A 
ATOM     15  C   UNL     1       1.287   8.397  20.554  0.00  0.00    +0.000 A 
ATOM     16  C   UNL     1       1.089   9.450  19.621  0.00  0.00    +0.000 A 
ATOM     17  C   UNL     1       1.610   9.251  18.335  0.00  0.00    +0.000 A 
ATOM     18  C   UNL     1       2.358   8.077  18.021  0.00  0.00    +0.000 A 
BRANCH  13  20
ATOM     19  C   UNL     1       3.662   5.456  17.575  0.00  0.00    +0.000 C 
ATOM     20  O   UNL     1       3.362   5.965  18.871  0.00  0.00    +0.000 OA
ENDBRANCH  13  20
ENDBRANCH  11  16
ENDBRANCH   1  11
BRANCH   4  21
ATOM     21  C   UNL     1      -3.299  12.586  20.754  0.00  0.00    +0.000 C 
BRANCH  21  22
ATOM     22  C   UNL     1      -4.062  13.827  21.158  0.00  0.00    +0.000 C 
BRANCH  22  23
ATOM     23  N   UNL     1      -4.592  13.691  22.585  0.00  0.00    +0.000 N 
ATOM     24  O   UNL     1      -4.626  14.932  23.170  0.00  0.00    +0.000 OA
ATOM     25  C   UNL     1      -5.997  13.118  22.530  0.00  0.00    +0.000 C 
ATOM     26  C   UNL     1      -6.514  12.826  23.936  0.00  0.00    +0.000 C 
ATOM     27  O   UNL     1      -5.656  11.878  24.586  0.00  0.00    +0.000 OA
ATOM     28  C   UNL     1      -4.351  12.447  24.759  0.00  0.00    +0.000 C 
ATOM     29  C   UNL     1      -3.728  12.749  23.402  0.00  0.00    +0.000 C 
ENDBRANCH  22  23
ENDBRANCH  21  22
ENDBRANCH   4  21
TORSDOF 6
ENDMDL
MODEL 2
REMARK VINA RESULT:      -7.6      0.493      1.016
REMARK  Name = 
REMARK  8 active torsions:
REMARK  status: ('A' for Active; 'I' for Inactive)
REMARK    1  A    between atoms: C_1  and  O_2
REMARK    2  A    between atoms: O_2  and  C_3
REMARK    3  A    between atoms: C_6  and  C_7
REMARK    4  A    between atoms: C_7  and  C_9
REMARK    5  A    between atoms: C_10  and  C_11
REMARK    6  A    between atoms: N_12  and  C_13
REMARK    7  A    between atoms: C_13  and  C_14
REMARK    8  A    between atoms: C_14  and  N_15
REMARK                            x       y       z     vdW  Elec       q    Type
REMARK                         _______ _______ _______ _____ _____    ______ ____
ROOT
ATOM      1  C   UNL     1      -0.726  11.236  19.466  0.00  0.00    +0.000 A 
ATOM      2  C   UNL     1      -1.061  12.600  19.323  0.00  0.00    +0.000 A 
ATOM      3  C   UNL     1      -0.360  13.465  18.265  0.00  0.00    +0.000 C 
ATOM      4  N   UNL     1      -2.447  12.519  19.360  0.00  0.00    +0.000 N 
ATOM      5  C   UNL     1      -2.686  11.675  18.290  0.00  0.00    +0.000 A 
ATOM      6  C   UNL     1      -3.745  11.658  17.380  0.00  0.00    +0.000 A 
ATOM      7  C   UNL     1      -3.711  10.672  16.408  0.00  0.00    +0.000 A 
ATOM      8  C   UNL     1      -2.675   9.723  16.407  0.00  0.00    +0.000 A 
ATOM      9  C   UNL     1      -1.643   9.738  17.380  0.00  0.00    +0.000 A 
ATOM     10  C   UNL     1      -1.621  10.746  18.376  0.00  0.00    +0.000 A 
ENDROOT
BRANCH   1  11
ATOM     11  C   UNL     1       0.631  10.882  19.947  0.00  0.00    +0.000 C 
ATOM     12  O   UNL     1       1.134  11.535  20.865  0.00  0.00    +0.000 OA
BRANCH  11  16
ATOM     13  C   UNL     1       2.463   7.147  18.544  0.00  0.00    +0.000 A 
ATOM     14  C   UNL     1       2.388   8.290  17.745  0.00  0.00    +0.000 A 
ATOM     15  C   UNL     1       1.863   9.480  18.246  0.00  0.00    +0.000 A 
ATOM     16  C   UNL     1       1.359   9.594  19.570  0.00  0.00    +0.000 A 
ATOM     17  C   UNL     1       1.491   8.462  20.388  0.00  0.00    +0.000 A 
ATOM     18  C   UNL     1       2.040   7.249  19.876  0.00  0.00    +0.000 A 
BRANCH  13  20
ATOM     19  C   UNL     1       3.419   4.942  18.635  0.00  0.00    +0.000 C 
ATOM     20  O   UNL     1       2.919   6.044  17.885  0.00  0.00    +0.000 OA
ENDBRANCH  13  20
ENDBRANCH  11  16
ENDBRANCH   1  11
BRANCH   4  21
ATOM     21  C   UNL     1      -3.302  12.273  20.521  0.00  0.00    +0.000 C 
BRANCH  21  22
ATOM     22  C   UNL     1      -4.458  13.223  20.739  0.00  0.00    +0.000 C 
BRANCH  22  23
ATOM     23  N   UNL     1      -4.752  13.376  22.231  0.00  0.00    +0.000 N 
ATOM     24  O   UNL     1      -4.688  14.705  22.566  0.00  0.00    +0.000 OA
ATOM     25  C   UNL     1      -6.148  12.849  22.509  0.00  0.00    +0.000 C 
ATOM     26  C   UNL     1      -6.433  12.844  24.008  0.00  0.00    +0.000 C 
ATOM     27  O   UNL     1      -5.484  12.009  24.684  0.00  0.00    +0.000 OA
ATOM     28  C   UNL     1      -4.167  12.557  24.538  0.00  0.00    +0.000 C 
ATOM     29  C   UNL     1      -3.770  12.577  23.068  0.00  0.00    +0.000 C 
ENDBRANCH  22  23
ENDBRANCH  21  22
ENDBRANCH   4  21
TORSDOF 6
ENDMDL
MODEL 3
REMARK VINA RESULT:      -7.5      3.990      6.186
REMARK  Name = 
REMARK  8 active torsions:
REMARK  status: ('A' for Active; 'I' for Inactive)
REMARK    1  A    between atoms: C_1  and  O_2
REMARK    2  A    between atoms: O_2  and  C_3
REMARK    3  A    between atoms: C_6  and  C_7
REMARK    4  A    between atoms: C_7  and  C_9
REMARK    5  A    between atoms: C_10  and  C_11
REMARK    6  A    between atoms: N_12  and  C_13
REMARK    7  A    between atoms: C_13  and  C_14
REMARK    8  A    between atoms: C_14  and  N_15
REMARK                            x       y       z     vdW  Elec       q    Type
REMARK                         _______ _______ _______ _____ _____    ______ ____
ROOT
ATOM      1  C   UNL     1       1.259   9.816  19.325  0.00  0.00    +0.000 A 
ATOM      2  C   UNL     1       0.404  10.834  18.851  0.00  0.00    +0.000 A 
ATOM      3  C   UNL     1      -0.988  10.487  18.303  0.00  0.00    +0.000 C 
ATOM      4  N   UNL     1       0.546  11.769  19.869  0.00  0.00    +0.000 N 
ATOM      5  C   UNL     1       0.132  11.028  20.961  0.00  0.00    +0.000 A 
ATOM      6  C   UNL     1      -0.566  11.427  22.103  0.00  0.00    +0.000 A 
ATOM      7  C   UNL     1      -0.833  10.444  23.041  0.00  0.00    +0.000 A 
ATOM      8  C   UNL     1      -0.361   9.136  22.841  0.00  0.00    +0.000 A 
ATOM      9  C   UNL     1       0.392   8.778  21.693  0.00  0.00    +0.000 A 
ATOM     10  C   UNL     1       0.664   9.744  20.693  0.00  0.00    +0.000 A 
ENDROOT
BRANCH   1  11
ATOM     11  C   UNL     1       1.789   8.824  18.359  0.00  0.00    +0.000 C 
ATOM     12  O   UNL     1       1.862   9.126  17.165  0.00  0.00    +0.000 OA
BRANCH  11  16
ATOM     13  C   UNL     1       3.760   4.982  19.151  0.00  0.00    +0.000 A 
ATOM     14  C   UNL     1       4.146   5.819  18.100  0.00  0.00    +0.000 A 
ATOM     15  C   UNL     1       3.544   7.063  17.920  0.00  0.00    +0.000 A 
ATOM     16  C   UNL     1       2.505   7.538  18.765  0.00  0.00    +0.000 A 
ATOM     17  C   UNL     1       2.163   6.723  19.854  0.00  0.00    +0.000 A 
ATOM     18  C   UNL     1       2.789   5.455  20.043  0.00  0.00    +0.000 A 
BRANCH  13  20
ATOM     19  C   UNL     1       3.601   2.588  19.325  0.00  0.00    +0.000 C 
ATOM     20  O   UNL     1       4.379   3.767  19.141  0.00  0.00    +0.000 OA
ENDBRANCH  13  20
ENDBRANCH  11  16
ENDBRANCH   1  11
BRANCH   4  21
ATOM     21  C   UNL     1       1.690  12.642  20.134  0.00  0.00    +0.000 C 
BRANCH  21  22
ATOM     22  C   UNL     1       1.466  14.131  20.003  0.00  0.00    +0.000 C 
BRANCH  22  23
ATOM     23  N   UNL     1       2.432  14.731  18.982  0.00  0.00    +0.000 N 
ATOM     24  O   UNL     1       2.543  13.876  17.915  0.00  0.00    +0.000 OA
ATOM     25  C   UNL     1       1.877  16.063  18.509  0.00  0.00    +0.000 C 
ATOM     26  C   UNL     1       2.876  16.770  17.599  0.00  0.00    +0.000 C 
ATOM     27  O   UNL     1       4.100  17.008  18.308  0.00  0.00    +0.000 OA
ATOM     28  C   UNL     1       4.707  15.757  18.659  0.00  0.00    +0.000 C 
ATOM     29  C   UNL     1       3.796  14.979  19.599  0.00  0.00    +0.000 C 
ENDBRANCH  22  23
ENDBRANCH  21  22
ENDBRANCH   4  21
TORSDOF 6
ENDMDL
MODEL 4
REMARK VINA RESULT:      -7.4      3.829      6.101
REMARK  Name = 
REMARK  8 active torsions:
REMARK  status: ('A' for Active; 'I' for Inactive)
REMARK    1  A    between atoms: C_1  and  O_2
REMARK    2  A    between atoms: O_2  and  C_3
REMARK    3  A    between atoms: C_6  and  C_7
REMARK    4  A    between atoms: C_7  and  C_9
REMARK    5  A    between atoms: C_10  and  C_11
REMARK    6  A    between atoms: N_12  and  C_13
REMARK    7  A    between atoms: C_13  and  C_14
REMARK    8  A    between atoms: C_14  and  N_15
REMARK                            x       y       z     vdW  Elec       q    Type
REMARK                         _______ _______ _______ _____ _____    ______ ____
ROOT
ATOM      1  C   UNL     1       1.158   9.837  19.324  0.00  0.00    +0.000 A 
ATOM      2  C   UNL     1       0.236  10.799  18.860  0.00  0.00    +0.000 A 
ATOM      3  C   UNL     1      -1.143  10.366  18.339  0.00  0.00    +0.000 C 
ATOM      4  N   UNL     1       0.340  11.748  19.869  0.00  0.00    +0.000 N 
ATOM      5  C   UNL     1      -0.009  10.992  20.973  0.00  0.00    +0.000 A 
ATOM      6  C   UNL     1      -0.709  11.357  22.126  0.00  0.00    +0.000 A 
ATOM      7  C   UNL     1      -0.901  10.366  23.074  0.00  0.00    +0.000 A 
ATOM      8  C   UNL     1      -0.354   9.088  22.874  0.00  0.00    +0.000 A 
ATOM      9  C   UNL     1       0.398   8.767  21.714  0.00  0.00    +0.000 A 
ATOM     10  C   UNL     1       0.593   9.740  20.703  0.00  0.00    +0.000 A 
ENDROOT
BRANCH   1  11
ATOM     11  C   UNL     1       1.729   8.871  18.355  0.00  0.00    +0.000 C 
ATOM     12  O   UNL     1       1.820   9.193  17.168  0.00  0.00    +0.000 OA
BRANCH  11  16
ATOM     13  C   UNL     1       3.762   5.059  19.133  0.00  0.00    +0.000 A 
ATOM     14  C   UNL     1       4.140   5.910  18.092  0.00  0.00    +0.000 A 
ATOM     15  C   UNL     1       3.519   7.145  17.916  0.00  0.00    +0.000 A 
ATOM     16  C   UNL     1       2.465   7.595  18.757  0.00  0.00    +0.000 A 
ATOM     17  C   UNL     1       2.129   6.766  19.837  0.00  0.00    +0.000 A 
ATOM     18  C   UNL     1       2.776   5.507  20.021  0.00  0.00    +0.000 A 
BRANCH  13  20
ATOM     19  C   UNL     1       3.757   2.717  19.681  0.00  0.00    +0.000 C 
ATOM     20  O   UNL     1       4.402   3.855  19.119  0.00  0.00    +0.000 OA
ENDBRANCH  13  20
ENDBRANCH  11  16
ENDBRANCH   1  11
BRANCH   4  21
ATOM     21  C   UNL     1       1.434  12.689  20.108  0.00  0.00    +0.000 C 
BRANCH  21  22
ATOM     22  C   UNL     1       1.100  14.163  20.055  0.00  0.00    +0.000 C 
BRANCH  22  23
ATOM     23  N   UNL     1       2.269  14.958  19.474  0.00  0.00    +0.000 N 
ATOM     24  O   UNL     1       2.995  15.501  20.504  0.00  0.00    +0.000 OA
ATOM     25  C   UNL     1       3.150  14.015  18.674  0.00  0.00    +0.000 C 
ATOM     26  C   UNL     1       4.250  14.788  17.953  0.00  0.00    +0.000 C 
ATOM     27  O   UNL     1       3.669  15.745  17.058  0.00  0.00    +0.000 OA
ATOM     28  C   UNL     1       2.931  16.720  17.805  0.00  0.00    +0.000 C 
ATOM     29  C   UNL     1       1.780  16.051  18.543  0.00  0.00    +0.000 C 
ENDBRANCH  22  23
ENDBRANCH  21  22
ENDBRANCH   4  21
TORSDOF 6
ENDMDL
MODEL 5
REMARK VINA RESULT:      -7.4      4.912     11.497
REMARK  Name = 
REMARK  8 active torsions:
REMARK  status: ('A' for Active; 'I' for Inactive)
REMARK    1  A    between atoms: C_1  and  O_2
REMARK    2  A    between atoms: O_2  and  C_3
REMARK    3  A    between atoms: C_6  and  C_7
REMARK    4  A    between atoms: C_7  and  C_9
REMARK    5  A    between atoms: C_10  and  C_11
REMARK    6  A    between atoms: N_12  and  C_13
REMARK    7  A    between atoms: C_13  and  C_14
REMARK    8  A    between atoms: C_14  and  N_15
REMARK                            x       y       z     vdW  Elec       q    Type
REMARK                         _______ _______ _______ _____ _____    ______ ____
ROOT
ATOM      1  C   UNL     1       3.632   5.590  17.702  0.00  0.00    +0.000 A 
ATOM      2  C   UNL     1       4.774   5.053  18.333  0.00  0.00    +0.000 A 
ATOM      3  C   UNL     1       4.950   5.175  19.854  0.00  0.00    +0.000 C 
ATOM      4  N   UNL     1       4.838   3.811  17.715  0.00  0.00    +0.000 N 
ATOM      5  C   UNL     1       3.602   3.290  18.053  0.00  0.00    +0.000 A 
ATOM      6  C   UNL     1       3.231   1.973  18.337  0.00  0.00    +0.000 A 
ATOM      7  C   UNL     1       1.897   1.757  18.641  0.00  0.00    +0.000 A 
ATOM      8  C   UNL     1       0.986   2.825  18.598  0.00  0.00    +0.000 A 
ATOM      9  C   UNL     1       1.388   4.142  18.254  0.00  0.00    +0.000 A 
ATOM     10  C   UNL     1       2.748   4.415  17.965  0.00  0.00    +0.000 A 
ENDROOT
BRANCH   1  11
ATOM     11  C   UNL     1       3.445   7.061  17.695  0.00  0.00    +0.000 C 
ATOM     12  O   UNL     1       4.001   7.734  16.824  0.00  0.00    +0.000 OA
BRANCH  11  16
ATOM     13  C   UNL     1       0.636   9.507  20.019  0.00  0.00    +0.000 A 
ATOM     14  C   UNL     1       0.877   9.730  18.660  0.00  0.00    +0.000 A 
ATOM     15  C   UNL     1       1.722   8.891  17.937  0.00  0.00    +0.000 A 
ATOM     16  C   UNL     1       2.397   7.790  18.532  0.00  0.00    +0.000 A 
ATOM     17  C   UNL     1       2.106   7.533  19.880  0.00  0.00    +0.000 A 
ATOM     18  C   UNL     1       1.230   8.387  20.615  0.00  0.00    +0.000 A 
BRANCH  13  20
ATOM     19  C   UNL     1      -0.965  11.287  19.782  0.00  0.00    +0.000 C 
ATOM     20  O   UNL     1      -0.143  10.463  20.602  0.00  0.00    +0.000 OA
ENDBRANCH  13  20
ENDBRANCH  11  16
ENDBRANCH   1  11
BRANCH   4  21
ATOM     21  C   UNL     1       5.262   3.508  16.348  0.00  0.00    +0.000 C 
BRANCH  21  22
ATOM     22  C   UNL     1       6.559   4.126  15.876  0.00  0.00    +0.000 C 
BRANCH  22  23
ATOM     23  N   UNL     1       6.433   4.596  14.427  0.00  0.00    +0.000 N 
ATOM     24  O   UNL     1       5.569   5.661  14.376  0.00  0.00    +0.000 OA
ATOM     25  C   UNL     1       7.802   5.030  13.935  0.00  0.00    +0.000 C 
ATOM     26  C   UNL     1       7.757   5.369  12.448  0.00  0.00    +0.000 C 
ATOM     27  O   UNL     1       7.340   4.221  11.697  0.00  0.00    +0.000 OA
ATOM     28  C   UNL     1       5.999   3.867  12.058  0.00  0.00    +0.000 C 
ATOM     29  C   UNL     1       5.940   3.477  13.529  0.00  0.00    +0.000 C 
ENDBRANCH  22  23
ENDBRANCH  21  22
ENDBRANCH   4  21
TORSDOF 6
ENDMDL
MODEL 6
REMARK VINA RESULT:      -7.2      7.777     10.484
REMARK  Name = 
REMARK  8 active torsions:
REMARK  status: ('A' for Active; 'I' for Inactive)
REMARK    1  A    between atoms: C_1  and  O_2
REMARK    2  A    between atoms: O_2  and  C_3
REMARK    3  A    between atoms: C_6  and  C_7
REMARK    4  A    between atoms: C_7  and  C_9
REMARK    5  A    between atoms: C_10  and  C_11
REMARK    6  A    between atoms: N_12  and  C_13
REMARK    7  A    between atoms: C_13  and  C_14
REMARK    8  A    between atoms: C_14  and  N_15
REMARK                            x       y       z     vdW  Elec       q    Type
REMARK                         _______ _______ _______ _____ _____    ______ ____
ROOT
ATOM      1  C   UNL     1       5.920   5.441  16.887  0.00  0.00    +0.000 A 
ATOM      2  C   UNL     1       6.569   5.283  18.130  0.00  0.00    +0.000 A 
ATOM      3  C   UNL     1       7.407   6.428  18.720  0.00  0.00    +0.000 C 
ATOM      4  N   UNL     1       5.548   4.704  18.871  0.00  0.00    +0.000 N 
ATOM      5  C   UNL     1       4.570   5.677  18.767  0.00  0.00    +0.000 A 
ATOM      6  C   UNL     1       3.607   6.084  19.694  0.00  0.00    +0.000 A 
ATOM      7  C   UNL     1       2.748   7.093  19.292  0.00  0.00    +0.000 A 
ATOM      8  C   UNL     1       2.838   7.615  17.991  0.00  0.00    +0.000 A 
ATOM      9  C   UNL     1       3.795   7.141  17.057  0.00  0.00    +0.000 A 
ATOM     10  C   UNL     1       4.713   6.130  17.434  0.00  0.00    +0.000 A 
ENDROOT
BRANCH   1  11
ATOM     11  C   UNL     1       6.746   5.587  15.664  0.00  0.00    +0.000 C 
ATOM     12  O   UNL     1       7.837   6.158  15.739  0.00  0.00    +0.000 OA
BRANCH  11  16
ATOM     13  C   UNL     1       5.874   3.123  12.137  0.00  0.00    +0.000 A 
ATOM     14  C   UNL     1       4.939   3.331  13.154  0.00  0.00    +0.000 A 
ATOM     15  C   UNL     1       5.225   4.176  14.225  0.00  0.00    +0.000 A 
ATOM     16  C   UNL     1       6.471   4.846  14.358  0.00  0.00    +0.000 A 
ATOM     17  C   UNL     1       7.383   4.683  13.305  0.00  0.00    +0.000 A 
ATOM     18  C   UNL     1       7.083   3.827  12.203  0.00  0.00    +0.000 A 
BRANCH  13  20
ATOM     19  C   UNL     1       6.275   1.043  10.997  0.00  0.00    +0.000 C 
ATOM     20  O   UNL     1       5.480   2.206  11.208  0.00  0.00    +0.000 OA
ENDBRANCH  13  20
ENDBRANCH  11  16
ENDBRANCH   1  11
BRANCH   4  21
ATOM     21  C   UNL     1       5.042   3.334  18.788  0.00  0.00    +0.000 C 
BRANCH  21  22
ATOM     22  C   UNL     1       3.733   3.126  18.061  0.00  0.00    +0.000 C 
BRANCH  22  23
ATOM     23  N   UNL     1       2.648   2.659  19.032  0.00  0.00    +0.000 N 
ATOM     24  O   UNL     1       2.268   1.383  18.697  0.00  0.00    +0.000 OA
ATOM     25  C   UNL     1       3.218   2.666  20.439  0.00  0.00    +0.000 C 
ATOM     26  C   UNL     1       2.130   2.348  21.461  0.00  0.00    +0.000 C 
ATOM     27  O   UNL     1       1.085   3.326  21.383  0.00  0.00    +0.000 OA
ATOM     28  C   UNL     1       0.449   3.254  20.100  0.00  0.00    +0.000 C 
ATOM     29  C   UNL     1       1.449   3.588  19.001  0.00  0.00    +0.000 C 
ENDBRANCH  22  23
ENDBRANCH  21  22
ENDBRANCH   4  21
TORSDOF 6
ENDMDL
MODEL 7
REMARK VINA RESULT:      -7.2      3.628      5.556
REMARK  Name = 
REMARK  8 active torsions:
REMARK  status: ('A' for Active; 'I' for Inactive)
REMARK    1  A    between atoms: C_1  and  O_2
REMARK    2  A    between atoms: O_2  and  C_3
REMARK    3  A    between atoms: C_6  and  C_7
REMARK    4  A    between atoms: C_7  and  C_9
REMARK    5  A    between atoms: C_10  and  C_11
REMARK    6  A    between atoms: N_12  and  C_13
REMARK    7  A    between atoms: C_13  and  C_14
REMARK    8  A    between atoms: C_14  and  N_15
REMARK                            x       y       z     vdW  Elec       q    Type
REMARK                         _______ _______ _______ _____ _____    ______ ____
ROOT
ATOM      1  C   UNL     1       1.265   9.816  19.287  0.00  0.00    +0.000 A 
ATOM      2  C   UNL     1       0.377  10.790  18.783  0.00  0.00    +0.000 A 
ATOM      3  C   UNL     1      -1.014  10.384  18.274  0.00  0.00    +0.000 C 
ATOM      4  N   UNL     1       0.510  11.773  19.755  0.00  0.00    +0.000 N 
ATOM      5  C   UNL     1       0.133  11.071  20.886  0.00  0.00    +0.000 A 
ATOM      6  C   UNL     1      -0.557  11.503  22.021  0.00  0.00    +0.000 A 
ATOM      7  C   UNL     1      -0.785  10.556  23.006  0.00  0.00    +0.000 A 
ATOM      8  C   UNL     1      -0.281   9.253  22.856  0.00  0.00    +0.000 A 
ATOM      9  C   UNL     1       0.463   8.863  21.712  0.00  0.00    +0.000 A 
ATOM     10  C   UNL     1       0.694   9.791  20.667  0.00  0.00    +0.000 A 
ENDROOT
BRANCH   1  11
ATOM     11  C   UNL     1       1.806   8.796  18.357  0.00  0.00    +0.000 C 
ATOM     12  O   UNL     1       1.956   9.085  17.168  0.00  0.00    +0.000 OA
BRANCH  11  16
ATOM     13  C   UNL     1       3.537   4.871  19.292  0.00  0.00    +0.000 A 
ATOM     14  C   UNL     1       3.949   5.628  18.191  0.00  0.00    +0.000 A 
ATOM     15  C   UNL     1       3.427   6.900  17.964  0.00  0.00    +0.000 A 
ATOM     16  C   UNL     1       2.446   7.485  18.810  0.00  0.00    +0.000 A 
ATOM     17  C   UNL     1       2.081   6.748  19.945  0.00  0.00    +0.000 A 
ATOM     18  C   UNL     1       2.625   5.451  20.182  0.00  0.00    +0.000 A 
BRANCH  13  20
ATOM     19  C   UNL     1       3.647   2.652  18.371  0.00  0.00    +0.000 C 
ATOM     20  O   UNL     1       4.073   3.617  19.327  0.00  0.00    +0.000 OA
ENDBRANCH  13  20
ENDBRANCH  11  16
ENDBRANCH   1  11
BRANCH   4  21
ATOM     21  C   UNL     1       1.635  12.685  19.963  0.00  0.00    +0.000 C 
BRANCH  21  22
ATOM     22  C   UNL     1       1.951  13.656  18.848  0.00  0.00    +0.000 C 
BRANCH  22  23
ATOM     23  N   UNL     1       1.387  15.040  19.166  0.00  0.00    +0.000 N 
ATOM     24  O   UNL     1       1.461  15.253  20.519  0.00  0.00    +0.000 OA
ATOM     25  C   UNL     1       2.219  16.083  18.442  0.00  0.00    +0.000 C 
ATOM     26  C   UNL     1       1.608  17.471  18.609  0.00  0.00    +0.000 C 
ATOM     27  O   UNL     1       0.279  17.488  18.071  0.00  0.00    +0.000 OA
ATOM     28  C   UNL     1      -0.558  16.598  18.820  0.00  0.00    +0.000 C 
ATOM     29  C   UNL     1      -0.049  15.169  18.693  0.00  0.00    +0.000 C 
ENDBRANCH  22  23
ENDBRANCH  21  22
ENDBRANCH   4  21
TORSDOF 6
ENDMDL
MODEL 8
REMARK VINA RESULT:      -7.2      1.099      1.503
REMARK  Name = 
REMARK  8 active torsions:
REMARK  status: ('A' for Active; 'I' for Inactive)
REMARK    1  A    between atoms: C_1  and  O_2
REMARK    2  A    between atoms: O_2  and  C_3
REMARK    3  A    between atoms: C_6  and  C_7
REMARK    4  A    between atoms: C_7  and  C_9
REMARK    5  A    between atoms: C_10  and  C_11
REMARK    6  A    between atoms: N_12  and  C_13
REMARK    7  A    between atoms: C_13  and  C_14
REMARK    8  A    between atoms: C_14  and  N_15
REMARK                            x       y       z     vdW  Elec       q    Type
REMARK                         _______ _______ _______ _____ _____    ______ ____
ROOT
ATOM      1  C   UNL     1      -0.843  11.302  19.676  0.00  0.00    +0.000 A 
ATOM      2  C   UNL     1      -1.122  12.682  19.586  0.00  0.00    +0.000 A 
ATOM      3  C   UNL     1      -0.502  13.528  18.463  0.00  0.00    +0.000 C 
ATOM      4  N   UNL     1      -2.497  12.671  19.780  0.00  0.00    +0.000 N 
ATOM      5  C   UNL     1      -2.899  11.856  18.737  0.00  0.00    +0.000 A 
ATOM      6  C   UNL     1      -4.054  11.906  17.953  0.00  0.00    +0.000 A 
ATOM      7  C   UNL     1      -4.181  10.935  16.974  0.00  0.00    +0.000 A 
ATOM      8  C   UNL     1      -3.203   9.935  16.846  0.00  0.00    +0.000 A 
ATOM      9  C   UNL     1      -2.067   9.884  17.695  0.00  0.00    +0.000 A 
ATOM     10  C   UNL     1      -1.881  10.874  18.691  0.00  0.00    +0.000 A 
ENDROOT
BRANCH   1  11
ATOM     11  C   UNL     1       0.540  10.873  19.995  0.00  0.00    +0.000 C 
ATOM     12  O   UNL     1       1.146  11.430  20.914  0.00  0.00    +0.000 OA
BRANCH  11  16
ATOM     13  C   UNL     1       2.672   7.253  18.721  0.00  0.00    +0.000 A 
ATOM     14  C   UNL     1       2.105   7.380  19.992  0.00  0.00    +0.000 A 
ATOM     15  C   UNL     1       1.375   8.515  20.339  0.00  0.00    +0.000 A 
ATOM     16  C   UNL     1       1.186   9.604  19.445  0.00  0.00    +0.000 A 
ATOM     17  C   UNL     1       1.705   9.447  18.152  0.00  0.00    +0.000 A 
ATOM     18  C   UNL     1       2.441   8.279  17.795  0.00  0.00    +0.000 A 
BRANCH  13  20
ATOM     19  C   UNL     1       4.152   5.938  17.355  0.00  0.00    +0.000 C 
ATOM     20  O   UNL     1       3.426   6.127  18.566  0.00  0.00    +0.000 OA
ENDBRANCH  13  20
ENDBRANCH  11  16
ENDBRANCH   1  11
BRANCH   4  21
ATOM     21  C   UNL     1      -3.226  12.450  21.028  0.00  0.00    +0.000 C 
BRANCH  21  22
ATOM     22  C   UNL     1      -4.028  13.610  21.573  0.00  0.00    +0.000 C 
BRANCH  22  23
ATOM     23  N   UNL     1      -5.459  13.173  21.886  0.00  0.00    +0.000 N 
ATOM     24  O   UNL     1      -5.687  11.946  21.316  0.00  0.00    +0.000 OA
ATOM     25  C   UNL     1      -5.618  13.070  23.393  0.00  0.00    +0.000 C 
ATOM     26  C   UNL     1      -7.069  12.780  23.762  0.00  0.00    +0.000 C 
ATOM     27  O   UNL     1      -7.916  13.832  23.282  0.00  0.00    +0.000 OA
ATOM     28  C   UNL     1      -7.877  13.868  21.849  0.00  0.00    +0.000 C 
ATOM     29  C   UNL     1      -6.466  14.185  21.373  0.00  0.00    +0.000 C 
ENDBRANCH  22  23
ENDBRANCH  21  22
ENDBRANCH   4  21
TORSDOF 6
ENDMDL
MODEL 9
REMARK VINA RESULT:      -7.2      3.957      7.711
REMARK  Name = 
REMARK  8 active torsions:
REMARK  status: ('A' for Active; 'I' for Inactive)
REMARK    1  A    between atoms: C_1  and  O_2
REMARK    2  A    between atoms: O_2  and  C_3
REMARK    3  A    between atoms: C_6  and  C_7
REMARK    4  A    between atoms: C_7  and  C_9
REMARK    5  A    between atoms: C_10  and  C_11
REMARK    6  A    between atoms: N_12  and  C_13
REMARK    7  A    between atoms: C_13  and  C_14
REMARK    8  A    between atoms: C_14  and  N_15
REMARK                            x       y       z     vdW  Elec       q    Type
REMARK                         _______ _______ _______ _____ _____    ______ ____
ROOT
ATOM      1  C   UNL     1       3.896   5.384  19.243  0.00  0.00    +0.000 A 
ATOM      2  C   UNL     1       2.642   5.707  18.682  0.00  0.00    +0.000 A 
ATOM      3  C   UNL     1       2.110   4.927  17.470  0.00  0.00    +0.000 C 
ATOM      4  N   UNL     1       1.877   5.822  19.835  0.00  0.00    +0.000 N 
ATOM      5  C   UNL     1       2.040   4.562  20.381  0.00  0.00    +0.000 A 
ATOM      6  C   UNL     1       1.143   3.777  21.109  0.00  0.00    +0.000 A 
ATOM      7  C   UNL     1       1.604   2.543  21.536  0.00  0.00    +0.000 A 
ATOM      8  C   UNL     1       2.931   2.161  21.277  0.00  0.00    +0.000 A 
ATOM      9  C   UNL     1       3.832   3.007  20.579  0.00  0.00    +0.000 A 
ATOM     10  C   UNL     1       3.395   4.266  20.098  0.00  0.00    +0.000 A 
ENDROOT
BRANCH   1  11
ATOM     11  C   UNL     1       5.120   5.622  18.441  0.00  0.00    +0.000 C 
ATOM     12  O   UNL     1       6.153   5.979  19.011  0.00  0.00    +0.000 OA
BRANCH  11  16
ATOM     13  C   UNL     1       5.930   4.242  14.352  0.00  0.00    +0.000 A 
ATOM     14  C   UNL     1       5.858   3.365  15.438  0.00  0.00    +0.000 A 
ATOM     15  C   UNL     1       5.530   3.829  16.711  0.00  0.00    +0.000 A 
ATOM     16  C   UNL     1       5.276   5.201  16.981  0.00  0.00    +0.000 A 
ATOM     17  C   UNL     1       5.289   6.068  15.879  0.00  0.00    +0.000 A 
ATOM     18  C   UNL     1       5.614   5.588  14.575  0.00  0.00    +0.000 A 
BRANCH  13  20
ATOM     19  C   UNL     1       5.392   3.370  12.176  0.00  0.00    +0.000 C 
ATOM     20  O   UNL     1       6.346   3.651  13.196  0.00  0.00    +0.000 OA
ENDBRANCH  13  20
ENDBRANCH  11  16
ENDBRANCH   1  11
BRANCH   4  21
ATOM     21  C   UNL     1       1.888   6.907  20.816  0.00  0.00    +0.000 C 
BRANCH  21  22
ATOM     22  C   UNL     1       1.568   8.296  20.312  0.00  0.00    +0.000 C 
BRANCH  22  23
ATOM     23  N   UNL     1       0.457   8.928  21.150  0.00  0.00    +0.000 N 
ATOM     24  O   UNL     1      -0.647   8.113  21.117  0.00  0.00    +0.000 OA
ATOM     25  C   UNL     1       0.944   9.065  22.581  0.00  0.00    +0.000 C 
ATOM     26  C   UNL     1      -0.074   9.825  23.426  0.00  0.00    +0.000 C 
ATOM     27  O   UNL     1      -0.279  11.136  22.883  0.00  0.00    +0.000 OA
ATOM     28  C   UNL     1      -0.855  11.033  21.574  0.00  0.00    +0.000 C 
ATOM     29  C   UNL     1       0.103  10.311  20.636  0.00  0.00    +0.000 C 
ENDBRANCH  22  23
ENDBRANCH  21  22
ENDBRANCH   4  21
TORSDOF 6
ENDMDL
