MODEL 1
REMARK VINA RESULT:      -7.6      0.000      0.000
REMARK  Name = 
REMARK  8 active torsions:
REMARK  status: ('A' for Active; 'I' for Inactive)
REMARK    1  A    between atoms: C_1  and  O_2
REMARK    2  A    between atoms: O_2  and  C_3
REMARK    3  A    between atoms: C_7  and  C_8
REMARK    4  A    between atoms: C_8  and  O_10
REMARK    5  A    between atoms: O_10  and  N_11
REMARK    6  A    between atoms: C_12  and  C_14
REMARK    7  A    between atoms: C_20  and  O_21
REMARK    8  A    between atoms: O_21  and  C_22
REMARK                            x       y       z     vdW  Elec       q    Type
REMARK                         _______ _______ _______ _____ _____    ______ ____
ROOT
ATOM      1  C   UNL     1       5.337   5.072  19.000  0.00  0.00    +0.000 C 
ATOM      2  O   UNL     1       6.265   4.419  19.457  0.00  0.00    +0.000 OA
ENDROOT
BRANCH   1   7
ATOM      3  C   UNL     1       1.986   3.574  20.020  0.00  0.00    +0.000 A 
ATOM      4  C   UNL     1       1.351   4.753  20.450  0.00  0.00    +0.000 A 
ATOM      5  C   UNL     1       1.955   5.993  20.282  0.00  0.00    +0.000 A 
ATOM      6  C   UNL     1       3.244   6.058  19.767  0.00  0.00    +0.000 A 
ATOM      7  C   UNL     1       3.929   4.882  19.409  0.00  0.00    +0.000 A 
ATOM      8  C   UNL     1       3.300   3.623  19.512  0.00  0.00    +0.000 A 
BRANCH   3  10
ATOM      9  C   UNL     1       0.507   2.079  18.954  0.00  0.00    +0.000 C 
ATOM     10  O   UNL     1       1.327   2.372  20.084  0.00  0.00    +0.000 OA
ENDBRANCH   3  10
BRANCH   8  11
ATOM     11  O   UNL     1       4.001   2.576  18.974  0.00  0.00    +0.000 OA
ATOM     12  C   UNL     1       3.731   2.174  17.639  0.00  0.00    +0.000 C 
ENDBRANCH   8  11
ENDBRANCH   1   7
BRANCH   1  13
ATOM     13  O   UNL     1       5.387   5.922  17.926  0.00  0.00    +0.000 OA
BRANCH  13  14
ATOM     14  N   UNL     1       5.477   5.170  16.742  0.00  0.00    +0.000 NA
ATOM     15  C   UNL     1       6.488   5.565  16.025  0.00  0.00    +0.000 C 
ATOM     16  N   UNL     1       7.427   6.478  16.460  0.00  0.00    +0.000 N 
ATOM     17  H   UNL     1       7.511   6.513  17.469  0.00  0.00    +0.000 HD
ATOM     18  H   UNL     1       8.314   6.401  15.966  0.00  0.00    +0.000 HD
BRANCH  15  19
ATOM     19  C   UNL     1       6.657   4.989  14.645  0.00  0.00    +0.000 A 
ATOM     20  C   UNL     1       5.782   4.021  14.168  0.00  0.00    +0.000 A 
ATOM     21  C   UNL     1       5.971   3.544  12.876  0.00  0.00    +0.000 A 
ATOM     22  C   UNL     1       7.014   4.053  12.109  0.00  0.00    +0.000 A 
ATOM     23  C   UNL     1       7.836   5.021  12.668  0.00  0.00    +0.000 A 
ATOM     24  N   UNL     1       7.693   5.501  13.923  0.00  0.00    +0.000 NA
ENDBRANCH  15  19
ENDBRANCH  13  14
ENDBRANCH   1  13
TORSDOF 6
ENDMDL
MODEL 2
REMARK VINA RESULT:      -7.3      1.031      2.130
REMARK  Name = 
REMARK  8 active torsions:
REMARK  status: ('A' for Active; 'I' for Inactive)
REMARK    1  A    between atoms: C_1  and  O_2
REMARK    2  A    between atoms: O_2  and  C_3
REMARK    3  A    between atoms: C_7  and  C_8
REMARK    4  A    between atoms: C_8  and  O_10
REMARK    5  A    between atoms: O_10  and  N_11
REMARK    6  A    between atoms: C_12  and  C_14
REMARK    7  A    between atoms: C_20  and  O_21
REMARK    8  A    between atoms: O_21  and  C_22
REMARK                            x       y       z     vdW  Elec       q    Type
REMARK                         _______ _______ _______ _____ _____    ______ ____
ROOT
ATOM      1  C   UNL     1       5.377   4.951  18.654  0.00  0.00    +0.000 C 
ATOM      2  O   UNL     1       6.447   4.903  19.244  0.00  0.00    +0.000 OA
ENDROOT
BRANCH   1   7
ATOM      3  C   UNL     1       2.153   3.128  19.546  0.00  0.00    +0.000 A 
ATOM      4  C   UNL     1       2.335   1.980  18.755  0.00  0.00    +0.000 A 
ATOM      5  C   UNL     1       3.524   1.763  18.070  0.00  0.00    +0.000 A 
ATOM      6  C   UNL     1       4.511   2.741  18.094  0.00  0.00    +0.000 A 
ATOM      7  C   UNL     1       4.314   3.936  18.813  0.00  0.00    +0.000 A 
ATOM      8  C   UNL     1       3.138   4.136  19.566  0.00  0.00    +0.000 A 
BRANCH   3  10
ATOM      9  C   UNL     1       1.151   2.818  21.658  0.00  0.00    +0.000 C 
ATOM     10  O   UNL     1       1.021   3.267  20.310  0.00  0.00    +0.000 OA
ENDBRANCH   3  10
BRANCH   8  11
ATOM     11  O   UNL     1       3.137   5.254  20.358  0.00  0.00    +0.000 OA
ATOM     12  C   UNL     1       2.329   6.363  19.991  0.00  0.00    +0.000 C 
ENDBRANCH   8  11
ENDBRANCH   1   7
BRANCH   1  13
ATOM     13  O   UNL     1       5.046   5.797  17.628  0.00  0.00    +0.000 OA
BRANCH  13  14
ATOM     14  N   UNL     1       5.192   5.122  16.404  0.00  0.00    +0.000 NA
ATOM     15  C   UNL     1       6.337   5.409  15.857  0.00  0.00    +0.000 C 
ATOM     16  N   UNL     1       7.326   6.140  16.484  0.00  0.00    +0.000 N 
ATOM     17  H   UNL     1       7.274   6.093  17.495  0.00  0.00    +0.000 HD
ATOM     18  H   UNL     1       8.253   5.965  16.101  0.00  0.00    +0.000 HD
BRANCH  15  19
ATOM     19  C   UNL     1       6.612   4.909  14.464  0.00  0.00    +0.000 A 
ATOM     20  C   UNL     1       5.816   3.923  13.894  0.00  0.00    +0.000 A 
ATOM     21  C   UNL     1       6.101   3.519  12.595  0.00  0.00    +0.000 A 
ATOM     22  C   UNL     1       7.158   4.114  11.914  0.00  0.00    +0.000 A 
ATOM     23  C   UNL     1       7.897   5.093  12.563  0.00  0.00    +0.000 A 
ATOM     24  N   UNL     1       7.660   5.504  13.828  0.00  0.00    +0.000 NA
ENDBRANCH  15  19
ENDBRANCH  13  14
ENDBRANCH   1  13
TORSDOF 6
ENDMDL
MODEL 3
REMARK VINA RESULT:      -7.2      1.789      2.750
REMARK  Name = 
REMARK  8 active torsions:
REMARK  status: ('A' for Active; 'I' for Inactive)
REMARK    1  A    between atoms: C_1  and  O_2
REMARK    2  A    between atoms: O_2  and  C_3
REMARK    3  A    between atoms: C_7  and  C_8
REMARK    4  A    between atoms: C_8  and  O_10
REMARK    5  A    between atoms: O_10  and  N_11
REMARK    6  A    between atoms: C_12  and  C_14
REMARK    7  A    between atoms: C_20  and  O_21
REMARK    8  A    between atoms: O_21  and  C_22
REMARK                            x       y       z     vdW  Elec       q    Type
REMARK                         _______ _______ _______ _____ _____    ______ ____
ROOT
ATOM      1  C   UNL     1       4.041   4.231  18.092  0.00  0.00    +0.000 C 
ATOM      2  O   UNL     1       3.469   3.182  17.832  0.00  0.00    +0.000 OA
ENDROOT
BRANCH   1   7
ATOM      3  C   UNL     1       2.127   6.968  19.925  0.00  0.00    +0.000 A 
ATOM      4  C   UNL     1       2.289   8.002  18.986  0.00  0.00    +0.000 A 
ATOM      5  C   UNL     1       2.884   7.764  17.754  0.00  0.00    +0.000 A 
ATOM      6  C   UNL     1       3.409   6.506  17.484  0.00  0.00    +0.000 A 
ATOM      7  C   UNL     1       3.331   5.479  18.444  0.00  0.00    +0.000 A 
ATOM      8  C   UNL     1       2.670   5.692  19.672  0.00  0.00    +0.000 A 
BRANCH   3  10
ATOM      9  C   UNL     1       1.135   8.563  21.349  0.00  0.00    +0.000 C 
ATOM     10  O   UNL     1       1.432   7.193  21.087  0.00  0.00    +0.000 OA
ENDBRANCH   3  10
BRANCH   8  11
ATOM     11  O   UNL     1       2.509   4.574  20.447  0.00  0.00    +0.000 OA
ATOM     12  C   UNL     1       1.238   3.944  20.501  0.00  0.00    +0.000 C 
ENDBRANCH   8  11
ENDBRANCH   1   7
BRANCH   1  13
ATOM     13  O   UNL     1       5.374   4.500  17.920  0.00  0.00    +0.000 OA
BRANCH  13  14
ATOM     14  N   UNL     1       5.782   4.034  16.659  0.00  0.00    +0.000 NA
ATOM     15  C   UNL     1       6.326   4.996  15.970  0.00  0.00    +0.000 C 
ATOM     16  N   UNL     1       6.606   6.245  16.485  0.00  0.00    +0.000 N 
ATOM     17  H   UNL     1       6.735   6.241  17.490  0.00  0.00    +0.000 HD
ATOM     18  H   UNL     1       7.335   6.733  15.968  0.00  0.00    +0.000 HD
BRANCH  15  19
ATOM     19  C   UNL     1       6.682   4.734  14.531  0.00  0.00    +0.000 A 
ATOM     20  C   UNL     1       5.983   3.792  13.787  0.00  0.00    +0.000 A 
ATOM     21  C   UNL     1       6.339   3.612  12.455  0.00  0.00    +0.000 A 
ATOM     22  C   UNL     1       7.369   4.377  11.917  0.00  0.00    +0.000 A 
ATOM     23  C   UNL     1       8.010   5.296  12.736  0.00  0.00    +0.000 A 
ATOM     24  N   UNL     1       7.701   5.492  14.037  0.00  0.00    +0.000 NA
ENDBRANCH  15  19
ENDBRANCH  13  14
ENDBRANCH   1  13
TORSDOF 6
ENDMDL
MODEL 4
REMARK VINA RESULT:      -7.1      1.413      1.778
REMARK  Name = 
REMARK  8 active torsions:
REMARK  status: ('A' for Active; 'I' for Inactive)
REMARK    1  A    between atoms: C_1  and  O_2
REMARK    2  A    between atoms: O_2  and  C_3
REMARK    3  A    between atoms: C_7  and  C_8
REMARK    4  A    between atoms: C_8  and  O_10
REMARK    5  A    between atoms: O_10  and  N_11
REMARK    6  A    between atoms: C_12  and  C_14
REMARK    7  A    between atoms: C_20  and  O_21
REMARK    8  A    between atoms: O_21  and  C_22
REMARK                            x       y       z     vdW  Elec       q    Type
REMARK                         _______ _______ _______ _____ _____    ______ ____
ROOT
ATOM      1  C   UNL     1       6.168   5.102  18.831  0.00  0.00    +0.000 C 
ATOM      2  O   UNL     1       6.740   5.664  19.754  0.00  0.00    +0.000 OA
ENDROOT
BRANCH   1   7
ATOM      3  C   UNL     1       2.420   4.477  18.562  0.00  0.00    +0.000 A 
ATOM      4  C   UNL     1       2.007   5.790  18.275  0.00  0.00    +0.000 A 
ATOM      5  C   UNL     1       2.936   6.798  18.049  0.00  0.00    +0.000 A 
ATOM      6  C   UNL     1       4.289   6.523  18.202  0.00  0.00    +0.000 A 
ATOM      7  C   UNL     1       4.718   5.234  18.571  0.00  0.00    +0.000 A 
ATOM      8  C   UNL     1       3.788   4.187  18.737  0.00  0.00    +0.000 A 
BRANCH   3  10
ATOM      9  C   UNL     1       0.837   3.386  19.929  0.00  0.00    +0.000 C 
ATOM     10  O   UNL     1       1.493   3.469  18.664  0.00  0.00    +0.000 OA
ENDBRANCH   3  10
BRANCH   8  11
ATOM     11  O   UNL     1       4.336   2.946  18.926  0.00  0.00    +0.000 OA
ATOM     12  C   UNL     1       4.321   2.371  20.224  0.00  0.00    +0.000 C 
ENDBRANCH   8  11
ENDBRANCH   1   7
BRANCH   1  13
ATOM     13  O   UNL     1       6.687   4.128  18.018  0.00  0.00    +0.000 OA
BRANCH  13  14
ATOM     14  N   UNL     1       7.000   4.686  16.767  0.00  0.00    +0.000 NA
ATOM     15  C   UNL     1       6.496   3.966  15.806  0.00  0.00    +0.000 C 
ATOM     16  N   UNL     1       5.638   2.905  16.011  0.00  0.00    +0.000 N 
ATOM     17  H   UNL     1       5.124   2.972  16.882  0.00  0.00    +0.000 HD
ATOM     18  H   UNL     1       5.063   2.697  15.197  0.00  0.00    +0.000 HD
BRANCH  15  19
ATOM     19  C   UNL     1       6.858   4.312  14.386  0.00  0.00    +0.000 A 
ATOM     20  C   UNL     1       6.256   3.655  13.321  0.00  0.00    +0.000 A 
ATOM     21  C   UNL     1       6.609   4.034  12.031  0.00  0.00    +0.000 A 
ATOM     22  C   UNL     1       7.539   5.053  11.852  0.00  0.00    +0.000 A 
ATOM     23  C   UNL     1       8.087   5.655  12.977  0.00  0.00    +0.000 A 
ATOM     24  N   UNL     1       7.778   5.307  14.245  0.00  0.00    +0.000 NA
ENDBRANCH  15  19
ENDBRANCH  13  14
ENDBRANCH   1  13
TORSDOF 6
ENDMDL
MODEL 5
REMARK VINA RESULT:      -7.0      1.207      1.445
REMARK  Name = 
REMARK  8 active torsions:
REMARK  status: ('A' for Active; 'I' for Inactive)
REMARK    1  A    between atoms: C_1  and  O_2
REMARK    2  A    between atoms: O_2  and  C_3
REMARK    3  A    between atoms: C_7  and  C_8
REMARK    4  A    between atoms: C_8  and  O_10
REMARK    5  A    between atoms: O_10  and  N_11
REMARK    6  A    between atoms: C_12  and  C_14
REMARK    7  A    between atoms: C_20  and  O_21
REMARK    8  A    between atoms: O_21  and  C_22
REMARK                            x       y       z     vdW  Elec       q    Type
REMARK                         _______ _______ _______ _____ _____    ______ ____
ROOT
ATOM      1  C   UNL     1       4.058   6.050  17.528  0.00  0.00    +0.000 C 
ATOM      2  O   UNL     1       4.010   7.032  16.800  0.00  0.00    +0.000 OA
ENDROOT
BRANCH   1   7
ATOM      3  C   UNL     1       1.668   4.366  19.971  0.00  0.00    +0.000 A 
ATOM      4  C   UNL     1       1.434   5.460  20.824  0.00  0.00    +0.000 A 
ATOM      5  C   UNL     1       1.935   6.720  20.525  0.00  0.00    +0.000 A 
ATOM      6  C   UNL     1       2.757   6.881  19.416  0.00  0.00    +0.000 A 
ATOM      7  C   UNL     1       3.071   5.780  18.596  0.00  0.00    +0.000 A 
ATOM      8  C   UNL     1       2.514   4.510  18.852  0.00  0.00    +0.000 A 
BRANCH   3  10
ATOM      9  C   UNL     1       1.405   2.567  21.472  0.00  0.00    +0.000 C 
ATOM     10  O   UNL     1       1.067   3.157  20.218  0.00  0.00    +0.000 OA
ENDBRANCH   3  10
BRANCH   8  11
ATOM     11  O   UNL     1       2.754   3.564  17.891  0.00  0.00    +0.000 OA
ATOM     12  C   UNL     1       3.341   2.327  18.266  0.00  0.00    +0.000 C 
ENDBRANCH   8  11
ENDBRANCH   1   7
BRANCH   1  13
ATOM     13  O   UNL     1       5.093   5.158  17.631  0.00  0.00    +0.000 OA
BRANCH  13  14
ATOM     14  N   UNL     1       5.342   4.590  16.370  0.00  0.00    +0.000 NA
ATOM     15  C   UNL     1       6.376   5.150  15.812  0.00  0.00    +0.000 C 
ATOM     16  N   UNL     1       7.199   6.054  16.453  0.00  0.00    +0.000 N 
ATOM     17  H   UNL     1       7.194   5.950  17.461  0.00  0.00    +0.000 HD
ATOM     18  H   UNL     1       8.127   6.108  16.039  0.00  0.00    +0.000 HD
BRANCH  15  19
ATOM     19  C   UNL     1       6.706   4.789  14.388  0.00  0.00    +0.000 A 
ATOM     20  C   UNL     1       5.996   3.795  13.725  0.00  0.00    +0.000 A 
ATOM     21  C   UNL     1       6.327   3.522  12.403  0.00  0.00    +0.000 A 
ATOM     22  C   UNL     1       7.343   4.250  11.792  0.00  0.00    +0.000 A 
ATOM     23  C   UNL     1       7.996   5.226  12.533  0.00  0.00    +0.000 A 
ATOM     24  N   UNL     1       7.712   5.512  13.822  0.00  0.00    +0.000 NA
ENDBRANCH  15  19
ENDBRANCH  13  14
ENDBRANCH   1  13
TORSDOF 6
ENDMDL
MODEL 6
REMARK VINA RESULT:      -6.9      2.232      3.163
REMARK  Name = 
REMARK  8 active torsions:
REMARK  status: ('A' for Active; 'I' for Inactive)
REMARK    1  A    between atoms: C_1  and  O_2
REMARK    2  A    between atoms: O_2  and  C_3
REMARK    3  A    between atoms: C_7  and  C_8
REMARK    4  A    between atoms: C_8  and  O_10
REMARK    5  A    between atoms: O_10  and  N_11
REMARK    6  A    between atoms: C_12  and  C_14
REMARK    7  A    between atoms: C_20  and  O_21
REMARK    8  A    between atoms: O_21  and  C_22
REMARK                            x       y       z     vdW  Elec       q    Type
REMARK                         _______ _______ _______ _____ _____    ______ ____
ROOT
ATOM      1  C   UNL     1       3.641   5.627  17.995  0.00  0.00    +0.000 C 
ATOM      2  O   UNL     1       3.275   4.461  18.009  0.00  0.00    +0.000 OA
ENDROOT
BRANCH   1   7
ATOM      3  C   UNL     1       1.650   7.977  20.237  0.00  0.00    +0.000 A 
ATOM      4  C   UNL     1       1.529   9.062  19.350  0.00  0.00    +0.000 A 
ATOM      5  C   UNL     1       1.967   8.964  18.036  0.00  0.00    +0.000 A 
ATOM      6  C   UNL     1       2.618   7.809  17.620  0.00  0.00    +0.000 A 
ATOM      7  C   UNL     1       2.823   6.743  18.517  0.00  0.00    +0.000 A 
ATOM      8  C   UNL     1       2.323   6.806  19.834  0.00  0.00    +0.000 A 
BRANCH   3  10
ATOM      9  C   UNL     1      -0.008   8.933  21.614  0.00  0.00    +0.000 C 
ATOM     10  O   UNL     1       1.105   8.050  21.495  0.00  0.00    +0.000 OA
ENDBRANCH   3  10
BRANCH   8  11
ATOM     11  O   UNL     1       2.432   5.646  20.554  0.00  0.00    +0.000 OA
ATOM     12  C   UNL     1       1.319   4.767  20.628  0.00  0.00    +0.000 C 
ENDBRANCH   8  11
ENDBRANCH   1   7
BRANCH   1  13
ATOM     13  O   UNL     1       4.734   6.134  17.343  0.00  0.00    +0.000 OA
BRANCH  13  14
ATOM     14  N   UNL     1       4.928   5.427  16.143  0.00  0.00    +0.000 NA
ATOM     15  C   UNL     1       6.170   5.503  15.763  0.00  0.00    +0.000 C 
ATOM     16  N   UNL     1       7.175   6.060  16.528  0.00  0.00    +0.000 N 
ATOM     17  H   UNL     1       6.977   6.036  17.522  0.00  0.00    +0.000 HD
ATOM     18  H   UNL     1       8.101   5.721  16.275  0.00  0.00    +0.000 HD
BRANCH  15  19
ATOM     19  C   UNL     1       6.544   4.944  14.416  0.00  0.00    +0.000 A 
ATOM     20  C   UNL     1       5.785   3.938  13.831  0.00  0.00    +0.000 A 
ATOM     21  C   UNL     1       6.162   3.478  12.574  0.00  0.00    +0.000 A 
ATOM     22  C   UNL     1       7.270   4.040  11.948  0.00  0.00    +0.000 A 
ATOM     23  C   UNL     1       7.966   5.043  12.609  0.00  0.00    +0.000 A 
ATOM     24  N   UNL     1       7.639   5.508  13.834  0.00  0.00    +0.000 NA
ENDBRANCH  15  19
ENDBRANCH  13  14
ENDBRANCH   1  13
TORSDOF 6
ENDMDL
MODEL 7
REMARK VINA RESULT:      -6.9      2.756      6.769
REMARK  Name = 
REMARK  8 active torsions:
REMARK  status: ('A' for Active; 'I' for Inactive)
REMARK    1  A    between atoms: C_1  and  O_2
REMARK    2  A    between atoms: O_2  and  C_3
REMARK    3  A    between atoms: C_7  and  C_8
REMARK    4  A    between atoms: C_8  and  O_10
REMARK    5  A    between atoms: O_10  and  N_11
REMARK    6  A    between atoms: C_12  and  C_14
REMARK    7  A    between atoms: C_20  and  O_21
REMARK    8  A    between atoms: O_21  and  C_22
REMARK                            x       y       z     vdW  Elec       q    Type
REMARK                         _______ _______ _______ _____ _____    ______ ____
ROOT
ATOM      1  C   UNL     1       5.861   4.714  18.972  0.00  0.00    +0.000 C 
ATOM      2  O   UNL     1       6.829   4.930  19.689  0.00  0.00    +0.000 OA
ENDROOT
BRANCH   1   7
ATOM      3  C   UNL     1       6.980   5.014  15.343  0.00  0.00    +0.000 A 
ATOM      4  C   UNL     1       6.027   4.161  14.758  0.00  0.00    +0.000 A 
ATOM      5  C   UNL     1       4.989   3.626  15.510  0.00  0.00    +0.000 A 
ATOM      6  C   UNL     1       4.947   3.862  16.878  0.00  0.00    +0.000 A 
ATOM      7  C   UNL     1       5.941   4.645  17.498  0.00  0.00    +0.000 A 
ATOM      8  C   UNL     1       6.961   5.249  16.733  0.00  0.00    +0.000 A 
BRANCH   3  10
ATOM      9  C   UNL     1       7.902   5.255  13.186  0.00  0.00    +0.000 C 
ATOM     10  O   UNL     1       7.928   5.628  14.563  0.00  0.00    +0.000 OA
ENDBRANCH   3  10
BRANCH   8  11
ATOM     11  O   UNL     1       7.763   6.122  17.418  0.00  0.00    +0.000 OA
ATOM     12  C   UNL     1       7.454   7.508  17.400  0.00  0.00    +0.000 C 
ENDBRANCH   8  11
ENDBRANCH   1   7
BRANCH   1  13
ATOM     13  O   UNL     1       4.547   4.696  19.357  0.00  0.00    +0.000 OA
BRANCH  13  14
ATOM     14  N   UNL     1       4.093   6.016  19.522  0.00  0.00    +0.000 NA
ATOM     15  C   UNL     1       2.854   6.125  19.139  0.00  0.00    +0.000 C 
ATOM     16  N   UNL     1       2.063   5.052  18.784  0.00  0.00    +0.000 N 
ATOM     17  H   UNL     1       2.359   4.181  19.210  0.00  0.00    +0.000 HD
ATOM     18  H   UNL     1       1.067   5.246  18.872  0.00  0.00    +0.000 HD
BRANCH  15  19
ATOM     19  C   UNL     1       2.237   7.498  19.087  0.00  0.00    +0.000 A 
ATOM     20  C   UNL     1       2.239   8.232  17.908  0.00  0.00    +0.000 A 
ATOM     21  C   UNL     1       1.632   9.483  17.913  0.00  0.00    +0.000 A 
ATOM     22  C   UNL     1       1.043   9.949  19.085  0.00  0.00    +0.000 A 
ATOM     23  C   UNL     1       1.089   9.143  20.214  0.00  0.00    +0.000 A 
ATOM     24  N   UNL     1       1.679   7.929  20.253  0.00  0.00    +0.000 NA
ENDBRANCH  15  19
ENDBRANCH  13  14
ENDBRANCH   1  13
TORSDOF 6
ENDMDL
MODEL 8
REMARK VINA RESULT:      -6.9      1.470      2.503
REMARK  Name = 
REMARK  8 active torsions:
REMARK  status: ('A' for Active; 'I' for Inactive)
REMARK    1  A    between atoms: C_1  and  O_2
REMARK    2  A    between atoms: O_2  and  C_3
REMARK    3  A    between atoms: C_7  and  C_8
REMARK    4  A    between atoms: C_8  and  O_10
REMARK    5  A    between atoms: O_10  and  N_11
REMARK    6  A    between atoms: C_12  and  C_14
REMARK    7  A    between atoms: C_20  and  O_21
REMARK    8  A    between atoms: O_21  and  C_22
REMARK                            x       y       z     vdW  Elec       q    Type
REMARK                         _______ _______ _______ _____ _____    ______ ____
ROOT
ATOM      1  C   UNL     1       3.582   5.685  17.686  0.00  0.00    +0.000 C 
ATOM      2  O   UNL     1       2.698   6.528  17.633  0.00  0.00    +0.000 OA
ENDROOT
BRANCH   1   7
ATOM      3  C   UNL     1       2.845   2.838  20.107  0.00  0.00    +0.000 A 
ATOM      4  C   UNL     1       2.851   1.773  19.188  0.00  0.00    +0.000 A 
ATOM      5  C   UNL     1       3.213   1.974  17.862  0.00  0.00    +0.000 A 
ATOM      6  C   UNL     1       3.484   3.263  17.419  0.00  0.00    +0.000 A 
ATOM      7  C   UNL     1       3.402   4.354  18.305  0.00  0.00    +0.000 A 
ATOM      8  C   UNL     1       3.100   4.152  19.668  0.00  0.00    +0.000 A 
BRANCH   3  10
ATOM      9  C   UNL     1       1.219   2.566  21.793  0.00  0.00    +0.000 C 
ATOM     10  O   UNL     1       2.600   2.600  21.437  0.00  0.00    +0.000 OA
ENDBRANCH   3  10
BRANCH   8  11
ATOM     11  O   UNL     1       3.219   5.263  20.462  0.00  0.00    +0.000 OA
ATOM     12  C   UNL     1       2.049   5.966  20.851  0.00  0.00    +0.000 C 
ENDBRANCH   8  11
ENDBRANCH   1   7
BRANCH   1  13
ATOM     13  O   UNL     1       4.905   5.868  17.382  0.00  0.00    +0.000 OA
BRANCH  13  14
ATOM     14  N   UNL     1       5.099   5.653  16.006  0.00  0.00    +0.000 NA
ATOM     15  C   UNL     1       6.149   4.911  15.803  0.00  0.00    +0.000 C 
ATOM     16  N   UNL     1       6.859   4.292  16.812  0.00  0.00    +0.000 N 
ATOM     17  H   UNL     1       6.304   4.122  17.642  0.00  0.00    +0.000 HD
ATOM     18  H   UNL     1       7.389   3.486  16.487  0.00  0.00    +0.000 HD
BRANCH  15  19
ATOM     19  C   UNL     1       6.615   4.701  14.387  0.00  0.00    +0.000 A 
ATOM     20  C   UNL     1       5.983   3.779  13.561  0.00  0.00    +0.000 A 
ATOM     21  C   UNL     1       6.440   3.646  12.255  0.00  0.00    +0.000 A 
ATOM     22  C   UNL     1       7.499   4.438  11.821  0.00  0.00    +0.000 A 
ATOM     23  C   UNL     1       8.067   5.334  12.716  0.00  0.00    +0.000 A 
ATOM     24  N   UNL     1       7.660   5.483  13.995  0.00  0.00    +0.000 NA
ENDBRANCH  15  19
ENDBRANCH  13  14
ENDBRANCH   1  13
TORSDOF 6
ENDMDL
MODEL 9
REMARK VINA RESULT:      -6.9      0.847      1.178
REMARK  Name = 
REMARK  8 active torsions:
REMARK  status: ('A' for Active; 'I' for Inactive)
REMARK    1  A    between atoms: C_1  and  O_2
REMARK    2  A    between atoms: O_2  and  C_3
REMARK    3  A    between atoms: C_7  and  C_8
REMARK    4  A    between atoms: C_8  and  O_10
REMARK    5  A    between atoms: O_10  and  N_11
REMARK    6  A    between atoms: C_12  and  C_14
REMARK    7  A    between atoms: C_20  and  O_21
REMARK    8  A    between atoms: O_21  and  C_22
REMARK                            x       y       z     vdW  Elec       q    Type
REMARK                         _______ _______ _______ _____ _____    ______ ____
ROOT
ATOM      1  C   UNL     1       5.387   5.348  18.989  0.00  0.00    +0.000 C 
ATOM      2  O   UNL     1       6.339   4.765  19.490  0.00  0.00    +0.000 OA
ENDROOT
BRANCH   1   7
ATOM      3  C   UNL     1       2.090   3.723  19.989  0.00  0.00    +0.000 A 
ATOM      4  C   UNL     1       1.402   4.879  20.399  0.00  0.00    +0.000 A 
ATOM      5  C   UNL     1       1.955   6.141  20.225  0.00  0.00    +0.000 A 
ATOM      6  C   UNL     1       3.246   6.255  19.724  0.00  0.00    +0.000 A 
ATOM      7  C   UNL     1       3.984   5.104  19.385  0.00  0.00    +0.000 A 
ATOM      8  C   UNL     1       3.406   3.822  19.495  0.00  0.00    +0.000 A 
BRANCH   3  10
ATOM      9  C   UNL     1       0.697   2.151  18.917  0.00  0.00    +0.000 C 
ATOM     10  O   UNL     1       1.480   2.495  20.058  0.00  0.00    +0.000 OA
ENDBRANCH   3  10
BRANCH   8  11
ATOM     11  O   UNL     1       4.155   2.799  18.975  0.00  0.00    +0.000 OA
ATOM     12  C   UNL     1       4.638   1.783  19.841  0.00  0.00    +0.000 C 
ENDBRANCH   8  11
ENDBRANCH   1   7
BRANCH   1  13
ATOM     13  O   UNL     1       5.412   6.151  17.880  0.00  0.00    +0.000 OA
BRANCH  13  14
ATOM     14  N   UNL     1       5.374   5.350  16.726  0.00  0.00    +0.000 NA
ATOM     15  C   UNL     1       6.402   5.592  15.966  0.00  0.00    +0.000 C 
ATOM     16  N   UNL     1       7.458   6.400  16.337  0.00  0.00    +0.000 N 
ATOM     17  H   UNL     1       7.577   6.462  17.342  0.00  0.00    +0.000 HD
ATOM     18  H   UNL     1       8.313   6.197  15.824  0.00  0.00    +0.000 HD
BRANCH  15  19
ATOM     19  C   UNL     1       6.457   4.948  14.606  0.00  0.00    +0.000 A 
ATOM     20  C   UNL     1       7.512   5.209  13.740  0.00  0.00    +0.000 A 
ATOM     21  C   UNL     1       7.523   4.566  12.508  0.00  0.00    +0.000 A 
ATOM     22  C   UNL     1       6.493   3.686  12.190  0.00  0.00    +0.000 A 
ATOM     23  C   UNL     1       5.482   3.486  13.120  0.00  0.00    +0.000 A 
ATOM     24  N   UNL     1       5.429   4.101  14.321  0.00  0.00    +0.000 NA
ENDBRANCH  15  19
ENDBRANCH  13  14
ENDBRANCH   1  13
TORSDOF 6
ENDMDL
