MODEL 1
REMARK VINA RESULT:      -7.0      0.000      0.000
REMARK  Name = 
REMARK  10 active torsions:
REMARK  status: ('A' for Active; 'I' for Inactive)
REMARK    1  A    between atoms: C_1  and  O_2
REMARK    2  A    between atoms: O_2  and  C_3
REMARK    3  A    between atoms: C_10  and  C_11
REMARK    4  A    between atoms: C_13  and  C_15
REMARK    5  A    between atoms: C_17  and  O_18
REMARK    6  A    between atoms: O_18  and  C_19
REMARK    7  A    between atoms: C_20  and  O_21
REMARK    8  A    between atoms: O_21  and  C_22
REMARK    9  A    between atoms: C_23  and  O_24
REMARK   10  A    between atoms: O_24  and  C_25
REMARK                            x       y       z     vdW  Elec       q    Type
REMARK                         _______ _______ _______ _____ _____    ______ ____
ROOT
ATOM      1  C   UNL     1      -0.871  11.759  21.021  0.00  0.00    +0.000 A 
ATOM      2  C   UNL     1      -0.738  11.692  19.627  0.00  0.00    +0.000 A 
ATOM      3  C   UNL     1       0.020  10.670  19.020  0.00  0.00    +0.000 A 
ATOM      4  C   UNL     1       0.636   9.716  19.820  0.00  0.00    +0.000 A 
ATOM      5  C   UNL     1       0.477   9.785  21.205  0.00  0.00    +0.000 A 
ATOM      6  C   UNL     1      -0.262  10.789  21.810  0.00  0.00    +0.000 A 
ATOM      7  C   UNL     1       1.225   8.716  21.909  0.00  0.00    +0.000 C 
ATOM      8  C   UNL     1       1.814   7.902  20.741  0.00  0.00    +0.000 C 
ATOM      9  C   UNL     1       1.304   6.463  20.766  0.00  0.00    +0.000 C 
ATOM     10  N   UNL     1       1.490   8.630  19.469  0.00  0.00    +0.000 N 
ATOM     11  C   UNL     1       1.887   8.357  18.149  0.00  0.00    +0.000 C 
ATOM     12  O   UNL     1       1.412   8.923  17.153  0.00  0.00    +0.000 OA
ENDROOT
BRANCH  11  13
ATOM     13  C   UNL     1       2.948   7.332  17.854  0.00  0.00    +0.000 A 
ATOM     14  C   UNL     1       2.645   5.975  18.020  0.00  0.00    +0.000 A 
ATOM     15  C   UNL     1       3.589   4.984  17.711  0.00  0.00    +0.000 A 
ATOM     16  C   UNL     1       4.888   5.347  17.281  0.00  0.00    +0.000 A 
ATOM     17  C   UNL     1       5.193   6.710  17.107  0.00  0.00    +0.000 A 
ATOM     18  C   UNL     1       4.190   7.666  17.317  0.00  0.00    +0.000 A 
BRANCH  15  19
ATOM     19  O   UNL     1       3.335   3.639  17.842  0.00  0.00    +0.000 OA
ATOM     20  C   UNL     1       1.970   3.266  18.037  0.00  0.00    +0.000 C 
ENDBRANCH  15  19
BRANCH  16  21
ATOM     21  O   UNL     1       5.764   4.301  17.095  0.00  0.00    +0.000 OA
ATOM     22  C   UNL     1       6.011   3.878  15.759  0.00  0.00    +0.000 C 
ENDBRANCH  16  21
BRANCH  17  23
ATOM     23  O   UNL     1       6.466   7.059  16.731  0.00  0.00    +0.000 OA
ATOM     24  C   UNL     1       7.436   7.279  17.747  0.00  0.00    +0.000 C 
ENDBRANCH  17  23
ENDBRANCH  11  13
BRANCH   1  26
ATOM     25  C   UNL     1      -1.133  12.944  23.067  0.00  0.00    +0.000 C 
ATOM     26  O   UNL     1      -1.559  12.699  21.736  0.00  0.00    +0.000 OA
ENDBRANCH   1  26
TORSDOF 5
ENDMDL
MODEL 2
REMARK VINA RESULT:      -7.0      0.571      2.500
REMARK  Name = 
REMARK  10 active torsions:
REMARK  status: ('A' for Active; 'I' for Inactive)
REMARK    1  A    between atoms: C_1  and  O_2
REMARK    2  A    between atoms: O_2  and  C_3
REMARK    3  A    between atoms: C_10  and  C_11
REMARK    4  A    between atoms: C_13  and  C_15
REMARK    5  A    between atoms: C_17  and  O_18
REMARK    6  A    between atoms: O_18  and  C_19
REMARK    7  A    between atoms: C_20  and  O_21
REMARK    8  A    between atoms: O_21  and  C_22
REMARK    9  A    between atoms: C_23  and  O_24
REMARK   10  A    between atoms: O_24  and  C_25
REMARK                            x       y       z     vdW  Elec       q    Type
REMARK                         _______ _______ _______ _____ _____    ______ ____
ROOT
ATOM      1  C   UNL     1      -0.457  11.484  21.144  0.00  0.00    +0.000 A 
ATOM      2  C   UNL     1      -0.292  11.507  19.753  0.00  0.00    +0.000 A 
ATOM      3  C   UNL     1       0.418  10.486  19.090  0.00  0.00    +0.000 A 
ATOM      4  C   UNL     1       0.954   9.441  19.831  0.00  0.00    +0.000 A 
ATOM      5  C   UNL     1       0.764   9.421  21.214  0.00  0.00    +0.000 A 
ATOM      6  C   UNL     1       0.072  10.424  21.875  0.00  0.00    +0.000 A 
ATOM      7  C   UNL     1       1.428   8.260  21.855  0.00  0.00    +0.000 C 
ATOM      8  C   UNL     1       1.996   7.496  20.643  0.00  0.00    +0.000 C 
ATOM      9  C   UNL     1       1.399   6.094  20.553  0.00  0.00    +0.000 C 
ATOM     10  N   UNL     1       1.749   8.332  19.421  0.00  0.00    +0.000 N 
ATOM     11  C   UNL     1       2.163   8.128  18.093  0.00  0.00    +0.000 C 
ATOM     12  O   UNL     1       1.749   8.792  17.131  0.00  0.00    +0.000 OA
ENDROOT
BRANCH  11  13
ATOM     13  C   UNL     1       3.167   7.063  17.747  0.00  0.00    +0.000 A 
ATOM     14  C   UNL     1       4.450   7.447  17.335  0.00  0.00    +0.000 A 
ATOM     15  C   UNL     1       5.432   6.487  17.050  0.00  0.00    +0.000 A 
ATOM     16  C   UNL     1       5.120   5.108  17.117  0.00  0.00    +0.000 A 
ATOM     17  C   UNL     1       3.835   4.719  17.538  0.00  0.00    +0.000 A 
ATOM     18  C   UNL     1       2.916   5.704  17.923  0.00  0.00    +0.000 A 
BRANCH  15  19
ATOM     19  O   UNL     1       6.708   6.815  16.657  0.00  0.00    +0.000 OA
ATOM     20  C   UNL     1       7.515   7.494  17.618  0.00  0.00    +0.000 C 
ENDBRANCH  15  19
BRANCH  16  21
ATOM     21  O   UNL     1       6.127   4.254  16.727  0.00  0.00    +0.000 OA
ATOM     22  C   UNL     1       6.121   3.801  15.378  0.00  0.00    +0.000 C 
ENDBRANCH  16  21
BRANCH  17  23
ATOM     23  O   UNL     1       3.525   3.382  17.561  0.00  0.00    +0.000 OA
ATOM     24  C   UNL     1       3.242   2.776  18.816  0.00  0.00    +0.000 C 
ENDBRANCH  17  23
ENDBRANCH  11  13
BRANCH   1  26
ATOM     25  C   UNL     1      -1.915  11.928  22.971  0.00  0.00    +0.000 C 
ATOM     26  O   UNL     1      -1.104  12.411  21.911  0.00  0.00    +0.000 OA
ENDBRANCH   1  26
TORSDOF 5
ENDMDL
MODEL 3
REMARK VINA RESULT:      -7.0      1.958      8.007
REMARK  Name = 
REMARK  10 active torsions:
REMARK  status: ('A' for Active; 'I' for Inactive)
REMARK    1  A    between atoms: C_1  and  O_2
REMARK    2  A    between atoms: O_2  and  C_3
REMARK    3  A    between atoms: C_10  and  C_11
REMARK    4  A    between atoms: C_13  and  C_15
REMARK    5  A    between atoms: C_17  and  O_18
REMARK    6  A    between atoms: O_18  and  C_19
REMARK    7  A    between atoms: C_20  and  O_21
REMARK    8  A    between atoms: O_21  and  C_22
REMARK    9  A    between atoms: C_23  and  O_24
REMARK   10  A    between atoms: O_24  and  C_25
REMARK                            x       y       z     vdW  Elec       q    Type
REMARK                         _______ _______ _______ _____ _____    ______ ____
ROOT
ATOM      1  C   UNL     1       3.944   4.258  18.607  0.00  0.00    +0.000 A 
ATOM      2  C   UNL     1       4.152   5.273  17.663  0.00  0.00    +0.000 A 
ATOM      3  C   UNL     1       3.517   6.524  17.793  0.00  0.00    +0.000 A 
ATOM      4  C   UNL     1       2.678   6.751  18.876  0.00  0.00    +0.000 A 
ATOM      5  C   UNL     1       2.496   5.737  19.818  0.00  0.00    +0.000 A 
ATOM      6  C   UNL     1       3.112   4.501  19.696  0.00  0.00    +0.000 A 
ATOM      7  C   UNL     1       1.547   6.128  20.887  0.00  0.00    +0.000 C 
ATOM      8  C   UNL     1       1.223   7.589  20.520  0.00  0.00    +0.000 C 
ATOM      9  C   UNL     1       1.639   8.539  21.641  0.00  0.00    +0.000 C 
ATOM     10  N   UNL     1       1.884   7.887  19.206  0.00  0.00    +0.000 N 
ATOM     11  C   UNL     1       1.809   9.036  18.400  0.00  0.00    +0.000 C 
ATOM     12  O   UNL     1       2.541   9.242  17.420  0.00  0.00    +0.000 OA
ENDROOT
BRANCH  11  13
ATOM     13  C   UNL     1       0.803  10.119  18.684  0.00  0.00    +0.000 A 
ATOM     14  C   UNL     1       1.236  11.307  19.284  0.00  0.00    +0.000 A 
ATOM     15  C   UNL     1       0.341  12.361  19.522  0.00  0.00    +0.000 A 
ATOM     16  C   UNL     1      -1.031  12.213  19.211  0.00  0.00    +0.000 A 
ATOM     17  C   UNL     1      -1.468  11.023  18.601  0.00  0.00    +0.000 A 
ATOM     18  C   UNL     1      -0.527  10.038  18.275  0.00  0.00    +0.000 A 
BRANCH  15  19
ATOM     19  O   UNL     1       0.721  13.552  20.095  0.00  0.00    +0.000 OA
ATOM     20  C   UNL     1       2.111  13.703  20.386  0.00  0.00    +0.000 C 
ENDBRANCH  15  19
BRANCH  16  21
ATOM     21  O   UNL     1      -1.837  13.271  19.571  0.00  0.00    +0.000 OA
ATOM     22  C   UNL     1      -2.578  13.153  20.780  0.00  0.00    +0.000 C 
ENDBRANCH  16  21
BRANCH  17  23
ATOM     23  O   UNL     1      -2.806  10.868  18.339  0.00  0.00    +0.000 OA
ATOM     24  C   UNL     1      -3.200   9.892  17.382  0.00  0.00    +0.000 C 
ENDBRANCH  17  23
ENDBRANCH  11  13
BRANCH   1  26
ATOM     25  C   UNL     1       3.584   1.909  18.722  0.00  0.00    +0.000 C 
ATOM     26  O   UNL     1       4.480   3.001  18.595  0.00  0.00    +0.000 OA
ENDBRANCH   1  26
TORSDOF 5
ENDMDL
MODEL 4
REMARK VINA RESULT:      -6.9      1.821      7.830
REMARK  Name = 
REMARK  10 active torsions:
REMARK  status: ('A' for Active; 'I' for Inactive)
REMARK    1  A    between atoms: C_1  and  O_2
REMARK    2  A    between atoms: O_2  and  C_3
REMARK    3  A    between atoms: C_10  and  C_11
REMARK    4  A    between atoms: C_13  and  C_15
REMARK    5  A    between atoms: C_17  and  O_18
REMARK    6  A    between atoms: O_18  and  C_19
REMARK    7  A    between atoms: C_20  and  O_21
REMARK    8  A    between atoms: O_21  and  C_22
REMARK    9  A    between atoms: C_23  and  O_24
REMARK   10  A    between atoms: O_24  and  C_25
REMARK                            x       y       z     vdW  Elec       q    Type
REMARK                         _______ _______ _______ _____ _____    ______ ____
ROOT
ATOM      1  C   UNL     1       4.016   4.933  18.409  0.00  0.00    +0.000 A 
ATOM      2  C   UNL     1       4.132   6.025  17.539  0.00  0.00    +0.000 A 
ATOM      3  C   UNL     1       3.409   7.213  17.766  0.00  0.00    +0.000 A 
ATOM      4  C   UNL     1       2.576   7.299  18.874  0.00  0.00    +0.000 A 
ATOM      5  C   UNL     1       2.487   6.210  19.744  0.00  0.00    +0.000 A 
ATOM      6  C   UNL     1       3.190   5.036  19.525  0.00  0.00    +0.000 A 
ATOM      7  C   UNL     1       1.532   6.453  20.851  0.00  0.00    +0.000 C 
ATOM      8  C   UNL     1       1.094   7.908  20.595  0.00  0.00    +0.000 C 
ATOM      9  C   UNL     1       1.461   8.804  21.775  0.00  0.00    +0.000 C 
ATOM     10  N   UNL     1       1.706   8.346  19.296  0.00  0.00    +0.000 N 
ATOM     11  C   UNL     1       1.532   9.541  18.576  0.00  0.00    +0.000 C 
ATOM     12  O   UNL     1       2.228   9.870  17.604  0.00  0.00    +0.000 OA
ENDROOT
BRANCH  11  13
ATOM     13  C   UNL     1       0.455  10.522  18.950  0.00  0.00    +0.000 A 
ATOM     14  C   UNL     1      -0.849  10.309  18.484  0.00  0.00    +0.000 A 
ATOM     15  C   UNL     1      -1.893  11.173  18.847  0.00  0.00    +0.000 A 
ATOM     16  C   UNL     1      -1.631  12.310  19.647  0.00  0.00    +0.000 A 
ATOM     17  C   UNL     1      -0.324  12.522  20.124  0.00  0.00    +0.000 A 
ATOM     18  C   UNL     1       0.670  11.578  19.833  0.00  0.00    +0.000 A 
BRANCH  15  19
ATOM     19  O   UNL     1      -3.190  10.998  18.427  0.00  0.00    +0.000 OA
ATOM     20  C   UNL     1      -3.392  10.085  17.348  0.00  0.00    +0.000 C 
ENDBRANCH  15  19
BRANCH  16  21
ATOM     21  O   UNL     1      -2.707  13.140  19.867  0.00  0.00    +0.000 OA
ATOM     22  C   UNL     1      -3.388  13.020  21.111  0.00  0.00    +0.000 C 
ENDBRANCH  16  21
BRANCH  17  23
ATOM     23  O   UNL     1      -0.066  13.648  20.865  0.00  0.00    +0.000 OA
ATOM     24  C   UNL     1       1.288  13.966  21.165  0.00  0.00    +0.000 C 
ENDBRANCH  17  23
ENDBRANCH  11  13
BRANCH   1  26
ATOM     25  C   UNL     1       3.861   2.561  18.524  0.00  0.00    +0.000 C 
ATOM     26  O   UNL     1       4.644   3.724  18.300  0.00  0.00    +0.000 OA
ENDBRANCH   1  26
TORSDOF 5
ENDMDL
MODEL 5
REMARK VINA RESULT:      -6.8      1.953      3.012
REMARK  Name = 
REMARK  10 active torsions:
REMARK  status: ('A' for Active; 'I' for Inactive)
REMARK    1  A    between atoms: C_1  and  O_2
REMARK    2  A    between atoms: O_2  and  C_3
REMARK    3  A    between atoms: C_10  and  C_11
REMARK    4  A    between atoms: C_13  and  C_15
REMARK    5  A    between atoms: C_17  and  O_18
REMARK    6  A    between atoms: O_18  and  C_19
REMARK    7  A    between atoms: C_20  and  O_21
REMARK    8  A    between atoms: O_21  and  C_22
REMARK    9  A    between atoms: C_23  and  O_24
REMARK   10  A    between atoms: O_24  and  C_25
REMARK                            x       y       z     vdW  Elec       q    Type
REMARK                         _______ _______ _______ _____ _____    ______ ____
ROOT
ATOM      1  C   UNL     1      -1.713  12.558  21.254  0.00  0.00    +0.000 A 
ATOM      2  C   UNL     1      -1.019  11.887  22.270  0.00  0.00    +0.000 A 
ATOM      3  C   UNL     1      -0.197  10.780  21.977  0.00  0.00    +0.000 A 
ATOM      4  C   UNL     1      -0.073  10.356  20.660  0.00  0.00    +0.000 A 
ATOM      5  C   UNL     1      -0.755  11.048  19.657  0.00  0.00    +0.000 A 
ATOM      6  C   UNL     1      -1.570  12.133  19.936  0.00  0.00    +0.000 A 
ATOM      7  C   UNL     1      -0.543  10.447  18.318  0.00  0.00    +0.000 C 
ATOM      8  C   UNL     1       0.457   9.314  18.621  0.00  0.00    +0.000 C 
ATOM      9  C   UNL     1       1.764   9.521  17.858  0.00  0.00    +0.000 C 
ATOM     10  N   UNL     1       0.637   9.250  20.110  0.00  0.00    +0.000 N 
ATOM     11  C   UNL     1       1.359   8.331  20.891  0.00  0.00    +0.000 C 
ATOM     12  O   UNL     1       1.585   8.480  22.101  0.00  0.00    +0.000 OA
ENDROOT
BRANCH  11  13
ATOM     13  C   UNL     1       1.916   7.070  20.289  0.00  0.00    +0.000 A 
ATOM     14  C   UNL     1       1.306   5.846  20.593  0.00  0.00    +0.000 A 
ATOM     15  C   UNL     1       1.763   4.651  20.017  0.00  0.00    +0.000 A 
ATOM     16  C   UNL     1       2.890   4.660  19.161  0.00  0.00    +0.000 A 
ATOM     17  C   UNL     1       3.500   5.888  18.847  0.00  0.00    +0.000 A 
ATOM     18  C   UNL     1       2.947   7.073  19.352  0.00  0.00    +0.000 A 
BRANCH  15  19
ATOM     19  O   UNL     1       1.189   3.429  20.272  0.00  0.00    +0.000 OA
ATOM     20  C   UNL     1       1.398   2.888  21.577  0.00  0.00    +0.000 C 
ENDBRANCH  15  19
BRANCH  16  21
ATOM     21  O   UNL     1       3.311   3.423  18.724  0.00  0.00    +0.000 OA
ATOM     22  C   UNL     1       4.389   2.810  19.422  0.00  0.00    +0.000 C 
ENDBRANCH  16  21
BRANCH  17  23
ATOM     23  O   UNL     1       4.617   5.886  18.050  0.00  0.00    +0.000 OA
ATOM     24  C   UNL     1       4.647   6.756  16.925  0.00  0.00    +0.000 C 
ENDBRANCH  17  23
ENDBRANCH  11  13
BRANCH   1  26
ATOM     25  C   UNL     1      -3.840  13.529  20.814  0.00  0.00    +0.000 C 
ATOM     26  O   UNL     1      -2.551  13.627  21.399  0.00  0.00    +0.000 OA
ENDBRANCH   1  26
TORSDOF 5
ENDMDL
MODEL 6
REMARK VINA RESULT:      -6.8      1.686      1.980
REMARK  Name = 
REMARK  10 active torsions:
REMARK  status: ('A' for Active; 'I' for Inactive)
REMARK    1  A    between atoms: C_1  and  O_2
REMARK    2  A    between atoms: O_2  and  C_3
REMARK    3  A    between atoms: C_10  and  C_11
REMARK    4  A    between atoms: C_13  and  C_15
REMARK    5  A    between atoms: C_17  and  O_18
REMARK    6  A    between atoms: O_18  and  C_19
REMARK    7  A    between atoms: C_20  and  O_21
REMARK    8  A    between atoms: O_21  and  C_22
REMARK    9  A    between atoms: C_23  and  O_24
REMARK   10  A    between atoms: O_24  and  C_25
REMARK                            x       y       z     vdW  Elec       q    Type
REMARK                         _______ _______ _______ _____ _____    ______ ____
ROOT
ATOM      1  C   UNL     1       0.572  12.545  20.123  0.00  0.00    +0.000 A 
ATOM      2  C   UNL     1       0.917  12.180  18.814  0.00  0.00    +0.000 A 
ATOM      3  C   UNL     1       1.306  10.861  18.508  0.00  0.00    +0.000 A 
ATOM      4  C   UNL     1       1.341   9.911  19.521  0.00  0.00    +0.000 A 
ATOM      5  C   UNL     1       0.975  10.285  20.815  0.00  0.00    +0.000 A 
ATOM      6  C   UNL     1       0.596  11.581  21.126  0.00  0.00    +0.000 A 
ATOM      7  C   UNL     1       1.100   9.165  21.779  0.00  0.00    +0.000 C 
ATOM      8  C   UNL     1       1.520   7.995  20.870  0.00  0.00    +0.000 C 
ATOM      9  C   UNL     1       0.489   6.870  20.916  0.00  0.00    +0.000 C 
ATOM     10  N   UNL     1       1.745   8.545  19.492  0.00  0.00    +0.000 N 
ATOM     11  C   UNL     1       2.233   7.910  18.337  0.00  0.00    +0.000 C 
ATOM     12  O   UNL     1       2.208   8.418  17.206  0.00  0.00    +0.000 OA
ENDROOT
BRANCH  11  13
ATOM     13  C   UNL     1       2.839   6.534  18.405  0.00  0.00    +0.000 A 
ATOM     14  C   UNL     1       2.045   5.427  18.079  0.00  0.00    +0.000 A 
ATOM     15  C   UNL     1       2.582   4.131  18.083  0.00  0.00    +0.000 A 
ATOM     16  C   UNL     1       3.925   3.918  18.475  0.00  0.00    +0.000 A 
ATOM     17  C   UNL     1       4.726   5.029  18.795  0.00  0.00    +0.000 A 
ATOM     18  C   UNL     1       4.189   6.317  18.671  0.00  0.00    +0.000 A 
BRANCH  15  19
ATOM     19  O   UNL     1       1.848   3.015  17.757  0.00  0.00    +0.000 OA
ATOM     20  C   UNL     1       0.851   2.612  18.696  0.00  0.00    +0.000 C 
ENDBRANCH  15  19
BRANCH  16  21
ATOM     21  O   UNL     1       4.322   2.600  18.533  0.00  0.00    +0.000 OA
ATOM     22  C   UNL     1       4.380   1.986  19.815  0.00  0.00    +0.000 C 
ENDBRANCH  16  21
BRANCH  17  23
ATOM     23  O   UNL     1       6.015   4.814  19.214  0.00  0.00    +0.000 OA
ATOM     24  C   UNL     1       7.076   5.069  18.301  0.00  0.00    +0.000 C 
ENDBRANCH  17  23
ENDBRANCH  11  13
BRANCH   1  26
ATOM     25  C   UNL     1      -0.806  14.460  19.812  0.00  0.00    +0.000 C 
ATOM     26  O   UNL     1       0.194  13.784  20.558  0.00  0.00    +0.000 OA
ENDBRANCH   1  26
TORSDOF 5
ENDMDL
MODEL 7
REMARK VINA RESULT:      -6.7      1.826      3.760
REMARK  Name = 
REMARK  10 active torsions:
REMARK  status: ('A' for Active; 'I' for Inactive)
REMARK    1  A    between atoms: C_1  and  O_2
REMARK    2  A    between atoms: O_2  and  C_3
REMARK    3  A    between atoms: C_10  and  C_11
REMARK    4  A    between atoms: C_13  and  C_15
REMARK    5  A    between atoms: C_17  and  O_18
REMARK    6  A    between atoms: O_18  and  C_19
REMARK    7  A    between atoms: C_20  and  O_21
REMARK    8  A    between atoms: O_21  and  C_22
REMARK    9  A    between atoms: C_23  and  O_24
REMARK   10  A    between atoms: O_24  and  C_25
REMARK                            x       y       z     vdW  Elec       q    Type
REMARK                         _______ _______ _______ _____ _____    ______ ____
ROOT
ATOM      1  C   UNL     1      -1.601  12.751  21.183  0.00  0.00    +0.000 A 
ATOM      2  C   UNL     1      -0.897  12.095  22.203  0.00  0.00    +0.000 A 
ATOM      3  C   UNL     1      -0.130  10.945  21.930  0.00  0.00    +0.000 A 
ATOM      4  C   UNL     1      -0.069  10.463  20.629  0.00  0.00    +0.000 A 
ATOM      5  C   UNL     1      -0.758  11.139  19.621  0.00  0.00    +0.000 A 
ATOM      6  C   UNL     1      -1.520  12.267  19.881  0.00  0.00    +0.000 A 
ATOM      7  C   UNL     1      -0.617  10.475  18.303  0.00  0.00    +0.000 C 
ATOM      8  C   UNL     1       0.348   9.317  18.620  0.00  0.00    +0.000 C 
ATOM      9  C   UNL     1       1.635   9.439  17.805  0.00  0.00    +0.000 C 
ATOM     10  N   UNL     1       0.578   9.307  20.103  0.00  0.00    +0.000 N 
ATOM     11  C   UNL     1       1.291   8.393  20.898  0.00  0.00    +0.000 C 
ATOM     12  O   UNL     1       1.564   8.582  22.093  0.00  0.00    +0.000 OA
ENDROOT
BRANCH  11  13
ATOM     13  C   UNL     1       1.777   7.086  20.332  0.00  0.00    +0.000 A 
ATOM     14  C   UNL     1       2.865   7.092  19.451  0.00  0.00    +0.000 A 
ATOM     15  C   UNL     1       3.381   5.892  18.937  0.00  0.00    +0.000 A 
ATOM     16  C   UNL     1       2.768   4.658  19.259  0.00  0.00    +0.000 A 
ATOM     17  C   UNL     1       1.679   4.649  20.150  0.00  0.00    +0.000 A 
ATOM     18  C   UNL     1       1.262   5.854  20.731  0.00  0.00    +0.000 A 
BRANCH  15  19
ATOM     19  O   UNL     1       4.456   5.845  18.081  0.00  0.00    +0.000 OA
ATOM     20  C   UNL     1       4.547   6.892  17.116  0.00  0.00    +0.000 C 
ENDBRANCH  15  19
BRANCH  16  21
ATOM     21  O   UNL     1       3.295   3.553  18.628  0.00  0.00    +0.000 OA
ATOM     22  C   UNL     1       2.610   3.059  17.483  0.00  0.00    +0.000 C 
ENDBRANCH  16  21
BRANCH  17  23
ATOM     23  O   UNL     1       1.062   3.455  20.426  0.00  0.00    +0.000 OA
ATOM     24  C   UNL     1       1.494   2.716  21.562  0.00  0.00    +0.000 C 
ENDBRANCH  17  23
ENDBRANCH  11  13
BRANCH   1  26
ATOM     25  C   UNL     1      -2.337  14.558  22.543  0.00  0.00    +0.000 C 
ATOM     26  O   UNL     1      -2.390  13.859  21.310  0.00  0.00    +0.000 OA
ENDBRANCH   1  26
TORSDOF 5
ENDMDL
MODEL 8
REMARK VINA RESULT:      -6.7      2.335      7.933
REMARK  Name = 
REMARK  10 active torsions:
REMARK  status: ('A' for Active; 'I' for Inactive)
REMARK    1  A    between atoms: C_1  and  O_2
REMARK    2  A    between atoms: O_2  and  C_3
REMARK    3  A    between atoms: C_10  and  C_11
REMARK    4  A    between atoms: C_13  and  C_15
REMARK    5  A    between atoms: C_17  and  O_18
REMARK    6  A    between atoms: O_18  and  C_19
REMARK    7  A    between atoms: C_20  and  O_21
REMARK    8  A    between atoms: O_21  and  C_22
REMARK    9  A    between atoms: C_23  and  O_24
REMARK   10  A    between atoms: O_24  and  C_25
REMARK                            x       y       z     vdW  Elec       q    Type
REMARK                         _______ _______ _______ _____ _____    ______ ____
ROOT
ATOM      1  C   UNL     1       3.449   4.388  19.774  0.00  0.00    +0.000 A 
ATOM      2  C   UNL     1       2.509   4.650  20.781  0.00  0.00    +0.000 A 
ATOM      3  C   UNL     1       1.829   5.883  20.833  0.00  0.00    +0.000 A 
ATOM      4  C   UNL     1       2.092   6.845  19.868  0.00  0.00    +0.000 A 
ATOM      5  C   UNL     1       3.015   6.562  18.860  0.00  0.00    +0.000 A 
ATOM      6  C   UNL     1       3.694   5.355  18.803  0.00  0.00    +0.000 A 
ATOM      7  C   UNL     1       3.204   7.705  17.935  0.00  0.00    +0.000 C 
ATOM      8  C   UNL     1       2.184   8.730  18.466  0.00  0.00    +0.000 C 
ATOM      9  C   UNL     1       1.143   9.067  17.401  0.00  0.00    +0.000 C 
ATOM     10  N   UNL     1       1.592   8.172  19.727  0.00  0.00    +0.000 N 
ATOM     11  C   UNL     1       0.698   8.760  20.639  0.00  0.00    +0.000 C 
ATOM     12  O   UNL     1       0.135   8.139  21.553  0.00  0.00    +0.000 OA
ENDROOT
BRANCH  11  13
ATOM     13  C   UNL     1       0.361  10.225  20.562  0.00  0.00    +0.000 A 
ATOM     14  C   UNL     1      -0.858  10.612  19.992  0.00  0.00    +0.000 A 
ATOM     15  C   UNL     1      -1.233  11.963  19.943  0.00  0.00    +0.000 A 
ATOM     16  C   UNL     1      -0.352  12.963  20.419  0.00  0.00    +0.000 A 
ATOM     17  C   UNL     1       0.870  12.577  20.999  0.00  0.00    +0.000 A 
ATOM     18  C   UNL     1       1.161  11.213  21.132  0.00  0.00    +0.000 A 
BRANCH  15  19
ATOM     19  O   UNL     1      -2.425  12.391  19.408  0.00  0.00    +0.000 OA
ATOM     20  C   UNL     1      -2.936  11.636  18.309  0.00  0.00    +0.000 C 
ENDBRANCH  15  19
BRANCH  16  21
ATOM     21  O   UNL     1      -0.778  14.260  20.238  0.00  0.00    +0.000 OA
ATOM     22  C   UNL     1      -0.325  14.947  19.077  0.00  0.00    +0.000 C 
ENDBRANCH  16  21
BRANCH  17  23
ATOM     23  O   UNL     1       1.738  13.552  21.420  0.00  0.00    +0.000 OA
ATOM     24  C   UNL     1       2.914  13.789  20.655  0.00  0.00    +0.000 C 
ENDBRANCH  17  23
ENDBRANCH  11  13
BRANCH   1  26
ATOM     25  C   UNL     1       3.617   2.206  18.841  0.00  0.00    +0.000 C 
ATOM     26  O   UNL     1       4.188   3.250  19.615  0.00  0.00    +0.000 OA
ENDBRANCH   1  26
TORSDOF 5
ENDMDL
MODEL 9
REMARK VINA RESULT:      -6.6      1.785      3.038
REMARK  Name = 
REMARK  10 active torsions:
REMARK  status: ('A' for Active; 'I' for Inactive)
REMARK    1  A    between atoms: C_1  and  O_2
REMARK    2  A    between atoms: O_2  and  C_3
REMARK    3  A    between atoms: C_10  and  C_11
REMARK    4  A    between atoms: C_13  and  C_15
REMARK    5  A    between atoms: C_17  and  O_18
REMARK    6  A    between atoms: O_18  and  C_19
REMARK    7  A    between atoms: C_20  and  O_21
REMARK    8  A    between atoms: O_21  and  C_22
REMARK    9  A    between atoms: C_23  and  O_24
REMARK   10  A    between atoms: O_24  and  C_25
REMARK                            x       y       z     vdW  Elec       q    Type
REMARK                         _______ _______ _______ _____ _____    ______ ____
ROOT
ATOM      1  C   UNL     1       0.551  12.727  20.093  0.00  0.00    +0.000 A 
ATOM      2  C   UNL     1       0.932  12.346  18.800  0.00  0.00    +0.000 A 
ATOM      3  C   UNL     1       1.325  11.022  18.521  0.00  0.00    +0.000 A 
ATOM      4  C   UNL     1       1.326  10.084  19.545  0.00  0.00    +0.000 A 
ATOM      5  C   UNL     1       0.924  10.474  20.824  0.00  0.00    +0.000 A 
ATOM      6  C   UNL     1       0.542  11.776  21.108  0.00  0.00    +0.000 A 
ATOM      7  C   UNL     1       1.017   9.366  21.804  0.00  0.00    +0.000 C 
ATOM      8  C   UNL     1       1.459   8.183  20.921  0.00  0.00    +0.000 C 
ATOM      9  C   UNL     1       0.422   7.062  20.949  0.00  0.00    +0.000 C 
ATOM     10  N   UNL     1       1.726   8.716  19.543  0.00  0.00    +0.000 N 
ATOM     11  C   UNL     1       2.245   8.066  18.411  0.00  0.00    +0.000 C 
ATOM     12  O   UNL     1       2.255   8.560  17.273  0.00  0.00    +0.000 OA
ENDROOT
BRANCH  11  13
ATOM     13  C   UNL     1       2.842   6.688  18.512  0.00  0.00    +0.000 A 
ATOM     14  C   UNL     1       4.138   6.547  19.024  0.00  0.00    +0.000 A 
ATOM     15  C   UNL     1       4.716   5.278  19.181  0.00  0.00    +0.000 A 
ATOM     16  C   UNL     1       4.015   4.121  18.766  0.00  0.00    +0.000 A 
ATOM     17  C   UNL     1       2.710   4.259  18.258  0.00  0.00    +0.000 A 
ATOM     18  C   UNL     1       2.123   5.531  18.221  0.00  0.00    +0.000 A 
BRANCH  15  19
ATOM     19  O   UNL     1       5.977   5.088  19.692  0.00  0.00    +0.000 OA
ATOM     20  C   UNL     1       7.064   5.567  18.901  0.00  0.00    +0.000 C 
ENDBRANCH  15  19
BRANCH  16  21
ATOM     21  O   UNL     1       4.709   2.937  18.878  0.00  0.00    +0.000 OA
ATOM     22  C   UNL     1       4.426   2.112  20.002  0.00  0.00    +0.000 C 
ENDBRANCH  16  21
BRANCH  17  23
ATOM     23  O   UNL     1       2.050   3.139  17.819  0.00  0.00    +0.000 OA
ATOM     24  C   UNL     1       0.949   2.660  18.580  0.00  0.00    +0.000 C 
ENDBRANCH  17  23
ENDBRANCH  11  13
BRANCH   1  26
ATOM     25  C   UNL     1       0.701  14.450  21.728  0.00  0.00    +0.000 C 
ATOM     26  O   UNL     1       0.165  13.972  20.503  0.00  0.00    +0.000 OA
ENDBRANCH   1  26
TORSDOF 5
ENDMDL
