MODEL 1
REMARK VINA RESULT:      -7.5      0.000      0.000
REMARK  Name = 
REMARK  2 active torsions:
REMARK  status: ('A' for Active; 'I' for Inactive)
REMARK    1  A    between atoms: C_4  and  N_5
REMARK    2  A    between atoms: N_15  and  C_16
REMARK                            x       y       z     vdW  Elec       q    Type
REMARK                         _______ _______ _______ _____ _____    ______ ____
ROOT
ATOM      1  N   UNL     1      -1.253  12.347  21.852  0.00  0.00    +0.000 NA
ATOM      2  C   UNL     1      -2.561  11.959  22.419  0.00  0.00    +0.000 C 
ATOM      3  N   UNL     1      -3.608  12.941  22.215  0.00  0.00    +0.000 N 
ATOM      4  C   UNL     1      -4.769  13.082  22.931  0.00  0.00    +0.000 A 
ATOM      5  N   UNL     1      -5.228  12.325  23.924  0.00  0.00    +0.000 NA
ATOM      6  O   UNL     1      -6.482  12.854  24.229  0.00  0.00    +0.000 OA
ATOM      7  N   UNL     1      -6.802  13.966  23.444  0.00  0.00    +0.000 NA
ATOM      8  C   UNL     1      -5.775  14.104  22.608  0.00  0.00    +0.000 A 
ATOM      9  N   UNL     1      -5.650  14.929  21.488  0.00  0.00    +0.000 N 
ATOM     10  C   UNL     1      -6.816  15.507  20.772  0.00  0.00    +0.000 C 
ATOM     11  N   UNL     1      -7.420  14.782  19.610  0.00  0.00    +0.000 NA
ATOM     12  C   UNL     1      -7.068  13.383  19.900  0.00  0.00    +0.000 C 
ATOM     13  N   UNL     1      -5.645  13.143  19.976  0.00  0.00    +0.000 N 
ATOM     14  C   UNL     1      -4.985  12.233  19.229  0.00  0.00    +0.000 A 
ATOM     15  N   UNL     1      -5.476  11.298  18.425  0.00  0.00    +0.000 NA
ATOM     16  O   UNL     1      -4.362  10.658  17.896  0.00  0.00    +0.000 OA
ATOM     17  N   UNL     1      -3.173  11.201  18.381  0.00  0.00    +0.000 NA
ATOM     18  C   UNL     1      -3.552  12.167  19.221  0.00  0.00    +0.000 A 
ATOM     19  N   UNL     1      -2.765  12.994  19.976  0.00  0.00    +0.000 N 
ATOM     20  C   UNL     1      -1.466  12.532  20.413  0.00  0.00    +0.000 C 
ATOM     21  C   UNL     1      -3.441  13.768  21.028  0.00  0.00    +0.000 C 
ATOM     22  C   UNL     1      -4.836  14.272  20.480  0.00  0.00    +0.000 C 
ENDROOT
BRANCH   1  26
ATOM     23  C   UNL     1      -0.294   9.334  20.917  0.00  0.00    +0.000 C 
ATOM     24  C   UNL     1      -0.203   8.983  22.388  0.00  0.00    +0.000 C 
ATOM     25  C   UNL     1      -0.549  10.295  23.078  0.00  0.00    +0.000 C 
ATOM     26  C   UNL     1      -0.123  11.445  22.111  0.00  0.00    +0.000 C 
ATOM     27  C   UNL     1       0.385  10.692  20.867  0.00  0.00    +0.000 C 
ENDBRANCH   1  26
BRANCH  11  28
ATOM     28  C   UNL     1      -6.941  15.043  18.219  0.00  0.00    +0.000 C 
ATOM     29  C   UNL     1      -7.836  14.292  17.207  0.00  0.00    +0.000 C 
ATOM     30  C   UNL     1      -7.753  15.037  15.894  0.00  0.00    +0.000 C 
ATOM     31  C   UNL     1      -7.392  16.467  16.250  0.00  0.00    +0.000 C 
ATOM     32  C   UNL     1      -6.847  16.473  17.684  0.00  0.00    +0.000 C 
ENDBRANCH  11  28
TORSDOF 2
ENDMDL
MODEL 2
REMARK VINA RESULT:      -7.2      1.049      1.162
REMARK  Name = 
REMARK  2 active torsions:
REMARK  status: ('A' for Active; 'I' for Inactive)
REMARK    1  A    between atoms: C_4  and  N_5
REMARK    2  A    between atoms: N_15  and  C_16
REMARK                            x       y       z     vdW  Elec       q    Type
REMARK                         _______ _______ _______ _____ _____    ______ ____
ROOT
ATOM      1  N   UNL     1      -0.244  12.107  20.997  0.00  0.00    +0.000 NA
ATOM      2  C   UNL     1      -1.396  11.632  21.791  0.00  0.00    +0.000 C 
ATOM      3  N   UNL     1      -2.496  12.574  21.858  0.00  0.00    +0.000 N 
ATOM      4  C   UNL     1      -3.491  12.627  22.800  0.00  0.00    +0.000 A 
ATOM      5  N   UNL     1      -3.713  11.802  23.819  0.00  0.00    +0.000 NA
ATOM      6  O   UNL     1      -4.897  12.258  24.399  0.00  0.00    +0.000 OA
ATOM      7  N   UNL     1      -5.408  13.391  23.759  0.00  0.00    +0.000 NA
ATOM      8  C   UNL     1      -4.577  13.617  22.744  0.00  0.00    +0.000 A 
ATOM      9  N   UNL     1      -4.711  14.501  21.671  0.00  0.00    +0.000 N 
ATOM     10  C   UNL     1      -6.017  15.060  21.238  0.00  0.00    +0.000 C 
ATOM     11  N   UNL     1      -6.818  14.366  20.181  0.00  0.00    +0.000 NA
ATOM     12  C   UNL     1      -6.366  12.972  20.313  0.00  0.00    +0.000 C 
ATOM     13  N   UNL     1      -4.951  12.794  20.088  0.00  0.00    +0.000 N 
ATOM     14  C   UNL     1      -4.425  11.953  19.173  0.00  0.00    +0.000 A 
ATOM     15  N   UNL     1      -5.035  11.037  18.431  0.00  0.00    +0.000 NA
ATOM     16  O   UNL     1      -4.030  10.476  17.654  0.00  0.00    +0.000 OA
ATOM     17  N   UNL     1      -2.788  11.047  17.921  0.00  0.00    +0.000 NA
ATOM     18  C   UNL     1      -3.022  11.953  18.874  0.00  0.00    +0.000 A 
ATOM     19  N   UNL     1      -2.126  12.777  19.503  0.00  0.00    +0.000 N 
ATOM     20  C   UNL     1      -0.751  12.354  19.643  0.00  0.00    +0.000 C 
ATOM     21  C   UNL     1      -2.602  13.466  20.711  0.00  0.00    +0.000 C 
ATOM     22  C   UNL     1      -4.096  13.932  20.484  0.00  0.00    +0.000 C 
ENDROOT
BRANCH   1  26
ATOM     23  C   UNL     1       0.664   9.270  19.583  0.00  0.00    +0.000 C 
ATOM     24  C   UNL     1       1.002   8.768  20.972  0.00  0.00    +0.000 C 
ATOM     25  C   UNL     1       0.723   9.976  21.854  0.00  0.00    +0.000 C 
ATOM     26  C   UNL     1       0.946  11.245  20.972  0.00  0.00    +0.000 C 
ATOM     27  C   UNL     1       1.275  10.661  19.585  0.00  0.00    +0.000 C 
ENDBRANCH   1  26
BRANCH  11  28
ATOM     28  C   UNL     1      -6.641  14.717  18.739  0.00  0.00    +0.000 C 
ATOM     29  C   UNL     1      -7.714  14.001  17.889  0.00  0.00    +0.000 C 
ATOM     30  C   UNL     1      -7.915  14.820  16.635  0.00  0.00    +0.000 C 
ATOM     31  C   UNL     1      -7.509  16.237  16.994  0.00  0.00    +0.000 C 
ATOM     32  C   UNL     1      -6.680  16.177  18.283  0.00  0.00    +0.000 C 
ENDBRANCH  11  28
TORSDOF 2
ENDMDL
MODEL 3
REMARK VINA RESULT:      -7.0      2.727      3.629
REMARK  Name = 
REMARK  2 active torsions:
REMARK  status: ('A' for Active; 'I' for Inactive)
REMARK    1  A    between atoms: C_4  and  N_5
REMARK    2  A    between atoms: N_15  and  C_16
REMARK                            x       y       z     vdW  Elec       q    Type
REMARK                         _______ _______ _______ _____ _____    ______ ____
ROOT
ATOM      1  N   UNL     1      -2.500  15.182  24.168  0.00  0.00    +0.000 NA
ATOM      2  C   UNL     1      -3.189  13.877  24.249  0.00  0.00    +0.000 C 
ATOM      3  N   UNL     1      -4.490  13.855  23.610  0.00  0.00    +0.000 N 
ATOM      4  C   UNL     1      -5.519  12.979  23.845  0.00  0.00    +0.000 A 
ATOM      5  N   UNL     1      -5.541  11.925  24.655  0.00  0.00    +0.000 NA
ATOM      6  O   UNL     1      -6.790  11.338  24.446  0.00  0.00    +0.000 OA
ATOM      7  N   UNL     1      -7.567  12.042  23.521  0.00  0.00    +0.000 NA
ATOM      8  C   UNL     1      -6.789  13.040  23.107  0.00  0.00    +0.000 A 
ATOM      9  N   UNL     1      -6.984  13.934  22.052  0.00  0.00    +0.000 N 
ATOM     10  C   UNL     1      -7.910  13.668  20.922  0.00  0.00    +0.000 C 
ATOM     11  N   UNL     1      -7.408  13.010  19.676  0.00  0.00    +0.000 NA
ATOM     12  C   UNL     1      -6.255  12.243  20.173  0.00  0.00    +0.000 C 
ATOM     13  N   UNL     1      -5.227  13.060  20.776  0.00  0.00    +0.000 N 
ATOM     14  C   UNL     1      -3.935  13.069  20.387  0.00  0.00    +0.000 A 
ATOM     15  N   UNL     1      -3.315  12.269  19.528  0.00  0.00    +0.000 NA
ATOM     16  O   UNL     1      -2.006  12.732  19.487  0.00  0.00    +0.000 OA
ATOM     17  N   UNL     1      -1.816  13.825  20.329  0.00  0.00    +0.000 NA
ATOM     18  C   UNL     1      -3.004  14.030  20.903  0.00  0.00    +0.000 A 
ATOM     19  N   UNL     1      -3.348  14.977  21.831  0.00  0.00    +0.000 N 
ATOM     20  C   UNL     1      -2.341  15.476  22.740  0.00  0.00    +0.000 C 
ATOM     21  C   UNL     1      -4.641  14.795  22.508  0.00  0.00    +0.000 C 
ATOM     22  C   UNL     1      -5.704  14.281  21.457  0.00  0.00    +0.000 C 
ENDROOT
BRANCH   1  26
ATOM     23  C   UNL     1      -1.054  17.346  26.192  0.00  0.00    +0.000 C 
ATOM     24  C   UNL     1       0.112  17.364  25.225  0.00  0.00    +0.000 C 
ATOM     25  C   UNL     1      -0.294  16.340  24.174  0.00  0.00    +0.000 C 
ATOM     26  C   UNL     1      -1.223  15.304  24.884  0.00  0.00    +0.000 C 
ATOM     27  C   UNL     1      -1.349  15.861  26.314  0.00  0.00    +0.000 C 
ENDBRANCH   1  26
BRANCH  11  28
ATOM     28  C   UNL     1      -6.893  13.829  18.538  0.00  0.00    +0.000 C 
ATOM     29  C   UNL     1      -7.188  13.114  17.200  0.00  0.00    +0.000 C 
ATOM     30  C   UNL     1      -7.251  14.176  16.127  0.00  0.00    +0.000 C 
ATOM     31  C   UNL     1      -7.631  15.462  16.836  0.00  0.00    +0.000 C 
ATOM     32  C   UNL     1      -7.372  15.268  18.335  0.00  0.00    +0.000 C 
ENDBRANCH  11  28
TORSDOF 2
ENDMDL
MODEL 4
REMARK VINA RESULT:      -6.8      3.580      7.408
REMARK  Name = 
REMARK  2 active torsions:
REMARK  status: ('A' for Active; 'I' for Inactive)
REMARK    1  A    between atoms: C_4  and  N_5
REMARK    2  A    between atoms: N_15  and  C_16
REMARK                            x       y       z     vdW  Elec       q    Type
REMARK                         _______ _______ _______ _____ _____    ______ ____
ROOT
ATOM      1  N   UNL     1      -4.050  12.971  22.588  0.00  0.00    +0.000 NA
ATOM      2  C   UNL     1      -2.865  12.346  23.213  0.00  0.00    +0.000 C 
ATOM      3  N   UNL     1      -1.787  12.066  22.285  0.00  0.00    +0.000 N 
ATOM      4  C   UNL     1      -0.767  11.163  22.441  0.00  0.00    +0.000 A 
ATOM      5  N   UNL     1      -0.498  10.390  23.489  0.00  0.00    +0.000 NA
ATOM      6  O   UNL     1       0.690   9.737  23.158  0.00  0.00    +0.000 OA
ATOM      7  N   UNL     1       1.156  10.081  21.886  0.00  0.00    +0.000 NA
ATOM      8  C   UNL     1       0.292  10.989  21.437  0.00  0.00    +0.000 A 
ATOM      9  N   UNL     1       0.375  11.807  20.307  0.00  0.00    +0.000 N 
ATOM     10  C   UNL     1       1.655  12.113  19.619  0.00  0.00    +0.000 C 
ATOM     11  N   UNL     1       2.443  13.326  19.999  0.00  0.00    +0.000 NA
ATOM     12  C   UNL     1       2.029  13.541  21.395  0.00  0.00    +0.000 C 
ATOM     13  N   UNL     1       0.612  13.774  21.553  0.00  0.00    +0.000 N 
ATOM     14  C   UNL     1       0.081  14.860  22.153  0.00  0.00    +0.000 A 
ATOM     15  N   UNL     1       0.693  15.822  22.833  0.00  0.00    +0.000 NA
ATOM     16  O   UNL     1      -0.320  16.694  23.211  0.00  0.00    +0.000 OA
ATOM     17  N   UNL     1      -1.568  16.266  22.763  0.00  0.00    +0.000 NA
ATOM     18  C   UNL     1      -1.329  15.121  22.119  0.00  0.00    +0.000 A 
ATOM     19  N   UNL     1      -2.226  14.286  21.507  0.00  0.00    +0.000 N 
ATOM     20  C   UNL     1      -3.587  14.229  21.994  0.00  0.00    +0.000 C 
ATOM     21  C   UNL     1      -1.734  12.953  21.130  0.00  0.00    +0.000 C 
ATOM     22  C   UNL     1      -0.259  13.087  20.577  0.00  0.00    +0.000 C 
ENDROOT
BRANCH   1  26
ATOM     23  C   UNL     1      -7.171  13.972  22.232  0.00  0.00    +0.000 C 
ATOM     24  C   UNL     1      -6.882  15.018  23.289  0.00  0.00    +0.000 C 
ATOM     25  C   UNL     1      -5.446  14.714  23.694  0.00  0.00    +0.000 C 
ATOM     26  C   UNL     1      -5.219  13.188  23.451  0.00  0.00    +0.000 C 
ATOM     27  C   UNL     1      -6.553  12.723  22.837  0.00  0.00    +0.000 C 
ENDBRANCH   1  26
BRANCH  11  28
ATOM     28  C   UNL     1       2.218  14.629  19.302  0.00  0.00    +0.000 C 
ATOM     29  C   UNL     1       3.035  15.742  19.995  0.00  0.00    +0.000 C 
ATOM     30  C   UNL     1       3.294  16.818  18.964  0.00  0.00    +0.000 C 
ATOM     31  C   UNL     1       3.231  16.125  17.616  0.00  0.00    +0.000 C 
ATOM     32  C   UNL     1       2.525  14.777  17.811  0.00  0.00    +0.000 C 
ENDBRANCH  11  28
TORSDOF 2
ENDMDL
MODEL 5
REMARK VINA RESULT:      -6.7      3.172      6.157
REMARK  Name = 
REMARK  2 active torsions:
REMARK  status: ('A' for Active; 'I' for Inactive)
REMARK    1  A    between atoms: C_4  and  N_5
REMARK    2  A    between atoms: N_15  and  C_16
REMARK                            x       y       z     vdW  Elec       q    Type
REMARK                         _______ _______ _______ _____ _____    ______ ____
ROOT
ATOM      1  N   UNL     1      -3.300  11.812  18.443  0.00  0.00    +0.000 NA
ATOM      2  C   UNL     1      -2.199  11.516  19.384  0.00  0.00    +0.000 C 
ATOM      3  N   UNL     1      -1.611  12.692  19.994  0.00  0.00    +0.000 N 
ATOM      4  C   UNL     1      -0.368  12.802  20.562  0.00  0.00    +0.000 A 
ATOM      5  N   UNL     1       0.550  11.856  20.739  0.00  0.00    +0.000 NA
ATOM      6  O   UNL     1       1.581  12.483  21.440  0.00  0.00    +0.000 OA
ATOM      7  N   UNL     1       1.323  13.835  21.681  0.00  0.00    +0.000 NA
ATOM      8  C   UNL     1       0.108  14.048  21.181  0.00  0.00    +0.000 A 
ATOM      9  N   UNL     1      -0.719  15.166  21.312  0.00  0.00    +0.000 N 
ATOM     10  C   UNL     1      -0.563  16.169  22.397  0.00  0.00    +0.000 C 
ATOM     11  N   UNL     1      -1.322  16.017  23.677  0.00  0.00    +0.000 NA
ATOM     12  C   UNL     1      -1.542  14.564  23.738  0.00  0.00    +0.000 C 
ATOM     13  N   UNL     1      -2.298  14.040  22.624  0.00  0.00    +0.000 N 
ATOM     14  C   UNL     1      -3.439  13.331  22.744  0.00  0.00    +0.000 A 
ATOM     15  N   UNL     1      -4.008  12.842  23.839  0.00  0.00    +0.000 NA
ATOM     16  O   UNL     1      -5.167  12.218  23.395  0.00  0.00    +0.000 OA
ATOM     17  N   UNL     1      -5.313  12.320  22.013  0.00  0.00    +0.000 NA
ATOM     18  C   UNL     1      -4.237  12.995  21.600  0.00  0.00    +0.000 A 
ATOM     19  N   UNL     1      -3.890  13.343  20.322  0.00  0.00    +0.000 N 
ATOM     20  C   UNL     1      -4.326  12.517  19.219  0.00  0.00    +0.000 C 
ATOM     21  C   UNL     1      -2.516  13.827  20.122  0.00  0.00    +0.000 C 
ATOM     22  C   UNL     1      -2.111  14.749  21.341  0.00  0.00    +0.000 C 
ENDROOT
BRANCH   1  26
ATOM     23  C   UNL     1      -2.417   9.844  15.949  0.00  0.00    +0.000 C 
ATOM     24  C   UNL     1      -3.720  10.228  15.278  0.00  0.00    +0.000 C 
ATOM     25  C   UNL     1      -4.388  11.128  16.309  0.00  0.00    +0.000 C 
ATOM     26  C   UNL     1      -3.872  10.674  17.711  0.00  0.00    +0.000 C 
ATOM     27  C   UNL     1      -2.860   9.564  17.376  0.00  0.00    +0.000 C 
ENDBRANCH   1  26
BRANCH  11  28
ATOM     28  C   UNL     1      -2.671  16.640  23.840  0.00  0.00    +0.000 C 
ATOM     29  C   UNL     1      -3.230  16.322  25.245  0.00  0.00    +0.000 C 
ATOM     30  C   UNL     1      -4.209  17.418  25.599  0.00  0.00    +0.000 C 
ATOM     31  C   UNL     1      -3.783  18.631  24.792  0.00  0.00    +0.000 C 
ATOM     32  C   UNL     1      -2.857  18.149  23.669  0.00  0.00    +0.000 C 
ENDBRANCH  11  28
TORSDOF 2
ENDMDL
MODEL 6
REMARK VINA RESULT:      -6.7      2.797      5.464
REMARK  Name = 
REMARK  2 active torsions:
REMARK  status: ('A' for Active; 'I' for Inactive)
REMARK    1  A    between atoms: C_4  and  N_5
REMARK    2  A    between atoms: N_15  and  C_16
REMARK                            x       y       z     vdW  Elec       q    Type
REMARK                         _______ _______ _______ _____ _____    ______ ____
ROOT
ATOM      1  N   UNL     1      -3.900  11.943  18.593  0.00  0.00    +0.000 NA
ATOM      2  C   UNL     1      -2.938  11.726  19.693  0.00  0.00    +0.000 C 
ATOM      3  N   UNL     1      -2.596  12.930  20.424  0.00  0.00    +0.000 N 
ATOM      4  C   UNL     1      -1.481  13.150  21.192  0.00  0.00    +0.000 A 
ATOM      5  N   UNL     1      -0.501  12.304  21.492  0.00  0.00    +0.000 NA
ATOM      6  O   UNL     1       0.326  13.007  22.369  0.00  0.00    +0.000 OA
ATOM      7  N   UNL     1      -0.123  14.310  22.602  0.00  0.00    +0.000 NA
ATOM      8  C   UNL     1      -1.258  14.411  21.914  0.00  0.00    +0.000 A 
ATOM      9  N   UNL     1      -2.220  15.424  21.938  0.00  0.00    +0.000 N 
ATOM     10  C   UNL     1      -2.357  16.387  23.061  0.00  0.00    +0.000 C 
ATOM     11  N   UNL     1      -3.289  16.095  24.194  0.00  0.00    +0.000 NA
ATOM     12  C   UNL     1      -3.346  14.625  24.178  0.00  0.00    +0.000 C 
ATOM     13  N   UNL     1      -3.847  14.073  22.941  0.00  0.00    +0.000 N 
ATOM     14  C   UNL     1      -4.903  13.238  22.852  0.00  0.00    +0.000 A 
ATOM     15  N   UNL     1      -5.580  12.640  23.825  0.00  0.00    +0.000 NA
ATOM     16  O   UNL     1      -6.572  11.913  23.179  0.00  0.00    +0.000 OA
ATOM     17  N   UNL     1      -6.505  12.062  21.795  0.00  0.00    +0.000 NA
ATOM     18  C   UNL     1      -5.462  12.869  21.584  0.00  0.00    +0.000 A 
ATOM     19  N   UNL     1      -4.958  13.312  20.390  0.00  0.00    +0.000 N 
ATOM     20  C   UNL     1      -5.112  12.494  19.208  0.00  0.00    +0.000 C 
ATOM     21  C   UNL     1      -3.635  13.952  20.432  0.00  0.00    +0.000 C 
ATOM     22  C   UNL     1      -3.540  14.856  21.726  0.00  0.00    +0.000 C 
ENDROOT
BRANCH   1  26
ATOM     23  C   UNL     1      -2.261   9.876  16.615  0.00  0.00    +0.000 C 
ATOM     24  C   UNL     1      -3.249  10.246  15.527  0.00  0.00    +0.000 C 
ATOM     25  C   UNL     1      -4.209  11.189  16.238  0.00  0.00    +0.000 C 
ATOM     26  C   UNL     1      -4.213  10.783  17.746  0.00  0.00    +0.000 C 
ATOM     27  C   UNL     1      -3.169   9.653  17.812  0.00  0.00    +0.000 C 
ENDBRANCH   1  26
BRANCH  11  28
ATOM     28  C   UNL     1      -4.709  16.558  24.150  0.00  0.00    +0.000 C 
ATOM     29  C   UNL     1      -4.954  17.606  25.258  0.00  0.00    +0.000 C 
ATOM     30  C   UNL     1      -6.108  18.473  24.810  0.00  0.00    +0.000 C 
ATOM     31  C   UNL     1      -6.121  18.396  23.295  0.00  0.00    +0.000 C 
ATOM     32  C   UNL     1      -5.285  17.181  22.877  0.00  0.00    +0.000 C 
ENDBRANCH  11  28
TORSDOF 2
ENDMDL
MODEL 7
REMARK VINA RESULT:      -6.7      3.508      5.921
REMARK  Name = 
REMARK  2 active torsions:
REMARK  status: ('A' for Active; 'I' for Inactive)
REMARK    1  A    between atoms: C_4  and  N_5
REMARK    2  A    between atoms: N_15  and  C_16
REMARK                            x       y       z     vdW  Elec       q    Type
REMARK                         _______ _______ _______ _____ _____    ______ ____
ROOT
ATOM      1  N   UNL     1      -2.086  12.203  19.410  0.00  0.00    +0.000 NA
ATOM      2  C   UNL     1      -3.439  12.489  19.932  0.00  0.00    +0.000 C 
ATOM      3  N   UNL     1      -3.488  12.695  21.366  0.00  0.00    +0.000 N 
ATOM      4  C   UNL     1      -4.578  12.575  22.188  0.00  0.00    +0.000 A 
ATOM      5  N   UNL     1      -5.839  12.306  21.860  0.00  0.00    +0.000 NA
ATOM      6  O   UNL     1      -6.548  12.389  23.058  0.00  0.00    +0.000 OA
ATOM      7  N   UNL     1      -5.726  12.685  24.150  0.00  0.00    +0.000 NA
ATOM      8  C   UNL     1      -4.509  12.841  23.632  0.00  0.00    +0.000 A 
ATOM      9  N   UNL     1      -3.347  13.328  24.235  0.00  0.00    +0.000 N 
ATOM     10  C   UNL     1      -3.359  14.164  25.463  0.00  0.00    +0.000 C 
ATOM     11  N   UNL     1      -3.390  15.656  25.357  0.00  0.00    +0.000 NA
ATOM     12  C   UNL     1      -4.032  15.862  24.049  0.00  0.00    +0.000 C 
ATOM     13  N   UNL     1      -3.307  15.280  22.944  0.00  0.00    +0.000 N 
ATOM     14  C   UNL     1      -2.889  15.968  21.861  0.00  0.00    +0.000 A 
ATOM     15  N   UNL     1      -3.169  17.215  21.504  0.00  0.00    +0.000 NA
ATOM     16  O   UNL     1      -2.466  17.417  20.323  0.00  0.00    +0.000 OA
ATOM     17  N   UNL     1      -1.749  16.284  19.945  0.00  0.00    +0.000 NA
ATOM     18  C   UNL     1      -2.020  15.375  20.886  0.00  0.00    +0.000 A 
ATOM     19  N   UNL     1      -1.578  14.082  20.971  0.00  0.00    +0.000 N 
ATOM     20  C   UNL     1      -1.257  13.361  19.759  0.00  0.00    +0.000 C 
ATOM     21  C   UNL     1      -2.257  13.217  21.946  0.00  0.00    +0.000 C 
ATOM     22  C   UNL     1      -2.550  14.050  23.257  0.00  0.00    +0.000 C 
ENDROOT
BRANCH   1  26
ATOM     23  C   UNL     1      -3.322   9.962  17.331  0.00  0.00    +0.000 C 
ATOM     24  C   UNL     1      -1.893   9.630  16.952  0.00  0.00    +0.000 C 
ATOM     25  C   UNL     1      -1.079  10.626  17.765  0.00  0.00    +0.000 C 
ATOM     26  C   UNL     1      -1.980  11.883  17.980  0.00  0.00    +0.000 C 
ATOM     27  C   UNL     1      -3.313  11.481  17.321  0.00  0.00    +0.000 C 
ENDBRANCH   1  26
BRANCH  11  28
ATOM     28  C   UNL     1      -2.119  16.442  25.314  0.00  0.00    +0.000 C 
ATOM     29  C   UNL     1      -2.433  17.952  25.416  0.00  0.00    +0.000 C 
ATOM     30  C   UNL     1      -1.209  18.627  25.992  0.00  0.00    +0.000 C 
ATOM     31  C   UNL     1      -0.483  17.561  26.790  0.00  0.00    +0.000 C 
ATOM     32  C   UNL     1      -1.015  16.193  26.344  0.00  0.00    +0.000 C 
ENDBRANCH  11  28
TORSDOF 2
ENDMDL
MODEL 8
REMARK VINA RESULT:      -6.6      4.176      5.960
REMARK  Name = 
REMARK  2 active torsions:
REMARK  status: ('A' for Active; 'I' for Inactive)
REMARK    1  A    between atoms: C_4  and  N_5
REMARK    2  A    between atoms: N_15  and  C_16
REMARK                            x       y       z     vdW  Elec       q    Type
REMARK                         _______ _______ _______ _____ _____    ______ ____
ROOT
ATOM      1  N   UNL     1       2.547  14.872  20.430  0.00  0.00    +0.000 NA
ATOM      2  C   UNL     1       1.902  13.867  21.301  0.00  0.00    +0.000 C 
ATOM      3  N   UNL     1       0.510  13.616  20.983  0.00  0.00    +0.000 N 
ATOM      4  C   UNL     1      -0.449  13.083  21.806  0.00  0.00    +0.000 A 
ATOM      5  N   UNL     1      -0.314  12.621  23.046  0.00  0.00    +0.000 NA
ATOM      6  O   UNL     1      -1.571  12.116  23.380  0.00  0.00    +0.000 OA
ATOM      7  N   UNL     1      -2.508  12.286  22.356  0.00  0.00    +0.000 NA
ATOM      8  C   UNL     1      -1.829  12.848  21.358  0.00  0.00    +0.000 A 
ATOM      9  N   UNL     1      -2.218  13.064  20.034  0.00  0.00    +0.000 N 
ATOM     10  C   UNL     1      -3.324  12.317  19.381  0.00  0.00    +0.000 C 
ATOM     11  N   UNL     1      -3.038  11.062  18.619  0.00  0.00    +0.000 NA
ATOM     12  C   UNL     1      -1.804  10.583  19.261  0.00  0.00    +0.000 C 
ATOM     13  N   UNL     1      -0.699  11.508  19.167  0.00  0.00    +0.000 N 
ATOM     14  C   UNL     1       0.505  11.206  18.637  0.00  0.00    +0.000 A 
ATOM     15  N   UNL     1       0.977  10.026  18.255  0.00  0.00    +0.000 NA
ATOM     16  O   UNL     1       2.252  10.289  17.770  0.00  0.00    +0.000 OA
ATOM     17  N   UNL     1       2.570  11.643  17.856  0.00  0.00    +0.000 NA
ATOM     18  C   UNL     1       1.498  12.216  18.409  0.00  0.00    +0.000 A 
ATOM     19  N   UNL     1       1.307  13.534  18.729  0.00  0.00    +0.000 N 
ATOM     20  C   UNL     1       2.450  14.354  19.061  0.00  0.00    +0.000 C 
ATOM     21  C   UNL     1       0.155  13.842  19.589  0.00  0.00    +0.000 C 
ATOM     22  C   UNL     1      -1.068  12.939  19.155  0.00  0.00    +0.000 C 
ENDROOT
BRANCH   1  26
ATOM     23  C   UNL     1       4.423  17.579  20.273  0.00  0.00    +0.000 C 
ATOM     24  C   UNL     1       5.417  16.758  19.477  0.00  0.00    +0.000 C 
ATOM     25  C   UNL     1       4.789  15.371  19.464  0.00  0.00    +0.000 C 
ATOM     26  C   UNL     1       3.928  15.249  20.761  0.00  0.00    +0.000 C 
ATOM     27  C   UNL     1       4.066  16.638  21.411  0.00  0.00    +0.000 C 
ENDBRANCH   1  26
BRANCH  11  28
ATOM     28  C   UNL     1      -2.741  11.112  17.155  0.00  0.00    +0.000 C 
ATOM     29  C   UNL     1      -2.254   9.728  16.670  0.00  0.00    +0.000 C 
ATOM     30  C   UNL     1      -2.571   9.631  15.195  0.00  0.00    +0.000 C 
ATOM     31  C   UNL     1      -3.735  10.574  14.957  0.00  0.00    +0.000 C 
ATOM     32  C   UNL     1      -3.823  11.527  16.156  0.00  0.00    +0.000 C 
ENDBRANCH  11  28
TORSDOF 2
ENDMDL
MODEL 9
REMARK VINA RESULT:      -6.5      2.958      6.769
REMARK  Name = 
REMARK  2 active torsions:
REMARK  status: ('A' for Active; 'I' for Inactive)
REMARK    1  A    between atoms: C_4  and  N_5
REMARK    2  A    between atoms: N_15  and  C_16
REMARK                            x       y       z     vdW  Elec       q    Type
REMARK                         _______ _______ _______ _____ _____    ______ ____
ROOT
ATOM      1  N   UNL     1      -5.571  12.567  19.338  0.00  0.00    +0.000 NA
ATOM      2  C   UNL     1      -4.290  11.872  19.579  0.00  0.00    +0.000 C 
ATOM      3  N   UNL     1      -3.199  12.754  19.942  0.00  0.00    +0.000 N 
ATOM      4  C   UNL     1      -1.855  12.504  19.835  0.00  0.00    +0.000 A 
ATOM      5  N   UNL     1      -1.248  11.390  19.436  0.00  0.00    +0.000 NA
ATOM      6  O   UNL     1       0.115  11.645  19.602  0.00  0.00    +0.000 OA
ATOM      7  N   UNL     1       0.366  12.934  20.081  0.00  0.00    +0.000 NA
ATOM      8  C   UNL     1      -0.836  13.472  20.268  0.00  0.00    +0.000 A 
ATOM      9  N   UNL     1      -1.182  14.666  20.907  0.00  0.00    +0.000 N 
ATOM     10  C   UNL     1      -0.291  15.356  21.874  0.00  0.00    +0.000 C 
ATOM     11  N   UNL     1      -0.401  15.066  23.338  0.00  0.00    +0.000 NA
ATOM     12  C   UNL     1      -0.950  13.701  23.344  0.00  0.00    +0.000 C 
ATOM     13  N   UNL     1      -2.236  13.587  22.697  0.00  0.00    +0.000 N 
ATOM     14  C   UNL     1      -3.344  13.091  23.286  0.00  0.00    +0.000 A 
ATOM     15  N   UNL     1      -3.466  12.484  24.460  0.00  0.00    +0.000 NA
ATOM     16  O   UNL     1      -4.820  12.199  24.578  0.00  0.00    +0.000 OA
ATOM     17  N   UNL     1      -5.540  12.630  23.466  0.00  0.00    +0.000 NA
ATOM     18  C   UNL     1      -4.629  13.170  22.653  0.00  0.00    +0.000 A 
ATOM     19  N   UNL     1      -4.817  13.724  21.415  0.00  0.00    +0.000 N 
ATOM     20  C   UNL     1      -5.906  13.258  20.587  0.00  0.00    +0.000 C 
ATOM     21  C   UNL     1      -3.607  13.978  20.618  0.00  0.00    +0.000 C 
ATOM     22  C   UNL     1      -2.466  14.516  21.571  0.00  0.00    +0.000 C 
ENDROOT
BRANCH   1  26
ATOM     23  C   UNL     1      -7.478  10.155  20.529  0.00  0.00    +0.000 C 
ATOM     24  C   UNL     1      -7.083   9.339  19.315  0.00  0.00    +0.000 C 
ATOM     25  C   UNL     1      -6.210  10.301  18.521  0.00  0.00    +0.000 C 
ATOM     26  C   UNL     1      -6.694  11.745  18.865  0.00  0.00    +0.000 C 
ATOM     27  C   UNL     1      -7.793  11.510  19.919  0.00  0.00    +0.000 C 
ENDBRANCH   1  26
BRANCH  11  28
ATOM     28  C   UNL     1      -1.308  15.875  24.207  0.00  0.00    +0.000 C 
ATOM     29  C   UNL     1      -0.932  15.671  25.692  0.00  0.00    +0.000 C 
ATOM     30  C   UNL     1      -1.386  16.901  26.444  0.00  0.00    +0.000 C 
ATOM     31  C   UNL     1      -1.420  18.023  25.423  0.00  0.00    +0.000 C 
ATOM     32  C   UNL     1      -1.413  17.390  24.026  0.00  0.00    +0.000 C 
ENDBRANCH  11  28
TORSDOF 2
ENDMDL
