MODEL 1
REMARK VINA RESULT:      -8.1      0.000      0.000
REMARK  Name = 
REMARK  12 active torsions:
REMARK  status: ('A' for Active; 'I' for Inactive)
REMARK    1  A    between atoms: C_1  and  O_2
REMARK    2  A    between atoms: O_2  and  C_3
REMARK    3  A    between atoms: C_6  and  C_7
REMARK    4  A    between atoms: C_7  and  C_8
REMARK    5  A    between atoms: C_8  and  C_9
REMARK    6  A    between atoms: C_8  and  C_10
REMARK    7  A    between atoms: C_8  and  N_11
REMARK    8  A    between atoms: N_11  and  C_12
REMARK    9  A    between atoms: C_12  and  C_13
REMARK   10  A    between atoms: C_13  and  O_14
REMARK   11  A    between atoms: C_13  and  C_15
REMARK   12  A    between atoms: C_17  and  O_18
REMARK                            x       y       z     vdW  Elec       q    Type
REMARK                         _______ _______ _______ _____ _____    ______ ____
ROOT
ATOM      1  C   UNL     1       4.008   2.850  17.620  0.00  0.00    +0.000 C 
ENDROOT
BRANCH   1   2
ATOM      2  C   UNL     1       5.271   3.712  17.597  0.00  0.00    +0.000 A 
ATOM      3  C   UNL     1       5.750   4.220  18.822  0.00  0.00    +0.000 A 
ATOM      4  C   UNL     1       6.820   5.111  18.845  0.00  0.00    +0.000 A 
ATOM      5  C   UNL     1       7.454   5.494  17.671  0.00  0.00    +0.000 A 
ATOM      6  C   UNL     1       6.982   5.018  16.454  0.00  0.00    +0.000 A 
ATOM      7  C   UNL     1       5.886   4.144  16.404  0.00  0.00    +0.000 A 
ATOM      8  O   UNL     1       5.337   3.699  15.231  0.00  0.00    +0.000 OA
ATOM      9  C   UNL     1       5.955   4.141  14.032  0.00  0.00    +0.000 C 
ATOM     10  C   UNL     1       7.166   5.061  14.048  0.00  0.00    +0.000 C 
ATOM     11  O   UNL     1       7.726   5.447  13.026  0.00  0.00    +0.000 OA
ATOM     12  N   UNL     1       7.606   5.441  15.286  0.00  0.00    +0.000 N 
ATOM     13  H   UNL     1       8.401   6.066  15.313  0.00  0.00    +0.000 HD
BRANCH   4  14
ATOM     14  O   UNL     1       7.255   5.669  20.011  0.00  0.00    +0.000 OA
ATOM     15  H   UNL     1       7.347   6.628  19.890  0.00  0.00    +0.000 HD
ENDBRANCH   4  14
ENDBRANCH   1   2
BRANCH   1  16
ATOM     16  O   UNL     1       2.882   3.488  17.019  0.00  0.00    +0.000 OA
ATOM     17  H   UNL     1       2.193   3.537  17.708  0.00  0.00    +0.000 HD
ENDBRANCH   1  16
BRANCH   1  18
ATOM     18  C   UNL     1       3.700   2.524  19.101  0.00  0.00    +0.000 C 
BRANCH  18  19
ATOM     19  N   UNL     1       2.269   2.350  19.425  0.00  0.00    +0.000 NA
ATOM     20  H   UNL     1       1.742   2.386  18.550  0.00  0.00    +0.000 HD
BRANCH  19  21
ATOM     21  C   UNL     1       1.748   3.362  20.396  0.00  0.00    +0.000 C 
ATOM     22  C   UNL     1       1.494   2.683  21.759  0.00  0.00    +0.000 C 
ATOM     23  C   UNL     1       0.443   3.943  19.810  0.00  0.00    +0.000 C 
BRANCH  21  24
ATOM     24  C   UNL     1       2.814   4.506  20.553  0.00  0.00    +0.000 C 
BRANCH  24  28
ATOM     25  C   UNL     1       1.843   8.445  18.984  0.00  0.00    +0.000 A 
ATOM     26  C   UNL     1       2.482   7.501  18.181  0.00  0.00    +0.000 A 
ATOM     27  C   UNL     1       2.758   6.219  18.669  0.00  0.00    +0.000 A 
ATOM     28  C   UNL     1       2.429   5.868  19.987  0.00  0.00    +0.000 A 
ATOM     29  C   UNL     1       1.778   6.821  20.782  0.00  0.00    +0.000 A 
ATOM     30  C   UNL     1       1.495   8.103  20.289  0.00  0.00    +0.000 A 
BRANCH  25  32
ATOM     31  C   UNL     1       0.562  10.431  18.926  0.00  0.00    +0.000 C 
ATOM     32  O   UNL     1       1.648   9.672  18.407  0.00  0.00    +0.000 OA
ENDBRANCH  25  32
ENDBRANCH  24  28
ENDBRANCH  21  24
ENDBRANCH  19  21
ENDBRANCH  18  19
ENDBRANCH   1  18
TORSDOF 9
ENDMDL
MODEL 2
REMARK VINA RESULT:      -7.9      0.444      1.010
REMARK  Name = 
REMARK  12 active torsions:
REMARK  status: ('A' for Active; 'I' for Inactive)
REMARK    1  A    between atoms: C_1  and  O_2
REMARK    2  A    between atoms: O_2  and  C_3
REMARK    3  A    between atoms: C_6  and  C_7
REMARK    4  A    between atoms: C_7  and  C_8
REMARK    5  A    between atoms: C_8  and  C_9
REMARK    6  A    between atoms: C_8  and  C_10
REMARK    7  A    between atoms: C_8  and  N_11
REMARK    8  A    between atoms: N_11  and  C_12
REMARK    9  A    between atoms: C_12  and  C_13
REMARK   10  A    between atoms: C_13  and  O_14
REMARK   11  A    between atoms: C_13  and  C_15
REMARK   12  A    between atoms: C_17  and  O_18
REMARK                            x       y       z     vdW  Elec       q    Type
REMARK                         _______ _______ _______ _____ _____    ______ ____
ROOT
ATOM      1  C   UNL     1       3.886   2.935  17.433  0.00  0.00    +0.000 C 
ENDROOT
BRANCH   1   2
ATOM      2  C   UNL     1       5.177   3.755  17.462  0.00  0.00    +0.000 A 
ATOM      3  C   UNL     1       5.638   4.221  18.710  0.00  0.00    +0.000 A 
ATOM      4  C   UNL     1       6.735   5.075  18.781  0.00  0.00    +0.000 A 
ATOM      5  C   UNL     1       7.414   5.461  17.633  0.00  0.00    +0.000 A 
ATOM      6  C   UNL     1       6.961   5.025  16.394  0.00  0.00    +0.000 A 
ATOM      7  C   UNL     1       5.838   4.189  16.296  0.00  0.00    +0.000 A 
ATOM      8  O   UNL     1       5.308   3.786  15.099  0.00  0.00    +0.000 OA
ATOM      9  C   UNL     1       5.973   4.231  13.927  0.00  0.00    +0.000 C 
ATOM     10  C   UNL     1       7.213   5.110  13.995  0.00  0.00    +0.000 C 
ATOM     11  O   UNL     1       7.814   5.497  12.997  0.00  0.00    +0.000 OA
ATOM     12  N   UNL     1       7.630   5.450  15.253  0.00  0.00    +0.000 N 
ATOM     13  H   UNL     1       8.444   6.047  15.313  0.00  0.00    +0.000 HD
BRANCH   4  14
ATOM     14  O   UNL     1       7.156   5.595  19.970  0.00  0.00    +0.000 OA
ATOM     15  H   UNL     1       8.113   5.454  20.058  0.00  0.00    +0.000 HD
ENDBRANCH   4  14
ENDBRANCH   1   2
BRANCH   1  16
ATOM     16  O   UNL     1       2.834   3.569  16.705  0.00  0.00    +0.000 OA
ATOM     17  H   UNL     1       2.082   3.649  17.321  0.00  0.00    +0.000 HD
ENDBRANCH   1  16
BRANCH   1  18
ATOM     18  C   UNL     1       3.449   2.711  18.901  0.00  0.00    +0.000 C 
BRANCH  18  19
ATOM     19  N   UNL     1       2.052   3.079  19.206  0.00  0.00    +0.000 NA
ATOM     20  H   UNL     1       1.670   3.571  18.395  0.00  0.00    +0.000 HD
BRANCH  19  21
ATOM     21  C   UNL     1       1.908   3.910  20.442  0.00  0.00    +0.000 C 
ATOM     22  C   UNL     1       2.093   3.017  21.688  0.00  0.00    +0.000 C 
ATOM     23  C   UNL     1       0.502   4.548  20.417  0.00  0.00    +0.000 C 
BRANCH  21  24
ATOM     24  C   UNL     1       3.001   5.038  20.420  0.00  0.00    +0.000 C 
BRANCH  24  28
ATOM     25  C   UNL     1       1.741   8.721  18.477  0.00  0.00    +0.000 A 
ATOM     26  C   UNL     1       1.519   8.527  19.839  0.00  0.00    +0.000 A 
ATOM     27  C   UNL     1       1.960   7.362  20.476  0.00  0.00    +0.000 A 
ATOM     28  C   UNL     1       2.605   6.349  19.750  0.00  0.00    +0.000 A 
ATOM     29  C   UNL     1       2.833   6.559  18.384  0.00  0.00    +0.000 A 
ATOM     30  C   UNL     1       2.397   7.731  17.748  0.00  0.00    +0.000 A 
BRANCH  25  32
ATOM     31  C   UNL     1       0.179  10.482  18.693  0.00  0.00    +0.000 C 
ATOM     32  O   UNL     1       1.243   9.887  17.959  0.00  0.00    +0.000 OA
ENDBRANCH  25  32
ENDBRANCH  24  28
ENDBRANCH  21  24
ENDBRANCH  19  21
ENDBRANCH  18  19
ENDBRANCH   1  18
TORSDOF 9
ENDMDL
MODEL 3
REMARK VINA RESULT:      -7.4      5.249      9.085
REMARK  Name = 
REMARK  12 active torsions:
REMARK  status: ('A' for Active; 'I' for Inactive)
REMARK    1  A    between atoms: C_1  and  O_2
REMARK    2  A    between atoms: O_2  and  C_3
REMARK    3  A    between atoms: C_6  and  C_7
REMARK    4  A    between atoms: C_7  and  C_8
REMARK    5  A    between atoms: C_8  and  C_9
REMARK    6  A    between atoms: C_8  and  C_10
REMARK    7  A    between atoms: C_8  and  N_11
REMARK    8  A    between atoms: N_11  and  C_12
REMARK    9  A    between atoms: C_12  and  C_13
REMARK   10  A    between atoms: C_13  and  O_14
REMARK   11  A    between atoms: C_13  and  C_15
REMARK   12  A    between atoms: C_17  and  O_18
REMARK                            x       y       z     vdW  Elec       q    Type
REMARK                         _______ _______ _______ _____ _____    ______ ____
ROOT
ATOM      1  C   UNL     1      -0.055  11.295  18.473  0.00  0.00    +0.000 C 
ENDROOT
BRANCH   1   2
ATOM      2  C   UNL     1       0.207  10.397  19.683  0.00  0.00    +0.000 A 
ATOM      3  C   UNL     1      -0.247  10.836  20.944  0.00  0.00    +0.000 A 
ATOM      4  C   UNL     1       0.073  10.121  22.095  0.00  0.00    +0.000 A 
ATOM      5  C   UNL     1       0.818   8.952  22.024  0.00  0.00    +0.000 A 
ATOM      6  C   UNL     1       1.288   8.517  20.792  0.00  0.00    +0.000 A 
ATOM      7  C   UNL     1       1.004   9.237  19.622  0.00  0.00    +0.000 A 
ATOM      8  O   UNL     1       1.499   8.892  18.392  0.00  0.00    +0.000 OA
ATOM      9  C   UNL     1       2.308   7.728  18.336  0.00  0.00    +0.000 C 
ATOM     10  C   UNL     1       2.608   6.901  19.577  0.00  0.00    +0.000 C 
ATOM     11  O   UNL     1       3.293   5.883  19.553  0.00  0.00    +0.000 OA
ATOM     12  N   UNL     1       2.062   7.363  20.744  0.00  0.00    +0.000 N 
ATOM     13  H   UNL     1       2.267   6.833  21.581  0.00  0.00    +0.000 HD
BRANCH   4  14
ATOM     14  O   UNL     1      -0.295  10.564  23.332  0.00  0.00    +0.000 OA
ATOM     15  H   UNL     1       0.052   9.955  24.004  0.00  0.00    +0.000 HD
ENDBRANCH   4  14
ENDBRANCH   1   2
BRANCH   1  16
ATOM     16  O   UNL     1       0.749  12.475  18.465  0.00  0.00    +0.000 OA
ATOM     17  H   UNL     1       1.266  12.449  17.638  0.00  0.00    +0.000 HD
ENDBRANCH   1  16
BRANCH   1  18
ATOM     18  C   UNL     1      -1.554  11.680  18.499  0.00  0.00    +0.000 C 
BRANCH  18  19
ATOM     19  N   UNL     1      -2.160  11.948  17.179  0.00  0.00    +0.000 NA
ATOM     20  H   UNL     1      -2.534  12.899  17.191  0.00  0.00    +0.000 HD
BRANCH  19  21
ATOM     21  C   UNL     1      -3.226  10.969  16.800  0.00  0.00    +0.000 C 
ATOM     22  C   UNL     1      -3.232   9.798  17.807  0.00  0.00    +0.000 C 
ATOM     23  C   UNL     1      -2.919  10.473  15.370  0.00  0.00    +0.000 C 
BRANCH  21  24
ATOM     24  C   UNL     1      -4.615  11.703  16.819  0.00  0.00    +0.000 C 
BRANCH  24  28
ATOM     25  C   UNL     1      -6.732  11.444  20.610  0.00  0.00    +0.000 A 
ATOM     26  C   UNL     1      -5.738  12.403  20.418  0.00  0.00    +0.000 A 
ATOM     27  C   UNL     1      -5.084  12.517  19.186  0.00  0.00    +0.000 A 
ATOM     28  C   UNL     1      -5.390  11.646  18.130  0.00  0.00    +0.000 A 
ATOM     29  C   UNL     1      -6.398  10.693  18.330  0.00  0.00    +0.000 A 
ATOM     30  C   UNL     1      -7.057  10.585  19.563  0.00  0.00    +0.000 A 
BRANCH  25  32
ATOM     31  C   UNL     1      -6.988  12.526  22.696  0.00  0.00    +0.000 C 
ATOM     32  O   UNL     1      -7.282  11.411  21.863  0.00  0.00    +0.000 OA
ENDBRANCH  25  32
ENDBRANCH  24  28
ENDBRANCH  21  24
ENDBRANCH  19  21
ENDBRANCH  18  19
ENDBRANCH   1  18
TORSDOF 9
ENDMDL
MODEL 4
REMARK VINA RESULT:      -7.3      2.801      7.249
REMARK  Name = 
REMARK  12 active torsions:
REMARK  status: ('A' for Active; 'I' for Inactive)
REMARK    1  A    between atoms: C_1  and  O_2
REMARK    2  A    between atoms: O_2  and  C_3
REMARK    3  A    between atoms: C_6  and  C_7
REMARK    4  A    between atoms: C_7  and  C_8
REMARK    5  A    between atoms: C_8  and  C_9
REMARK    6  A    between atoms: C_8  and  C_10
REMARK    7  A    between atoms: C_8  and  N_11
REMARK    8  A    between atoms: N_11  and  C_12
REMARK    9  A    between atoms: C_12  and  C_13
REMARK   10  A    between atoms: C_13  and  O_14
REMARK   11  A    between atoms: C_13  and  C_15
REMARK   12  A    between atoms: C_17  and  O_18
REMARK                            x       y       z     vdW  Elec       q    Type
REMARK                         _______ _______ _______ _____ _____    ______ ____
ROOT
ATOM      1  C   UNL     1       2.108   7.559  20.098  0.00  0.00    +0.000 C 
ENDROOT
BRANCH   1   2
ATOM      2  C   UNL     1       1.243   8.659  20.717  0.00  0.00    +0.000 A 
ATOM      3  C   UNL     1       1.155   8.720  22.123  0.00  0.00    +0.000 A 
ATOM      4  C   UNL     1       0.286   9.619  22.736  0.00  0.00    +0.000 A 
ATOM      5  C   UNL     1      -0.487  10.490  21.980  0.00  0.00    +0.000 A 
ATOM      6  C   UNL     1      -0.426  10.429  20.594  0.00  0.00    +0.000 A 
ATOM      7  C   UNL     1       0.419   9.510  19.954  0.00  0.00    +0.000 A 
ATOM      8  O   UNL     1       0.468   9.360  18.594  0.00  0.00    +0.000 OA
ATOM      9  C   UNL     1      -0.369  10.214  17.830  0.00  0.00    +0.000 C 
ATOM     10  C   UNL     1      -1.273  11.247  18.486  0.00  0.00    +0.000 C 
ATOM     11  O   UNL     1      -1.996  12.006  17.847  0.00  0.00    +0.000 OA
ATOM     12  N   UNL     1      -1.235  11.283  19.854  0.00  0.00    +0.000 N 
ATOM     13  H   UNL     1      -1.843  11.954  20.306  0.00  0.00    +0.000 HD
BRANCH   4  14
ATOM     14  O   UNL     1       0.133   9.648  24.091  0.00  0.00    +0.000 OA
ATOM     15  H   UNL     1       0.710   8.976  24.490  0.00  0.00    +0.000 HD
ENDBRANCH   4  14
ENDBRANCH   1   2
BRANCH   1  16
ATOM     16  O   UNL     1       2.188   7.642  18.675  0.00  0.00    +0.000 OA
ATOM     17  H   UNL     1       2.132   8.590  18.451  0.00  0.00    +0.000 HD
ENDBRANCH   1  16
BRANCH   1  18
ATOM     18  C   UNL     1       1.493   6.201  20.512  0.00  0.00    +0.000 C 
BRANCH  18  19
ATOM     19  N   UNL     1       2.456   5.196  21.005  0.00  0.00    +0.000 NA
ATOM     20  H   UNL     1       3.399   5.554  20.839  0.00  0.00    +0.000 HD
BRANCH  19  21
ATOM     21  C   UNL     1       2.287   3.848  20.380  0.00  0.00    +0.000 C 
ATOM     22  C   UNL     1       1.328   3.955  19.175  0.00  0.00    +0.000 C 
ATOM     23  C   UNL     1       1.723   2.898  21.459  0.00  0.00    +0.000 C 
BRANCH  21  24
ATOM     24  C   UNL     1       3.694   3.333  19.905  0.00  0.00    +0.000 C 
BRANCH  24  28
ATOM     25  C   UNL     1       5.563   5.316  16.514  0.00  0.00    +0.000 A 
ATOM     26  C   UNL     1       4.948   4.075  16.357  0.00  0.00    +0.000 A 
ATOM     27  C   UNL     1       4.309   3.454  17.436  0.00  0.00    +0.000 A 
ATOM     28  C   UNL     1       4.305   4.050  18.706  0.00  0.00    +0.000 A 
ATOM     29  C   UNL     1       4.916   5.303  18.850  0.00  0.00    +0.000 A 
ATOM     30  C   UNL     1       5.550   5.927  17.766  0.00  0.00    +0.000 A 
BRANCH  25  32
ATOM     31  C   UNL     1       6.580   4.848  14.432  0.00  0.00    +0.000 C 
ATOM     32  O   UNL     1       6.176   5.814  15.395  0.00  0.00    +0.000 OA
ENDBRANCH  25  32
ENDBRANCH  24  28
ENDBRANCH  21  24
ENDBRANCH  19  21
ENDBRANCH  18  19
ENDBRANCH   1  18
TORSDOF 9
ENDMDL
MODEL 5
REMARK VINA RESULT:      -7.3      2.929      7.186
REMARK  Name = 
REMARK  12 active torsions:
REMARK  status: ('A' for Active; 'I' for Inactive)
REMARK    1  A    between atoms: C_1  and  O_2
REMARK    2  A    between atoms: O_2  and  C_3
REMARK    3  A    between atoms: C_6  and  C_7
REMARK    4  A    between atoms: C_7  and  C_8
REMARK    5  A    between atoms: C_8  and  C_9
REMARK    6  A    between atoms: C_8  and  C_10
REMARK    7  A    between atoms: C_8  and  N_11
REMARK    8  A    between atoms: N_11  and  C_12
REMARK    9  A    between atoms: C_12  and  C_13
REMARK   10  A    between atoms: C_13  and  O_14
REMARK   11  A    between atoms: C_13  and  C_15
REMARK   12  A    between atoms: C_17  and  O_18
REMARK                            x       y       z     vdW  Elec       q    Type
REMARK                         _______ _______ _______ _____ _____    ______ ____
ROOT
ATOM      1  C   UNL     1       2.129   7.720  19.911  0.00  0.00    +0.000 C 
ENDROOT
BRANCH   1   2
ATOM      2  C   UNL     1       1.256   8.767  20.605  0.00  0.00    +0.000 A 
ATOM      3  C   UNL     1       1.256   8.800  22.015  0.00  0.00    +0.000 A 
ATOM      4  C   UNL     1       0.387   9.646  22.699  0.00  0.00    +0.000 A 
ATOM      5  C   UNL     1      -0.472  10.492  22.012  0.00  0.00    +0.000 A 
ATOM      6  C   UNL     1      -0.497  10.458  20.624  0.00  0.00    +0.000 A 
ATOM      7  C   UNL     1       0.346   9.591  19.913  0.00  0.00    +0.000 A 
ATOM      8  O   UNL     1       0.315   9.467  18.550  0.00  0.00    +0.000 OA
ATOM      9  C   UNL     1      -0.608  10.294  17.857  0.00  0.00    +0.000 C 
ATOM     10  C   UNL     1      -1.514  11.271  18.590  0.00  0.00    +0.000 C 
ATOM     11  O   UNL     1      -2.310  12.006  18.014  0.00  0.00    +0.000 OA
ATOM     12  N   UNL     1      -1.390  11.286  19.953  0.00  0.00    +0.000 N 
ATOM     13  H   UNL     1      -1.998  11.919  20.456  0.00  0.00    +0.000 HD
BRANCH   4  14
ATOM     14  O   UNL     1       0.320   9.644  24.061  0.00  0.00    +0.000 OA
ATOM     15  H   UNL     1       1.219   9.583  24.424  0.00  0.00    +0.000 HD
ENDBRANCH   4  14
ENDBRANCH   1   2
BRANCH   1  16
ATOM     16  O   UNL     1       2.063   7.790  18.486  0.00  0.00    +0.000 OA
ATOM     17  H   UNL     1       2.984   7.869  18.173  0.00  0.00    +0.000 HD
ENDBRANCH   1  16
BRANCH   1  18
ATOM     18  C   UNL     1       1.651   6.329  20.392  0.00  0.00    +0.000 C 
BRANCH  18  19
ATOM     19  N   UNL     1       2.724   5.350  20.656  0.00  0.00    +0.000 NA
ATOM     20  H   UNL     1       3.553   5.640  20.133  0.00  0.00    +0.000 HD
BRANCH  19  21
ATOM     21  C   UNL     1       2.350   3.943  20.311  0.00  0.00    +0.000 C 
ATOM     22  C   UNL     1       0.881   3.903  19.838  0.00  0.00    +0.000 C 
ATOM     23  C   UNL     1       2.554   3.080  21.575  0.00  0.00    +0.000 C 
BRANCH  21  24
ATOM     24  C   UNL     1       3.299   3.436  19.166  0.00  0.00    +0.000 C 
BRANCH  24  28
ATOM     25  C   UNL     1       6.106   6.267  17.424  0.00  0.00    +0.000 A 
ATOM     26  C   UNL     1       4.866   6.042  16.829  0.00  0.00    +0.000 A 
ATOM     27  C   UNL     1       3.944   5.165  17.409  0.00  0.00    +0.000 A 
ATOM     28  C   UNL     1       4.262   4.465  18.583  0.00  0.00    +0.000 A 
ATOM     29  C   UNL     1       5.507   4.706  19.179  0.00  0.00    +0.000 A 
ATOM     30  C   UNL     1       6.427   5.592  18.600  0.00  0.00    +0.000 A 
BRANCH  25  32
ATOM     31  C   UNL     1       7.694   8.013  17.567  0.00  0.00    +0.000 C 
ATOM     32  O   UNL     1       6.934   7.126  16.753  0.00  0.00    +0.000 OA
ENDBRANCH  25  32
ENDBRANCH  24  28
ENDBRANCH  21  24
ENDBRANCH  19  21
ENDBRANCH  18  19
ENDBRANCH   1  18
TORSDOF 9
ENDMDL
MODEL 6
REMARK VINA RESULT:      -7.1      1.011      1.529
REMARK  Name = 
REMARK  12 active torsions:
REMARK  status: ('A' for Active; 'I' for Inactive)
REMARK    1  A    between atoms: C_1  and  O_2
REMARK    2  A    between atoms: O_2  and  C_3
REMARK    3  A    between atoms: C_6  and  C_7
REMARK    4  A    between atoms: C_7  and  C_8
REMARK    5  A    between atoms: C_8  and  C_9
REMARK    6  A    between atoms: C_8  and  C_10
REMARK    7  A    between atoms: C_8  and  N_11
REMARK    8  A    between atoms: N_11  and  C_12
REMARK    9  A    between atoms: C_12  and  C_13
REMARK   10  A    between atoms: C_13  and  O_14
REMARK   11  A    between atoms: C_13  and  C_15
REMARK   12  A    between atoms: C_17  and  O_18
REMARK                            x       y       z     vdW  Elec       q    Type
REMARK                         _______ _______ _______ _____ _____    ______ ____
ROOT
ATOM      1  C   UNL     1       4.048   3.106  18.192  0.00  0.00    +0.000 C 
ENDROOT
BRANCH   1   2
ATOM      2  C   UNL     1       5.344   3.906  18.047  0.00  0.00    +0.000 A 
ATOM      3  C   UNL     1       5.936   4.426  19.216  0.00  0.00    +0.000 A 
ATOM      4  C   UNL     1       7.044   5.265  19.131  0.00  0.00    +0.000 A 
ATOM      5  C   UNL     1       7.605   5.583  17.901  0.00  0.00    +0.000 A 
ATOM      6  C   UNL     1       7.022   5.094  16.739  0.00  0.00    +0.000 A 
ATOM      7  C   UNL     1       5.886   4.272  16.798  0.00  0.00    +0.000 A 
ATOM      8  O   UNL     1       5.231   3.819  15.684  0.00  0.00    +0.000 OA
ATOM      9  C   UNL     1       5.776   4.196  14.430  0.00  0.00    +0.000 C 
ATOM     10  C   UNL     1       7.026   5.056  14.325  0.00  0.00    +0.000 C 
ATOM     11  O   UNL     1       7.525   5.384  13.253  0.00  0.00    +0.000 OA
ATOM     12  N   UNL     1       7.574   5.451  15.515  0.00  0.00    +0.000 N 
ATOM     13  H   UNL     1       8.397   6.038  15.462  0.00  0.00    +0.000 HD
BRANCH   4  14
ATOM     14  O   UNL     1       7.590   5.836  20.243  0.00  0.00    +0.000 OA
ATOM     15  H   UNL     1       7.547   6.803  20.157  0.00  0.00    +0.000 HD
ENDBRANCH   4  14
ENDBRANCH   1   2
BRANCH   1  16
ATOM     16  O   UNL     1       3.971   1.996  17.298  0.00  0.00    +0.000 OA
ATOM     17  H   UNL     1       3.309   2.233  16.622  0.00  0.00    +0.000 HD
ENDBRANCH   1  16
BRANCH   1  18
ATOM     18  C   UNL     1       2.874   4.078  17.926  0.00  0.00    +0.000 C 
BRANCH  18  19
ATOM     19  N   UNL     1       1.729   3.952  18.850  0.00  0.00    +0.000 NA
ATOM     20  H   UNL     1       0.885   4.233  18.347  0.00  0.00    +0.000 HD
BRANCH  19  21
ATOM     21  C   UNL     1       1.882   4.749  20.107  0.00  0.00    +0.000 C 
ATOM     22  C   UNL     1       2.426   3.840  21.230  0.00  0.00    +0.000 C 
ATOM     23  C   UNL     1       0.494   5.319  20.472  0.00  0.00    +0.000 C 
BRANCH  21  24
ATOM     24  C   UNL     1       2.884   5.929  19.835  0.00  0.00    +0.000 C 
BRANCH  24  28
ATOM     25  C   UNL     1       0.983   9.739  18.946  0.00  0.00    +0.000 A 
ATOM     26  C   UNL     1       0.957   9.219  20.239  0.00  0.00    +0.000 A 
ATOM     27  C   UNL     1       1.603   8.015  20.538  0.00  0.00    +0.000 A 
ATOM     28  C   UNL     1       2.261   7.287  19.535  0.00  0.00    +0.000 A 
ATOM     29  C   UNL     1       2.291   7.823  18.241  0.00  0.00    +0.000 A 
ATOM     30  C   UNL     1       1.649   9.035  17.945  0.00  0.00    +0.000 A 
BRANCH  25  32
ATOM     31  C   UNL     1       0.350  11.828  19.854  0.00  0.00    +0.000 C 
ATOM     32  O   UNL     1       0.296  10.910  18.768  0.00  0.00    +0.000 OA
ENDBRANCH  25  32
ENDBRANCH  24  28
ENDBRANCH  21  24
ENDBRANCH  19  21
ENDBRANCH  18  19
ENDBRANCH   1  18
TORSDOF 9
ENDMDL
MODEL 7
REMARK VINA RESULT:      -7.1      1.408      3.022
REMARK  Name = 
REMARK  12 active torsions:
REMARK  status: ('A' for Active; 'I' for Inactive)
REMARK    1  A    between atoms: C_1  and  O_2
REMARK    2  A    between atoms: O_2  and  C_3
REMARK    3  A    between atoms: C_6  and  C_7
REMARK    4  A    between atoms: C_7  and  C_8
REMARK    5  A    between atoms: C_8  and  C_9
REMARK    6  A    between atoms: C_8  and  C_10
REMARK    7  A    between atoms: C_8  and  N_11
REMARK    8  A    between atoms: N_11  and  C_12
REMARK    9  A    between atoms: C_12  and  C_13
REMARK   10  A    between atoms: C_13  and  O_14
REMARK   11  A    between atoms: C_13  and  C_15
REMARK   12  A    between atoms: C_17  and  O_18
REMARK                            x       y       z     vdW  Elec       q    Type
REMARK                         _______ _______ _______ _____ _____    ______ ____
ROOT
ATOM      1  C   UNL     1       4.839   2.572  18.316  0.00  0.00    +0.000 C 
ENDROOT
BRANCH   1   2
ATOM      2  C   UNL     1       5.278   3.666  17.341  0.00  0.00    +0.000 A 
ATOM      3  C   UNL     1       4.924   3.524  15.983  0.00  0.00    +0.000 A 
ATOM      4  C   UNL     1       5.403   4.422  15.033  0.00  0.00    +0.000 A 
ATOM      5  C   UNL     1       6.211   5.488  15.404  0.00  0.00    +0.000 A 
ATOM      6  C   UNL     1       6.583   5.631  16.734  0.00  0.00    +0.000 A 
ATOM      7  C   UNL     1       6.139   4.721  17.704  0.00  0.00    +0.000 A 
ATOM      8  O   UNL     1       6.531   4.774  19.016  0.00  0.00    +0.000 OA
ATOM      9  C   UNL     1       7.403   5.833  19.376  0.00  0.00    +0.000 C 
ATOM     10  C   UNL     1       7.879   6.860  18.359  0.00  0.00    +0.000 C 
ATOM     11  O   UNL     1       8.622   7.793  18.648  0.00  0.00    +0.000 OA
ATOM     12  N   UNL     1       7.422   6.684  17.081  0.00  0.00    +0.000 N 
ATOM     13  H   UNL     1       7.743   7.350  16.390  0.00  0.00    +0.000 HD
BRANCH   4  14
ATOM     14  O   UNL     1       5.131   4.264  13.706  0.00  0.00    +0.000 OA
ATOM     15  H   UNL     1       4.414   3.616  13.603  0.00  0.00    +0.000 HD
ENDBRANCH   4  14
ENDBRANCH   1   2
BRANCH   1  16
ATOM     16  O   UNL     1       3.878   1.676  17.759  0.00  0.00    +0.000 OA
ATOM     17  H   UNL     1       3.502   1.175  18.507  0.00  0.00    +0.000 HD
ENDBRANCH   1  16
BRANCH   1  18
ATOM     18  C   UNL     1       4.245   3.274  19.560  0.00  0.00    +0.000 C 
BRANCH  18  19
ATOM     19  N   UNL     1       2.783   3.143  19.721  0.00  0.00    +0.000 NA
ATOM     20  H   UNL     1       2.462   2.401  19.095  0.00  0.00    +0.000 HD
BRANCH  19  21
ATOM     21  C   UNL     1       2.035   4.412  19.460  0.00  0.00    +0.000 C 
ATOM     22  C   UNL     1       0.795   4.476  20.378  0.00  0.00    +0.000 C 
ATOM     23  C   UNL     1       1.629   4.418  17.970  0.00  0.00    +0.000 C 
BRANCH  21  24
ATOM     24  C   UNL     1       2.987   5.627  19.754  0.00  0.00    +0.000 C 
BRANCH  24  28
ATOM     25  C   UNL     1       1.308   9.509  18.738  0.00  0.00    +0.000 A 
ATOM     26  C   UNL     1       1.130   8.972  20.013  0.00  0.00    +0.000 A 
ATOM     27  C   UNL     1       1.704   7.743  20.356  0.00  0.00    +0.000 A 
ATOM     28  C   UNL     1       2.441   7.009  19.415  0.00  0.00    +0.000 A 
ATOM     29  C   UNL     1       2.623   7.562  18.140  0.00  0.00    +0.000 A 
ATOM     30  C   UNL     1       2.053   8.798  17.800  0.00  0.00    +0.000 A 
BRANCH  25  32
ATOM     31  C   UNL     1      -0.661  10.796  18.981  0.00  0.00    +0.000 C 
ATOM     32  O   UNL     1       0.679  10.704  18.510  0.00  0.00    +0.000 OA
ENDBRANCH  25  32
ENDBRANCH  24  28
ENDBRANCH  21  24
ENDBRANCH  19  21
ENDBRANCH  18  19
ENDBRANCH   1  18
TORSDOF 9
ENDMDL
MODEL 8
REMARK VINA RESULT:      -7.1      3.021      7.658
REMARK  Name = 
REMARK  12 active torsions:
REMARK  status: ('A' for Active; 'I' for Inactive)
REMARK    1  A    between atoms: C_1  and  O_2
REMARK    2  A    between atoms: O_2  and  C_3
REMARK    3  A    between atoms: C_6  and  C_7
REMARK    4  A    between atoms: C_7  and  C_8
REMARK    5  A    between atoms: C_8  and  C_9
REMARK    6  A    between atoms: C_8  and  C_10
REMARK    7  A    between atoms: C_8  and  N_11
REMARK    8  A    between atoms: N_11  and  C_12
REMARK    9  A    between atoms: C_12  and  C_13
REMARK   10  A    between atoms: C_13  and  O_14
REMARK   11  A    between atoms: C_13  and  C_15
REMARK   12  A    between atoms: C_17  and  O_18
REMARK                            x       y       z     vdW  Elec       q    Type
REMARK                         _______ _______ _______ _____ _____    ______ ____
ROOT
ATOM      1  C   UNL     1       2.282   7.309  18.728  0.00  0.00    +0.000 C 
ENDROOT
BRANCH   1   2
ATOM      2  C   UNL     1       1.837   8.760  18.913  0.00  0.00    +0.000 A 
ATOM      3  C   UNL     1       2.270   9.712  17.968  0.00  0.00    +0.000 A 
ATOM      4  C   UNL     1       2.000  11.065  18.156  0.00  0.00    +0.000 A 
ATOM      5  C   UNL     1       1.276  11.501  19.257  0.00  0.00    +0.000 A 
ATOM      6  C   UNL     1       0.858  10.578  20.207  0.00  0.00    +0.000 A 
ATOM      7  C   UNL     1       1.146   9.213  20.055  0.00  0.00    +0.000 A 
ATOM      8  O   UNL     1       0.818   8.270  20.993  0.00  0.00    +0.000 OA
ATOM      9  C   UNL     1       0.130   8.732  22.144  0.00  0.00    +0.000 C 
ATOM     10  C   UNL     1      -0.231  10.198  22.328  0.00  0.00    +0.000 C 
ATOM     11  O   UNL     1      -0.838  10.620  23.308  0.00  0.00    +0.000 OA
ATOM     12  N   UNL     1       0.166  11.036  21.322  0.00  0.00    +0.000 N 
ATOM     13  H   UNL     1      -0.052  12.017  21.437  0.00  0.00    +0.000 HD
BRANCH   4  14
ATOM     14  O   UNL     1       2.470  12.010  17.291  0.00  0.00    +0.000 OA
ATOM     15  H   UNL     1       3.246  12.443  17.685  0.00  0.00    +0.000 HD
ENDBRANCH   4  14
ENDBRANCH   1   2
BRANCH   1  16
ATOM     16  O   UNL     1       2.722   6.698  19.941  0.00  0.00    +0.000 OA
ATOM     17  H   UNL     1       1.988   6.789  20.577  0.00  0.00    +0.000 HD
ENDBRANCH   1  16
BRANCH   1  18
ATOM     18  C   UNL     1       3.431   7.308  17.692  0.00  0.00    +0.000 C 
BRANCH  18  19
ATOM     19  N   UNL     1       4.741   6.853  18.201  0.00  0.00    +0.000 NA
ATOM     20  H   UNL     1       5.120   7.590  18.800  0.00  0.00    +0.000 HD
BRANCH  19  21
ATOM     21  C   UNL     1       5.714   6.500  17.122  0.00  0.00    +0.000 C 
ATOM     22  C   UNL     1       6.995   7.346  17.286  0.00  0.00    +0.000 C 
ATOM     23  C   UNL     1       5.031   6.779  15.765  0.00  0.00    +0.000 C 
BRANCH  21  24
ATOM     24  C   UNL     1       6.059   4.971  17.236  0.00  0.00    +0.000 C 
BRANCH  24  28
ATOM     25  C   UNL     1       2.850   2.521  18.854  0.00  0.00    +0.000 A 
ATOM     26  C   UNL     1       2.850   2.890  17.510  0.00  0.00    +0.000 A 
ATOM     27  C   UNL     1       3.902   3.643  16.976  0.00  0.00    +0.000 A 
ATOM     28  C   UNL     1       4.961   4.071  17.790  0.00  0.00    +0.000 A 
ATOM     29  C   UNL     1       4.957   3.685  19.138  0.00  0.00    +0.000 A 
ATOM     30  C   UNL     1       3.905   2.924  19.669  0.00  0.00    +0.000 A 
BRANCH  25  32
ATOM     31  C   UNL     1       0.521   2.511  19.258  0.00  0.00    +0.000 C 
ATOM     32  O   UNL     1       1.757   1.807  19.268  0.00  0.00    +0.000 OA
ENDBRANCH  25  32
ENDBRANCH  24  28
ENDBRANCH  21  24
ENDBRANCH  19  21
ENDBRANCH  18  19
ENDBRANCH   1  18
TORSDOF 9
ENDMDL
MODEL 9
REMARK VINA RESULT:      -7.1      3.179      8.216
REMARK  Name = 
REMARK  12 active torsions:
REMARK  status: ('A' for Active; 'I' for Inactive)
REMARK    1  A    between atoms: C_1  and  O_2
REMARK    2  A    between atoms: O_2  and  C_3
REMARK    3  A    between atoms: C_6  and  C_7
REMARK    4  A    between atoms: C_7  and  C_8
REMARK    5  A    between atoms: C_8  and  C_9
REMARK    6  A    between atoms: C_8  and  C_10
REMARK    7  A    between atoms: C_8  and  N_11
REMARK    8  A    between atoms: N_11  and  C_12
REMARK    9  A    between atoms: C_12  and  C_13
REMARK   10  A    between atoms: C_13  and  O_14
REMARK   11  A    between atoms: C_13  and  C_15
REMARK   12  A    between atoms: C_17  and  O_18
REMARK                            x       y       z     vdW  Elec       q    Type
REMARK                         _______ _______ _______ _____ _____    ______ ____
ROOT
ATOM      1  C   UNL     1       1.242   7.878  20.430  0.00  0.00    +0.000 C 
ENDROOT
BRANCH   1   2
ATOM      2  C   UNL     1       1.004   9.348  20.081  0.00  0.00    +0.000 A 
ATOM      3  C   UNL     1       1.616   9.861  18.919  0.00  0.00    +0.000 A 
ATOM      4  C   UNL     1       1.536  11.219  18.621  0.00  0.00    +0.000 A 
ATOM      5  C   UNL     1       0.832  12.088  19.443  0.00  0.00    +0.000 A 
ATOM      6  C   UNL     1       0.240  11.602  20.602  0.00  0.00    +0.000 A 
ATOM      7  C   UNL     1       0.333  10.243  20.938  0.00  0.00    +0.000 A 
ATOM      8  O   UNL     1      -0.172   9.724  22.100  0.00  0.00    +0.000 OA
ATOM      9  C   UNL     1      -0.840  10.630  22.964  0.00  0.00    +0.000 C 
ATOM     10  C   UNL     1      -0.992  12.103  22.617  0.00  0.00    +0.000 C 
ATOM     11  O   UNL     1      -1.577  12.904  23.340  0.00  0.00    +0.000 OA
ATOM     12  N   UNL     1      -0.430  12.493  21.431  0.00  0.00    +0.000 N 
ATOM     13  H   UNL     1      -0.509  13.474  21.194  0.00  0.00    +0.000 HD
BRANCH   4  14
ATOM     14  O   UNL     1       2.179  11.748  17.541  0.00  0.00    +0.000 OA
ATOM     15  H   UNL     1       2.562  12.607  17.788  0.00  0.00    +0.000 HD
ENDBRANCH   4  14
ENDBRANCH   1   2
BRANCH   1  16
ATOM     16  O   UNL     1       1.722   7.688  21.761  0.00  0.00    +0.000 OA
ATOM     17  H   UNL     1       2.604   7.279  21.680  0.00  0.00    +0.000 HD
ENDBRANCH   1  16
BRANCH   1  18
ATOM     18  C   UNL     1       2.271   7.324  19.416  0.00  0.00    +0.000 C 
BRANCH  18  19
ATOM     19  N   UNL     1       3.095   6.199  19.904  0.00  0.00    +0.000 NA
ATOM     20  H   UNL     1       4.061   6.367  19.613  0.00  0.00    +0.000 HD
BRANCH  19  21
ATOM     21  C   UNL     1       2.626   4.862  19.425  0.00  0.00    +0.000 C 
ATOM     22  C   UNL     1       1.945   5.017  18.048  0.00  0.00    +0.000 C 
ATOM     23  C   UNL     1       1.640   4.308  20.477  0.00  0.00    +0.000 C 
BRANCH  21  24
ATOM     24  C   UNL     1       3.868   3.905  19.308  0.00  0.00    +0.000 C 
BRANCH  24  28
ATOM     25  C   UNL     1       6.615   4.917  16.090  0.00  0.00    +0.000 A 
ATOM     26  C   UNL     1       6.848   5.369  17.389  0.00  0.00    +0.000 A 
ATOM     27  C   UNL     1       5.989   5.011  18.434  0.00  0.00    +0.000 A 
ATOM     28  C   UNL     1       4.857   4.218  18.192  0.00  0.00    +0.000 A 
ATOM     29  C   UNL     1       4.638   3.760  16.885  0.00  0.00    +0.000 A 
ATOM     30  C   UNL     1       5.504   4.114  15.840  0.00  0.00    +0.000 A 
BRANCH  25  32
ATOM     31  C   UNL     1       7.294   4.866  13.827  0.00  0.00    +0.000 C 
ATOM     32  O   UNL     1       7.507   5.352  15.147  0.00  0.00    +0.000 OA
ENDBRANCH  25  32
ENDBRANCH  24  28
ENDBRANCH  21  24
ENDBRANCH  19  21
ENDBRANCH  18  19
ENDBRANCH   1  18
TORSDOF 9
ENDMDL
