MODEL 1
REMARK VINA RESULT:      -6.2      0.000      0.000
REMARK  Name = 
REMARK  7 active torsions:
REMARK  status: ('A' for Active; 'I' for Inactive)
REMARK    1  A    between atoms: C_1  and  C_2
REMARK    2  A    between atoms: C_5  and  N_6
REMARK    3  A    between atoms: C_11  and  N_12
REMARK    4  A    between atoms: C_14  and  C_15
REMARK    5  A    between atoms: C_17  and  C_18
REMARK    6  A    between atoms: C_20  and  C_21
REMARK    7  A    between atoms: C_20  and  C_22
REMARK                            x       y       z     vdW  Elec       q    Type
REMARK                         _______ _______ _______ _____ _____    ______ ____
ROOT
ATOM      1  C   UNL     1      -2.502  11.293  16.668  0.00  0.00    +0.000 C 
ATOM      2  C   UNL     1      -3.608  11.440  17.676  0.00  0.00    +0.000 A 
ATOM      3  C   UNL     1      -4.893  10.993  17.339  0.00  0.00    +0.000 A 
ATOM      4  C   UNL     1      -5.966  11.112  18.237  0.00  0.00    +0.000 A 
ATOM      5  C   UNL     1      -5.743  11.743  19.457  0.00  0.00    +0.000 A 
ATOM      6  C   UNL     1      -4.491  12.232  19.776  0.00  0.00    +0.000 A 
ATOM      7  C   UNL     1      -3.406  12.007  18.948  0.00  0.00    +0.000 A 
ATOM      8  C   UNL     1      -2.135  12.460  19.642  0.00  0.00    +0.000 C 
ATOM      9  C   UNL     1      -2.809  13.196  20.967  0.00  0.00    +0.000 C 
ATOM     10  C   UNL     1      -2.527  14.709  20.835  0.00  0.00    +0.000 C 
ATOM     11  C   UNL     1      -2.631  12.913  22.485  0.00  0.00    +0.000 C 
ATOM     12  O   UNL     1      -4.251  13.010  20.862  0.00  0.00    +0.000 OA
ENDROOT
BRANCH   8  13
ATOM     13  N   UNL     1      -1.038  11.460  19.471  0.00  0.00    +0.000 NA
ATOM     14  C   UNL     1       0.317  12.011  19.291  0.00  0.00    +0.000 C 
ATOM     15  C   UNL     1       0.832  12.578  20.613  0.00  0.00    +0.000 C 
ATOM     16  C   UNL     1       2.203  13.222  20.540  0.00  0.00    +0.000 C 
ATOM     17  O   UNL     1       0.769  11.637  21.700  0.00  0.00    +0.000 OA
ATOM     18  C   UNL     1      -0.506  10.972  21.811  0.00  0.00    +0.000 C 
ATOM     19  C   UNL     1      -0.498   9.980  22.958  0.00  0.00    +0.000 C 
ATOM     20  C   UNL     1      -0.942  10.384  20.479  0.00  0.00    +0.000 C 
ENDBRANCH   8  13
BRANCH   5  21
ATOM     21  N   UNL     1      -6.812  11.825  20.426  0.00  0.00    +0.000 N 
ATOM     22  O   UNL     1      -7.550  12.821  20.349  0.00  0.00    +0.000 OA
ATOM     23  O   UNL     1      -6.965  10.875  21.209  0.00  0.00    +0.000 OA
ENDBRANCH   5  21
TORSDOF 2
ENDMDL
MODEL 2
REMARK VINA RESULT:      -5.8      2.322      4.413
REMARK  Name = 
REMARK  7 active torsions:
REMARK  status: ('A' for Active; 'I' for Inactive)
REMARK    1  A    between atoms: C_1  and  C_2
REMARK    2  A    between atoms: C_5  and  N_6
REMARK    3  A    between atoms: C_11  and  N_12
REMARK    4  A    between atoms: C_14  and  C_15
REMARK    5  A    between atoms: C_17  and  C_18
REMARK    6  A    between atoms: C_20  and  C_21
REMARK    7  A    between atoms: C_20  and  C_22
REMARK                            x       y       z     vdW  Elec       q    Type
REMARK                         _______ _______ _______ _____ _____    ______ ____
ROOT
ATOM      1  C   UNL     1      -0.857  10.335  23.270  0.00  0.00    +0.000 C 
ATOM      2  C   UNL     1      -1.623  11.452  22.619  0.00  0.00    +0.000 A 
ATOM      3  C   UNL     1      -2.342  12.341  23.430  0.00  0.00    +0.000 A 
ATOM      4  C   UNL     1      -3.082  13.398  22.878  0.00  0.00    +0.000 A 
ATOM      5  C   UNL     1      -3.140  13.515  21.492  0.00  0.00    +0.000 A 
ATOM      6  C   UNL     1      -2.476  12.613  20.684  0.00  0.00    +0.000 A 
ATOM      7  C   UNL     1      -1.647  11.646  21.226  0.00  0.00    +0.000 A 
ATOM      8  C   UNL     1      -0.888  10.946  20.113  0.00  0.00    +0.000 C 
ATOM      9  C   UNL     1      -1.666  11.611  18.808  0.00  0.00    +0.000 C 
ATOM     10  C   UNL     1      -2.459  10.473  18.128  0.00  0.00    +0.000 C 
ATOM     11  C   UNL     1      -1.119  12.449  17.618  0.00  0.00    +0.000 C 
ATOM     12  O   UNL     1      -2.637  12.562  19.337  0.00  0.00    +0.000 OA
ENDROOT
BRANCH   8  13
ATOM     13  N   UNL     1       0.553  10.770  20.468  0.00  0.00    +0.000 NA
ATOM     14  C   UNL     1       1.213   9.575  19.912  0.00  0.00    +0.000 C 
ATOM     15  C   UNL     1       1.446   9.756  18.413  0.00  0.00    +0.000 C 
ATOM     16  C   UNL     1       2.077   8.565  17.717  0.00  0.00    +0.000 C 
ATOM     17  O   UNL     1       2.152  10.968  18.087  0.00  0.00    +0.000 OA
ATOM     18  C   UNL     1       1.613  12.138  18.736  0.00  0.00    +0.000 C 
ATOM     19  C   UNL     1       2.414  13.372  18.370  0.00  0.00    +0.000 C 
ATOM     20  C   UNL     1       1.453  11.917  20.231  0.00  0.00    +0.000 C 
ENDBRANCH   8  13
BRANCH   5  21
ATOM     21  N   UNL     1      -3.843  14.628  20.896  0.00  0.00    +0.000 N 
ATOM     22  O   UNL     1      -3.180  15.662  20.710  0.00  0.00    +0.000 OA
ATOM     23  O   UNL     1      -5.021  14.456  20.546  0.00  0.00    +0.000 OA
ENDBRANCH   5  21
TORSDOF 2
ENDMDL
MODEL 3
REMARK VINA RESULT:      -5.7      1.310      1.539
REMARK  Name = 
REMARK  7 active torsions:
REMARK  status: ('A' for Active; 'I' for Inactive)
REMARK    1  A    between atoms: C_1  and  C_2
REMARK    2  A    between atoms: C_5  and  N_6
REMARK    3  A    between atoms: C_11  and  N_12
REMARK    4  A    between atoms: C_14  and  C_15
REMARK    5  A    between atoms: C_17  and  C_18
REMARK    6  A    between atoms: C_20  and  C_21
REMARK    7  A    between atoms: C_20  and  C_22
REMARK                            x       y       z     vdW  Elec       q    Type
REMARK                         _______ _______ _______ _____ _____    ______ ____
ROOT
ATOM      1  C   UNL     1      -3.749  11.560  17.722  0.00  0.00    +0.000 C 
ATOM      2  C   UNL     1      -4.389  11.920  19.033  0.00  0.00    +0.000 A 
ATOM      3  C   UNL     1      -5.715  11.529  19.268  0.00  0.00    +0.000 A 
ATOM      4  C   UNL     1      -6.367  11.844  20.471  0.00  0.00    +0.000 A 
ATOM      5  C   UNL     1      -5.687  12.611  21.413  0.00  0.00    +0.000 A 
ATOM      6  C   UNL     1      -4.398  13.043  21.169  0.00  0.00    +0.000 A 
ATOM      7  C   UNL     1      -3.711  12.631  20.040  0.00  0.00    +0.000 A 
ATOM      8  C   UNL     1      -2.263  13.076  20.138  0.00  0.00    +0.000 C 
ATOM      9  C   UNL     1      -2.372  14.026  21.493  0.00  0.00    +0.000 C 
ATOM     10  C   UNL     1      -2.132  15.484  21.041  0.00  0.00    +0.000 C 
ATOM     11  C   UNL     1      -1.639  13.933  22.860  0.00  0.00    +0.000 C 
ATOM     12  O   UNL     1      -3.751  13.937  21.959  0.00  0.00    +0.000 OA
ENDROOT
BRANCH   8  13
ATOM     13  N   UNL     1      -1.332  11.983  19.723  0.00  0.00    +0.000 NA
ATOM     14  C   UNL     1       0.041  12.398  19.383  0.00  0.00    +0.000 C 
ATOM     15  C   UNL     1       0.804  12.776  20.653  0.00  0.00    +0.000 C 
ATOM     16  C   UNL     1       2.218  13.271  20.423  0.00  0.00    +0.000 C 
ATOM     17  O   UNL     1       0.781  11.746  21.659  0.00  0.00    +0.000 OA
ATOM     18  C   UNL     1      -0.537  11.217  21.909  0.00  0.00    +0.000 C 
ATOM     19  C   UNL     1      -0.488  10.124  22.959  0.00  0.00    +0.000 C 
ATOM     20  C   UNL     1      -1.226  10.811  20.617  0.00  0.00    +0.000 C 
ENDBRANCH   8  13
BRANCH   5  21
ATOM     21  N   UNL     1      -6.309  12.898  22.685  0.00  0.00    +0.000 N 
ATOM     22  O   UNL     1      -7.118  13.841  22.703  0.00  0.00    +0.000 OA
ATOM     23  O   UNL     1      -6.055  12.150  23.643  0.00  0.00    +0.000 OA
ENDBRANCH   5  21
TORSDOF 2
ENDMDL
MODEL 4
REMARK VINA RESULT:      -5.5     10.058     12.398
REMARK  Name = 
REMARK  7 active torsions:
REMARK  status: ('A' for Active; 'I' for Inactive)
REMARK    1  A    between atoms: C_1  and  C_2
REMARK    2  A    between atoms: C_5  and  N_6
REMARK    3  A    between atoms: C_11  and  N_12
REMARK    4  A    between atoms: C_14  and  C_15
REMARK    5  A    between atoms: C_17  and  C_18
REMARK    6  A    between atoms: C_20  and  C_21
REMARK    7  A    between atoms: C_20  and  C_22
REMARK                            x       y       z     vdW  Elec       q    Type
REMARK                         _______ _______ _______ _____ _____    ______ ____
ROOT
ATOM      1  C   UNL     1      10.263  12.015  20.922  0.00  0.00    +0.000 C 
ATOM      2  C   UNL     1       9.070  12.718  21.504  0.00  0.00    +0.000 A 
ATOM      3  C   UNL     1       8.553  12.271  22.728  0.00  0.00    +0.000 A 
ATOM      4  C   UNL     1       7.434  12.884  23.316  0.00  0.00    +0.000 A 
ATOM      5  C   UNL     1       6.804  13.914  22.626  0.00  0.00    +0.000 A 
ATOM      6  C   UNL     1       7.275  14.327  21.395  0.00  0.00    +0.000 A 
ATOM      7  C   UNL     1       8.448  13.810  20.872  0.00  0.00    +0.000 A 
ATOM      8  C   UNL     1       8.836  14.590  19.629  0.00  0.00    +0.000 C 
ATOM      9  C   UNL     1       7.473  15.521  19.468  0.00  0.00    +0.000 C 
ATOM     10  C   UNL     1       6.756  15.052  18.183  0.00  0.00    +0.000 C 
ATOM     11  C   UNL     1       7.294  17.065  19.454  0.00  0.00    +0.000 C 
ATOM     12  O   UNL     1       6.606  15.195  20.594  0.00  0.00    +0.000 OA
ENDROOT
BRANCH   8  13
ATOM     13  N   UNL     1      10.298  14.901  19.620  0.00  0.00    +0.000 NA
ATOM     14  C   UNL     1      11.146  13.999  18.821  0.00  0.00    +0.000 C 
ATOM     15  C   UNL     1      10.926  14.255  17.331  0.00  0.00    +0.000 C 
ATOM     16  C   UNL     1      11.710  13.347  16.405  0.00  0.00    +0.000 C 
ATOM     17  O   UNL     1      11.100  15.635  16.958  0.00  0.00    +0.000 OA
ATOM     18  C   UNL     1      10.394  16.555  17.816  0.00  0.00    +0.000 C 
ATOM     19  C   UNL     1      10.637  17.988  17.384  0.00  0.00    +0.000 C 
ATOM     20  C   UNL     1      10.692  16.285  19.282  0.00  0.00    +0.000 C 
ENDBRANCH   8  13
BRANCH   5  21
ATOM     21  N   UNL     1       5.688  14.605  23.233  0.00  0.00    +0.000 N 
ATOM     22  O   UNL     1       4.675  13.923  23.457  0.00  0.00    +0.000 OA
ATOM     23  O   UNL     1       5.841  15.794  23.553  0.00  0.00    +0.000 OA
ENDBRANCH   5  21
TORSDOF 2
ENDMDL
MODEL 5
REMARK VINA RESULT:      -5.5      1.765      2.218
REMARK  Name = 
REMARK  7 active torsions:
REMARK  status: ('A' for Active; 'I' for Inactive)
REMARK    1  A    between atoms: C_1  and  C_2
REMARK    2  A    between atoms: C_5  and  N_6
REMARK    3  A    between atoms: C_11  and  N_12
REMARK    4  A    between atoms: C_14  and  C_15
REMARK    5  A    between atoms: C_17  and  C_18
REMARK    6  A    between atoms: C_20  and  C_21
REMARK    7  A    between atoms: C_20  and  C_22
REMARK                            x       y       z     vdW  Elec       q    Type
REMARK                         _______ _______ _______ _____ _____    ______ ____
ROOT
ATOM      1  C   UNL     1      -4.314  11.849  17.985  0.00  0.00    +0.000 C 
ATOM      2  C   UNL     1      -4.615  12.174  19.421  0.00  0.00    +0.000 A 
ATOM      3  C   UNL     1      -5.901  11.921  19.917  0.00  0.00    +0.000 A 
ATOM      4  C   UNL     1      -6.241  12.212  21.247  0.00  0.00    +0.000 A 
ATOM      5  C   UNL     1      -5.286  12.819  22.059  0.00  0.00    +0.000 A 
ATOM      6  C   UNL     1      -4.032  13.118  21.563  0.00  0.00    +0.000 A 
ATOM      7  C   UNL     1      -3.655  12.721  20.292  0.00  0.00    +0.000 A 
ATOM      8  C   UNL     1      -2.174  12.987  20.097  0.00  0.00    +0.000 C 
ATOM      9  C   UNL     1      -1.873  13.833  21.492  0.00  0.00    +0.000 C 
ATOM     10  C   UNL     1      -1.546  15.284  21.077  0.00  0.00    +0.000 C 
ATOM     11  C   UNL     1      -0.889  13.547  22.660  0.00  0.00    +0.000 C 
ATOM     12  O   UNL     1      -3.124  13.865  22.241  0.00  0.00    +0.000 OA
ENDROOT
BRANCH   8  13
ATOM     13  N   UNL     1      -1.498  11.830  19.433  0.00  0.00    +0.000 NA
ATOM     14  C   UNL     1      -0.279  12.146  18.669  0.00  0.00    +0.000 C 
ATOM     15  C   UNL     1       0.870  12.466  19.624  0.00  0.00    +0.000 C 
ATOM     16  C   UNL     1       2.170  12.858  18.950  0.00  0.00    +0.000 C 
ATOM     17  O   UNL     1       1.096  11.439  20.608  0.00  0.00    +0.000 OA
ATOM     18  C   UNL     1      -0.108  11.005  21.273  0.00  0.00    +0.000 C 
ATOM     19  C   UNL     1       0.196   9.910  22.276  0.00  0.00    +0.000 C 
ATOM     20  C   UNL     1      -1.196  10.652  20.272  0.00  0.00    +0.000 C 
ENDBRANCH   8  13
BRANCH   5  21
ATOM     21  N   UNL     1      -5.587  13.074  23.449  0.00  0.00    +0.000 N 
ATOM     22  O   UNL     1      -5.233  12.201  24.258  0.00  0.00    +0.000 OA
ATOM     23  O   UNL     1      -6.101  14.164  23.745  0.00  0.00    +0.000 OA
ENDBRANCH   5  21
TORSDOF 2
ENDMDL
MODEL 6
REMARK VINA RESULT:      -5.5      2.549      4.243
REMARK  Name = 
REMARK  7 active torsions:
REMARK  status: ('A' for Active; 'I' for Inactive)
REMARK    1  A    between atoms: C_1  and  C_2
REMARK    2  A    between atoms: C_5  and  N_6
REMARK    3  A    between atoms: C_11  and  N_12
REMARK    4  A    between atoms: C_14  and  C_15
REMARK    5  A    between atoms: C_17  and  C_18
REMARK    6  A    between atoms: C_20  and  C_21
REMARK    7  A    between atoms: C_20  and  C_22
REMARK                            x       y       z     vdW  Elec       q    Type
REMARK                         _______ _______ _______ _____ _____    ______ ____
ROOT
ATOM      1  C   UNL     1       0.716  12.630  20.783  0.00  0.00    +0.000 C 
ATOM      2  C   UNL     1      -0.384  12.099  19.908  0.00  0.00    +0.000 A 
ATOM      3  C   UNL     1      -0.047  11.305  18.804  0.00  0.00    +0.000 A 
ATOM      4  C   UNL     1      -1.032  10.789  17.946  0.00  0.00    +0.000 A 
ATOM      5  C   UNL     1      -2.360  11.133  18.179  0.00  0.00    +0.000 A 
ATOM      6  C   UNL     1      -2.697  11.957  19.235  0.00  0.00    +0.000 A 
ATOM      7  C   UNL     1      -1.744  12.365  20.152  0.00  0.00    +0.000 A 
ATOM      8  C   UNL     1      -2.425  13.072  21.310  0.00  0.00    +0.000 C 
ATOM      9  C   UNL     1      -3.965  13.149  20.701  0.00  0.00    +0.000 C 
ATOM     10  C   UNL     1      -4.270  14.640  20.434  0.00  0.00    +0.000 C 
ATOM     11  C   UNL     1      -5.305  12.586  21.252  0.00  0.00    +0.000 C 
ATOM     12  O   UNL     1      -3.941  12.472  19.409  0.00  0.00    +0.000 OA
ENDROOT
BRANCH   8  13
ATOM     13  N   UNL     1      -1.862  12.628  22.622  0.00  0.00    +0.000 NA
ATOM     14  C   UNL     1      -1.142  13.655  23.396  0.00  0.00    +0.000 C 
ATOM     15  C   UNL     1      -2.134  14.656  23.987  0.00  0.00    +0.000 C 
ATOM     16  C   UNL     1      -1.504  15.793  24.767  0.00  0.00    +0.000 C 
ATOM     17  O   UNL     1      -3.184  14.035  24.752  0.00  0.00    +0.000 OA
ATOM     18  C   UNL     1      -3.812  12.928  24.073  0.00  0.00    +0.000 C 
ATOM     19  C   UNL     1      -4.889  12.306  24.939  0.00  0.00    +0.000 C 
ATOM     20  C   UNL     1      -2.780  11.940  23.553  0.00  0.00    +0.000 C 
ENDBRANCH   8  13
BRANCH   5  21
ATOM     21  N   UNL     1      -3.401  10.568  17.352  0.00  0.00    +0.000 N 
ATOM     22  O   UNL     1      -3.871   9.480  17.724  0.00  0.00    +0.000 OA
ATOM     23  O   UNL     1      -3.803  11.231  16.383  0.00  0.00    +0.000 OA
ENDBRANCH   5  21
TORSDOF 2
ENDMDL
MODEL 7
REMARK VINA RESULT:      -5.5      1.937      2.317
REMARK  Name = 
REMARK  7 active torsions:
REMARK  status: ('A' for Active; 'I' for Inactive)
REMARK    1  A    between atoms: C_1  and  C_2
REMARK    2  A    between atoms: C_5  and  N_6
REMARK    3  A    between atoms: C_11  and  N_12
REMARK    4  A    between atoms: C_14  and  C_15
REMARK    5  A    between atoms: C_17  and  C_18
REMARK    6  A    between atoms: C_20  and  C_21
REMARK    7  A    between atoms: C_20  and  C_22
REMARK                            x       y       z     vdW  Elec       q    Type
REMARK                         _______ _______ _______ _____ _____    ______ ____
ROOT
ATOM      1  C   UNL     1      -4.690  12.193  18.255  0.00  0.00    +0.000 C 
ATOM      2  C   UNL     1      -5.321  12.258  19.618  0.00  0.00    +0.000 A 
ATOM      3  C   UNL     1      -6.559  11.633  19.820  0.00  0.00    +0.000 A 
ATOM      4  C   UNL     1      -7.200  11.668  21.069  0.00  0.00    +0.000 A 
ATOM      5  C   UNL     1      -6.607  12.392  22.098  0.00  0.00    +0.000 A 
ATOM      6  C   UNL     1      -5.411  13.053  21.894  0.00  0.00    +0.000 A 
ATOM      7  C   UNL     1      -4.718  12.919  20.704  0.00  0.00    +0.000 A 
ATOM      8  C   UNL     1      -3.353  13.569  20.836  0.00  0.00    +0.000 C 
ATOM      9  C   UNL     1      -3.549  14.289  22.317  0.00  0.00    +0.000 C 
ATOM     10  C   UNL     1      -3.555  15.815  22.079  0.00  0.00    +0.000 C 
ATOM     11  C   UNL     1      -2.752  14.120  23.641  0.00  0.00    +0.000 C 
ATOM     12  O   UNL     1      -4.876  13.917  22.793  0.00  0.00    +0.000 OA
ENDROOT
BRANCH   8  13
ATOM     13  N   UNL     1      -2.283  12.707  20.248  0.00  0.00    +0.000 NA
ATOM     14  C   UNL     1      -1.010  13.380  19.935  0.00  0.00    +0.000 C 
ATOM     15  C   UNL     1      -0.256  13.700  21.225  0.00  0.00    +0.000 C 
ATOM     16  C   UNL     1       1.052  14.444  21.031  0.00  0.00    +0.000 C 
ATOM     17  O   UNL     1      -0.069  12.554  22.076  0.00  0.00    +0.000 OA
ATOM     18  C   UNL     1      -1.275  11.790  22.283  0.00  0.00    +0.000 C 
ATOM     19  C   UNL     1      -1.005  10.588  23.166  0.00  0.00    +0.000 C 
ATOM     20  C   UNL     1      -1.952  11.457  20.964  0.00  0.00    +0.000 C 
ENDBRANCH   8  13
BRANCH   5  21
ATOM     21  N   UNL     1      -7.210  12.395  23.411  0.00  0.00    +0.000 N 
ATOM     22  O   UNL     1      -7.916  13.378  23.691  0.00  0.00    +0.000 OA
ATOM     23  O   UNL     1      -7.048  11.397  24.132  0.00  0.00    +0.000 OA
ENDBRANCH   5  21
TORSDOF 2
ENDMDL
MODEL 8
REMARK VINA RESULT:      -5.4     11.592     13.022
REMARK  Name = 
REMARK  7 active torsions:
REMARK  status: ('A' for Active; 'I' for Inactive)
REMARK    1  A    between atoms: C_1  and  C_2
REMARK    2  A    between atoms: C_5  and  N_6
REMARK    3  A    between atoms: C_11  and  N_12
REMARK    4  A    between atoms: C_14  and  C_15
REMARK    5  A    between atoms: C_17  and  C_18
REMARK    6  A    between atoms: C_20  and  C_21
REMARK    7  A    between atoms: C_20  and  C_22
REMARK                            x       y       z     vdW  Elec       q    Type
REMARK                         _______ _______ _______ _____ _____    ______ ____
ROOT
ATOM      1  C   UNL     1       8.226  11.541  23.128  0.00  0.00    +0.000 C 
ATOM      2  C   UNL     1       8.336  13.040  23.117  0.00  0.00    +0.000 A 
ATOM      3  C   UNL     1       8.200  13.736  24.326  0.00  0.00    +0.000 A 
ATOM      4  C   UNL     1       8.285  15.137  24.375  0.00  0.00    +0.000 A 
ATOM      5  C   UNL     1       8.448  15.834  23.181  0.00  0.00    +0.000 A 
ATOM      6  C   UNL     1       8.532  15.159  21.980  0.00  0.00    +0.000 A 
ATOM      7  C   UNL     1       8.573  13.776  21.941  0.00  0.00    +0.000 A 
ATOM      8  C   UNL     1       8.882  13.316  20.528  0.00  0.00    +0.000 C 
ATOM      9  C   UNL     1       8.783  14.778  19.751  0.00  0.00    +0.000 C 
ATOM     10  C   UNL     1       7.547  14.713  18.827  0.00  0.00    +0.000 C 
ATOM     11  C   UNL     1       9.836  15.556  18.913  0.00  0.00    +0.000 C 
ATOM     12  O   UNL     1       8.510  15.781  20.773  0.00  0.00    +0.000 OA
ENDROOT
BRANCH   8  13
ATOM     13  N   UNL     1       9.898  12.220  20.525  0.00  0.00    +0.000 NA
ATOM     14  C   UNL     1       9.399  10.878  20.178  0.00  0.00    +0.000 C 
ATOM     15  C   UNL     1       9.091  10.804  18.683  0.00  0.00    +0.000 C 
ATOM     16  C   UNL     1       8.519   9.480  18.214  0.00  0.00    +0.000 C 
ATOM     17  O   UNL     1      10.197  11.204  17.852  0.00  0.00    +0.000 OA
ATOM     18  C   UNL     1      10.800  12.449  18.260  0.00  0.00    +0.000 C 
ATOM     19  C   UNL     1      11.970  12.800  17.361  0.00  0.00    +0.000 C 
ATOM     20  C   UNL     1      11.132  12.444  19.743  0.00  0.00    +0.000 C 
ENDBRANCH   8  13
BRANCH   5  21
ATOM     21  N   UNL     1       8.601  17.271  23.207  0.00  0.00    +0.000 N 
ATOM     22  O   UNL     1       7.554  17.935  23.281  0.00  0.00    +0.000 OA
ATOM     23  O   UNL     1       9.751  17.736  23.229  0.00  0.00    +0.000 OA
ENDBRANCH   5  21
TORSDOF 2
ENDMDL
MODEL 9
REMARK VINA RESULT:      -5.4      2.213      3.336
REMARK  Name = 
REMARK  7 active torsions:
REMARK  status: ('A' for Active; 'I' for Inactive)
REMARK    1  A    between atoms: C_1  and  C_2
REMARK    2  A    between atoms: C_5  and  N_6
REMARK    3  A    between atoms: C_11  and  N_12
REMARK    4  A    between atoms: C_14  and  C_15
REMARK    5  A    between atoms: C_17  and  C_18
REMARK    6  A    between atoms: C_20  and  C_21
REMARK    7  A    between atoms: C_20  and  C_22
REMARK                            x       y       z     vdW  Elec       q    Type
REMARK                         _______ _______ _______ _____ _____    ______ ____
ROOT
ATOM      1  C   UNL     1      -0.876  11.941  19.335  0.00  0.00    +0.000 C 
ATOM      2  C   UNL     1      -2.345  11.777  19.062  0.00  0.00    +0.000 A 
ATOM      3  C   UNL     1      -2.752  10.856  18.087  0.00  0.00    +0.000 A 
ATOM      4  C   UNL     1      -4.110  10.666  17.784  0.00  0.00    +0.000 A 
ATOM      5  C   UNL     1      -5.052  11.460  18.431  0.00  0.00    +0.000 A 
ATOM      6  C   UNL     1      -4.655  12.406  19.357  0.00  0.00    +0.000 A 
ATOM      7  C   UNL     1      -3.332  12.509  19.747  0.00  0.00    +0.000 A 
ATOM      8  C   UNL     1      -3.222  13.469  20.918  0.00  0.00    +0.000 C 
ATOM      9  C   UNL     1      -4.779  14.041  20.934  0.00  0.00    +0.000 C 
ATOM     10  C   UNL     1      -4.717  15.528  20.522  0.00  0.00    +0.000 C 
ATOM     11  C   UNL     1      -5.861  14.006  22.049  0.00  0.00    +0.000 C 
ATOM     12  O   UNL     1      -5.499  13.328  19.886  0.00  0.00    +0.000 OA
ENDROOT
BRANCH   8  13
ATOM     13  N   UNL     1      -2.316  12.930  21.977  0.00  0.00    +0.000 NA
ATOM     14  C   UNL     1      -1.411  13.906  22.611  0.00  0.00    +0.000 C 
ATOM     15  C   UNL     1      -2.201  14.826  23.540  0.00  0.00    +0.000 C 
ATOM     16  C   UNL     1      -1.380  15.910  24.212  0.00  0.00    +0.000 C 
ATOM     17  O   UNL     1      -2.996  14.115  24.507  0.00  0.00    +0.000 OA
ATOM     18  C   UNL     1      -3.786  13.054  23.932  0.00  0.00    +0.000 C 
ATOM     19  C   UNL     1      -4.579  12.333  25.004  0.00  0.00    +0.000 C 
ATOM     20  C   UNL     1      -2.937  12.142  23.061  0.00  0.00    +0.000 C 
ENDBRANCH   8  13
BRANCH   5  21
ATOM     21  N   UNL     1      -6.459  11.245  18.185  0.00  0.00    +0.000 N 
ATOM     22  O   UNL     1      -6.979  10.277  18.764  0.00  0.00    +0.000 OA
ATOM     23  O   UNL     1      -7.063  12.072  17.483  0.00  0.00    +0.000 OA
ENDBRANCH   5  21
TORSDOF 2
ENDMDL
