MODEL 1
REMARK VINA RESULT:      -9.6      0.000      0.000
REMARK  Name = 
REMARK  7 active torsions:
REMARK  status: ('A' for Active; 'I' for Inactive)
REMARK    1  A    between atoms: C_13  and  N_14
REMARK    2  A    between atoms: N_14  and  C_15
REMARK    3  A    between atoms: C_15  and  C_16
REMARK    4  A    between atoms: C_16  and  O_17
REMARK    5  A    between atoms: C_16  and  C_18
REMARK    6  A    between atoms: C_18  and  O_19
REMARK    7  A    between atoms: O_19  and  C_20
REMARK                            x       y       z     vdW  Elec       q    Type
REMARK                         _______ _______ _______ _____ _____    ______ ____
ROOT
ATOM      1  C   UNL     1       1.661   3.731  19.479  0.00  0.00    +0.000 C 
ENDROOT
BRANCH   1   2
ATOM      2  N   UNL     1       2.458   4.849  19.978  0.00  0.00    +0.000 N 
ATOM      3  H   UNL     1       2.684   4.767  20.971  0.00  0.00    +0.000 HD
BRANCH   2  16
ATOM      4  O   UNL     1       2.029  10.721  17.467  0.00  0.00    +0.000 OA
ATOM      5  C   UNL     1       1.642  10.297  18.551  0.00  0.00    +0.000 C 
ATOM      6  C   UNL     1       1.004  11.202  19.525  0.00  0.00    +0.000 A 
ATOM      7  C   UNL     1       0.865  12.561  19.215  0.00  0.00    +0.000 A 
ATOM      8  C   UNL     1       0.301  13.435  20.146  0.00  0.00    +0.000 A 
ATOM      9  C   UNL     1      -0.123  12.953  21.384  0.00  0.00    +0.000 A 
ATOM     10  C   UNL     1       0.000  11.596  21.688  0.00  0.00    +0.000 A 
ATOM     11  C   UNL     1       0.559  10.715  20.752  0.00  0.00    +0.000 A 
ATOM     12  C   UNL     1       0.672   9.276  21.073  0.00  0.00    +0.000 C 
ATOM     13  O   UNL     1       0.220   8.839  22.124  0.00  0.00    +0.000 OA
ATOM     14  C   UNL     1       1.341   8.376  20.111  0.00  0.00    +0.000 A 
ATOM     15  C   UNL     1       1.522   7.019  20.427  0.00  0.00    +0.000 A 
ATOM     16  C   UNL     1       2.200   6.152  19.557  0.00  0.00    +0.000 A 
ATOM     17  C   UNL     1       2.713   6.693  18.370  0.00  0.00    +0.000 A 
ATOM     18  C   UNL     1       2.511   8.034  18.033  0.00  0.00    +0.000 A 
ATOM     19  C   UNL     1       1.824   8.877  18.907  0.00  0.00    +0.000 A 
ENDBRANCH   2  16
ENDBRANCH   1   2
BRANCH   1  20
ATOM     20  C   UNL     1       2.549   2.709  18.743  0.00  0.00    +0.000 C 
BRANCH  20  21
ATOM     21  O   UNL     1       1.802   1.501  18.529  0.00  0.00    +0.000 OA
ATOM     22  H   UNL     1       0.989   1.726  18.046  0.00  0.00    +0.000 HD
ENDBRANCH  20  21
BRANCH  20  23
ATOM     23  C   UNL     1       3.032   3.331  17.420  0.00  0.00    +0.000 C 
BRANCH  23  24
ATOM     24  O   UNL     1       4.414   3.036  17.212  0.00  0.00    +0.000 OA
BRANCH  24  25
ATOM     25  C   UNL     1       5.303   4.055  17.467  0.00  0.00    +0.000 A 
ATOM     26  C   UNL     1       5.527   4.597  18.745  0.00  0.00    +0.000 A 
ATOM     27  C   UNL     1       6.484   5.590  18.958  0.00  0.00    +0.000 A 
ATOM     28  C   UNL     1       7.262   6.075  17.909  0.00  0.00    +0.000 A 
ATOM     29  C   UNL     1       7.037   5.533  16.640  0.00  0.00    +0.000 A 
ATOM     30  N   UNL     1       7.662   5.817  15.448  0.00  0.00    +0.000 N 
ATOM     31  C   UNL     1       7.130   5.073  14.423  0.00  0.00    +0.000 A 
ATOM     32  C   UNL     1       7.458   5.054  13.062  0.00  0.00    +0.000 A 
ATOM     33  C   UNL     1       6.729   4.197  12.234  0.00  0.00    +0.000 A 
ATOM     34  C   UNL     1       5.715   3.394  12.749  0.00  0.00    +0.000 A 
ATOM     35  C   UNL     1       5.408   3.419  14.116  0.00  0.00    +0.000 A 
ATOM     36  C   UNL     1       6.129   4.274  14.976  0.00  0.00    +0.000 A 
ATOM     37  C   UNL     1       6.080   4.549  16.388  0.00  0.00    +0.000 A 
ATOM     38  H   UNL     1       8.408   6.487  15.336  0.00  0.00    +0.000 HD
ENDBRANCH  24  25
ENDBRANCH  23  24
ENDBRANCH  20  23
ENDBRANCH   1  20
TORSDOF 7
ENDMDL
MODEL 2
REMARK VINA RESULT:      -9.4      3.464      9.696
REMARK  Name = 
REMARK  7 active torsions:
REMARK  status: ('A' for Active; 'I' for Inactive)
REMARK    1  A    between atoms: C_13  and  N_14
REMARK    2  A    between atoms: N_14  and  C_15
REMARK    3  A    between atoms: C_15  and  C_16
REMARK    4  A    between atoms: C_16  and  O_17
REMARK    5  A    between atoms: C_16  and  C_18
REMARK    6  A    between atoms: C_18  and  O_19
REMARK    7  A    between atoms: O_19  and  C_20
REMARK                            x       y       z     vdW  Elec       q    Type
REMARK                         _______ _______ _______ _____ _____    ______ ____
ROOT
ATOM      1  C   UNL     1      -0.417   9.215  21.491  0.00  0.00    +0.000 C 
ENDROOT
BRANCH   1   2
ATOM      2  N   UNL     1       0.742   9.660  20.721  0.00  0.00    +0.000 N 
ATOM      3  H   UNL     1       0.586  10.550  20.244  0.00  0.00    +0.000 HD
BRANCH   2  16
ATOM      4  O   UNL     1       4.117   6.063  16.643  0.00  0.00    +0.000 OA
ATOM      5  C   UNL     1       3.534   5.749  17.675  0.00  0.00    +0.000 C 
ATOM      6  C   UNL     1       3.503   4.342  18.118  0.00  0.00    +0.000 A 
ATOM      7  C   UNL     1       4.123   3.358  17.337  0.00  0.00    +0.000 A 
ATOM      8  C   UNL     1       4.064   2.019  17.726  0.00  0.00    +0.000 A 
ATOM      9  C   UNL     1       3.386   1.662  18.891  0.00  0.00    +0.000 A 
ATOM     10  C   UNL     1       2.781   2.644  19.679  0.00  0.00    +0.000 A 
ATOM     11  C   UNL     1       2.845   3.989  19.296  0.00  0.00    +0.000 A 
ATOM     12  C   UNL     1       2.216   5.027  20.142  0.00  0.00    +0.000 C 
ATOM     13  O   UNL     1       1.697   4.723  21.209  0.00  0.00    +0.000 OA
ATOM     14  C   UNL     1       2.220   6.430  19.681  0.00  0.00    +0.000 A 
ATOM     15  C   UNL     1       1.567   7.419  20.435  0.00  0.00    +0.000 A 
ATOM     16  C   UNL     1       1.508   8.751  19.996  0.00  0.00    +0.000 A 
ATOM     17  C   UNL     1       2.103   9.055  18.764  0.00  0.00    +0.000 A 
ATOM     18  C   UNL     1       2.781   8.084  18.022  0.00  0.00    +0.000 A 
ATOM     19  C   UNL     1       2.839   6.769  18.482  0.00  0.00    +0.000 A 
ENDBRANCH   2  16
ENDBRANCH   1   2
BRANCH   1  20
ATOM     20  C   UNL     1      -0.586  10.062  22.767  0.00  0.00    +0.000 C 
BRANCH  20  21
ATOM     21  O   UNL     1       0.485   9.764  23.677  0.00  0.00    +0.000 OA
ATOM     22  H   UNL     1       0.102   9.388  24.488  0.00  0.00    +0.000 HD
ENDBRANCH  20  21
BRANCH  20  23
ATOM     23  C   UNL     1      -0.613  11.552  22.377  0.00  0.00    +0.000 C 
BRANCH  23  24
ATOM     24  O   UNL     1      -1.126  11.705  21.053  0.00  0.00    +0.000 OA
BRANCH  24  25
ATOM     25  C   UNL     1      -2.373  12.274  20.941  0.00  0.00    +0.000 A 
ATOM     26  C   UNL     1      -2.955  13.088  21.929  0.00  0.00    +0.000 A 
ATOM     27  C   UNL     1      -4.200  13.688  21.738  0.00  0.00    +0.000 A 
ATOM     28  C   UNL     1      -4.910  13.509  20.553  0.00  0.00    +0.000 A 
ATOM     29  C   UNL     1      -4.329  12.700  19.573  0.00  0.00    +0.000 A 
ATOM     30  N   UNL     1      -4.800  12.369  18.324  0.00  0.00    +0.000 N 
ATOM     31  C   UNL     1      -3.928  11.530  17.674  0.00  0.00    +0.000 A 
ATOM     32  C   UNL     1      -4.018  10.949  16.404  0.00  0.00    +0.000 A 
ATOM     33  C   UNL     1      -2.976  10.109  16.002  0.00  0.00    +0.000 A 
ATOM     34  C   UNL     1      -1.891   9.863  16.839  0.00  0.00    +0.000 A 
ATOM     35  C   UNL     1      -1.814  10.462  18.103  0.00  0.00    +0.000 A 
ATOM     36  C   UNL     1      -2.851  11.316  18.534  0.00  0.00    +0.000 A 
ATOM     37  C   UNL     1      -3.092  12.073  19.734  0.00  0.00    +0.000 A 
ATOM     38  H   UNL     1      -5.672  12.694  17.935  0.00  0.00    +0.000 HD
ENDBRANCH  24  25
ENDBRANCH  23  24
ENDBRANCH  20  23
ENDBRANCH   1  20
TORSDOF 7
ENDMDL
MODEL 3
REMARK VINA RESULT:      -9.3      3.228      9.699
REMARK  Name = 
REMARK  7 active torsions:
REMARK  status: ('A' for Active; 'I' for Inactive)
REMARK    1  A    between atoms: C_13  and  N_14
REMARK    2  A    between atoms: N_14  and  C_15
REMARK    3  A    between atoms: C_15  and  C_16
REMARK    4  A    between atoms: C_16  and  O_17
REMARK    5  A    between atoms: C_16  and  C_18
REMARK    6  A    between atoms: C_18  and  O_19
REMARK    7  A    between atoms: O_19  and  C_20
REMARK                            x       y       z     vdW  Elec       q    Type
REMARK                         _______ _______ _______ _____ _____    ______ ____
ROOT
ATOM      1  C   UNL     1       1.470   8.569  21.257  0.00  0.00    +0.000 C 
ENDROOT
BRANCH   1   2
ATOM      2  N   UNL     1       1.308   7.129  21.441  0.00  0.00    +0.000 N 
ATOM      3  H   UNL     1       1.393   6.839  22.417  0.00  0.00    +0.000 HD
BRANCH   2  16
ATOM      4  O   UNL     1       3.821   2.369  17.978  0.00  0.00    +0.000 OA
ATOM      5  C   UNL     1       3.895   3.583  17.820  0.00  0.00    +0.000 C 
ATOM      6  C   UNL     1       4.697   4.147  16.719  0.00  0.00    +0.000 A 
ATOM      7  C   UNL     1       5.399   3.286  15.865  0.00  0.00    +0.000 A 
ATOM      8  C   UNL     1       6.195   3.811  14.845  0.00  0.00    +0.000 A 
ATOM      9  C   UNL     1       6.290   5.192  14.678  0.00  0.00    +0.000 A 
ATOM     10  C   UNL     1       5.578   6.051  15.518  0.00  0.00    +0.000 A 
ATOM     11  C   UNL     1       4.772   5.527  16.537  0.00  0.00    +0.000 A 
ATOM     12  C   UNL     1       4.008   6.441  17.414  0.00  0.00    +0.000 C 
ATOM     13  O   UNL     1       4.023   7.648  17.211  0.00  0.00    +0.000 OA
ATOM     14  C   UNL     1       3.231   5.876  18.537  0.00  0.00    +0.000 A 
ATOM     15  C   UNL     1       2.555   6.732  19.423  0.00  0.00    +0.000 A 
ATOM     16  C   UNL     1       1.853   6.229  20.529  0.00  0.00    +0.000 A 
ATOM     17  C   UNL     1       1.870   4.842  20.733  0.00  0.00    +0.000 A 
ATOM     18  C   UNL     1       2.514   3.982  19.840  0.00  0.00    +0.000 A 
ATOM     19  C   UNL     1       3.196   4.501  18.739  0.00  0.00    +0.000 A 
ENDBRANCH   2  16
ENDBRANCH   1   2
BRANCH   1  20
ATOM     20  C   UNL     1       0.101   9.278  21.240  0.00  0.00    +0.000 C 
BRANCH  20  21
ATOM     21  O   UNL     1      -0.735   8.712  22.262  0.00  0.00    +0.000 OA
ATOM     22  H   UNL     1      -0.882   9.388  22.945  0.00  0.00    +0.000 HD
ENDBRANCH  20  21
BRANCH  20  23
ATOM     23  C   UNL     1       0.319  10.788  21.442  0.00  0.00    +0.000 C 
BRANCH  23  24
ATOM     24  O   UNL     1      -0.298  11.521  20.383  0.00  0.00    +0.000 OA
BRANCH  24  25
ATOM     25  C   UNL     1      -1.509  12.108  20.667  0.00  0.00    +0.000 A 
ATOM     26  C   UNL     1      -1.767  12.843  21.838  0.00  0.00    +0.000 A 
ATOM     27  C   UNL     1      -2.997  13.468  22.049  0.00  0.00    +0.000 A 
ATOM     28  C   UNL     1      -4.013  13.393  21.100  0.00  0.00    +0.000 A 
ATOM     29  C   UNL     1      -3.753  12.663  19.937  0.00  0.00    +0.000 A 
ATOM     30  N   UNL     1      -4.562  12.441  18.847  0.00  0.00    +0.000 N 
ATOM     31  C   UNL     1      -3.932  11.650  17.918  0.00  0.00    +0.000 A 
ATOM     32  C   UNL     1      -4.389  11.177  16.682  0.00  0.00    +0.000 A 
ATOM     33  C   UNL     1      -3.527  10.364  15.942  0.00  0.00    +0.000 A 
ATOM     34  C   UNL     1      -2.260  10.041  16.421  0.00  0.00    +0.000 A 
ATOM     35  C   UNL     1      -1.816  10.532  17.655  0.00  0.00    +0.000 A 
ATOM     36  C   UNL     1      -2.666  11.357  18.423  0.00  0.00    +0.000 A 
ATOM     37  C   UNL     1      -2.540  12.014  19.697  0.00  0.00    +0.000 A 
ATOM     38  H   UNL     1      -5.498  12.804  18.743  0.00  0.00    +0.000 HD
ENDBRANCH  24  25
ENDBRANCH  23  24
ENDBRANCH  20  23
ENDBRANCH   1  20
TORSDOF 7
ENDMDL
MODEL 4
REMARK VINA RESULT:      -9.2      3.834      6.349
REMARK  Name = 
REMARK  7 active torsions:
REMARK  status: ('A' for Active; 'I' for Inactive)
REMARK    1  A    between atoms: C_13  and  N_14
REMARK    2  A    between atoms: N_14  and  C_15
REMARK    3  A    between atoms: C_15  and  C_16
REMARK    4  A    between atoms: C_16  and  O_17
REMARK    5  A    between atoms: C_16  and  C_18
REMARK    6  A    between atoms: C_18  and  O_19
REMARK    7  A    between atoms: O_19  and  C_20
REMARK                            x       y       z     vdW  Elec       q    Type
REMARK                         _______ _______ _______ _____ _____    ______ ____
ROOT
ATOM      1  C   UNL     1       1.126   9.371  19.584  0.00  0.00    +0.000 C 
ENDROOT
BRANCH   1   2
ATOM      2  N   UNL     1       1.023  10.828  19.598  0.00  0.00    +0.000 N 
ATOM      3  H   UNL     1       1.826  11.281  20.037  0.00  0.00    +0.000 HD
BRANCH   2  16
ATOM      4  O   UNL     1      -4.338  13.627  21.694  0.00  0.00    +0.000 OA
ATOM      5  C   UNL     1      -4.120  13.024  20.649  0.00  0.00    +0.000 C 
ATOM      6  C   UNL     1      -5.201  12.811  19.668  0.00  0.00    +0.000 A 
ATOM      7  C   UNL     1      -6.491  13.282  19.950  0.00  0.00    +0.000 A 
ATOM      8  C   UNL     1      -7.530  13.050  19.048  0.00  0.00    +0.000 A 
ATOM      9  C   UNL     1      -7.284  12.349  17.867  0.00  0.00    +0.000 A 
ATOM     10  C   UNL     1      -5.996  11.893  17.579  0.00  0.00    +0.000 A 
ATOM     11  C   UNL     1      -4.949  12.131  18.478  0.00  0.00    +0.000 A 
ATOM     12  C   UNL     1      -3.584  11.660  18.159  0.00  0.00    +0.000 C 
ATOM     13  O   UNL     1      -3.351  11.122  17.084  0.00  0.00    +0.000 OA
ATOM     14  C   UNL     1      -2.509  11.844  19.157  0.00  0.00    +0.000 A 
ATOM     15  C   UNL     1      -1.222  11.341  18.903  0.00  0.00    +0.000 A 
ATOM     16  C   UNL     1      -0.195  11.454  19.852  0.00  0.00    +0.000 A 
ATOM     17  C   UNL     1      -0.505  12.065  21.075  0.00  0.00    +0.000 A 
ATOM     18  C   UNL     1      -1.774  12.595  21.324  0.00  0.00    +0.000 A 
ATOM     19  C   UNL     1      -2.778  12.484  20.362  0.00  0.00    +0.000 A 
ENDBRANCH   2  16
ENDBRANCH   1   2
BRANCH   1  20
ATOM     20  C   UNL     1       1.580   8.866  18.200  0.00  0.00    +0.000 C 
BRANCH  20  21
ATOM     21  O   UNL     1       1.836   9.994  17.348  0.00  0.00    +0.000 OA
ATOM     22  H   UNL     1       2.309  10.667  17.865  0.00  0.00    +0.000 HD
ENDBRANCH  20  21
BRANCH  20  23
ATOM     23  C   UNL     1       2.827   7.981  18.377  0.00  0.00    +0.000 C 
BRANCH  23  24
ATOM     24  O   UNL     1       2.730   6.821  17.551  0.00  0.00    +0.000 OA
BRANCH  24  25
ATOM     25  C   UNL     1       3.860   6.042  17.452  0.00  0.00    +0.000 A 
ATOM     26  C   UNL     1       4.926   6.316  16.577  0.00  0.00    +0.000 A 
ATOM     27  C   UNL     1       6.076   5.525  16.560  0.00  0.00    +0.000 A 
ATOM     28  C   UNL     1       6.212   4.436  17.418  0.00  0.00    +0.000 A 
ATOM     29  C   UNL     1       5.150   4.167  18.286  0.00  0.00    +0.000 A 
ATOM     30  N   UNL     1       5.028   3.176  19.232  0.00  0.00    +0.000 N 
ATOM     31  C   UNL     1       3.811   3.247  19.866  0.00  0.00    +0.000 A 
ATOM     32  C   UNL     1       3.275   2.438  20.875  0.00  0.00    +0.000 A 
ATOM     33  C   UNL     1       1.986   2.736  21.326  0.00  0.00    +0.000 A 
ATOM     34  C   UNL     1       1.268   3.801  20.788  0.00  0.00    +0.000 A 
ATOM     35  C   UNL     1       1.826   4.606  19.787  0.00  0.00    +0.000 A 
ATOM     36  C   UNL     1       3.126   4.328  19.313  0.00  0.00    +0.000 A 
ATOM     37  C   UNL     1       3.980   4.928  18.323  0.00  0.00    +0.000 A 
ATOM     38  H   UNL     1       5.733   2.483  19.433  0.00  0.00    +0.000 HD
ENDBRANCH  24  25
ENDBRANCH  23  24
ENDBRANCH  20  23
ENDBRANCH   1  20
TORSDOF 7
ENDMDL
MODEL 5
REMARK VINA RESULT:      -9.2      0.637      1.953
REMARK  Name = 
REMARK  7 active torsions:
REMARK  status: ('A' for Active; 'I' for Inactive)
REMARK    1  A    between atoms: C_13  and  N_14
REMARK    2  A    between atoms: N_14  and  C_15
REMARK    3  A    between atoms: C_15  and  C_16
REMARK    4  A    between atoms: C_16  and  O_17
REMARK    5  A    between atoms: C_16  and  C_18
REMARK    6  A    between atoms: C_18  and  O_19
REMARK    7  A    between atoms: O_19  and  C_20
REMARK                            x       y       z     vdW  Elec       q    Type
REMARK                         _______ _______ _______ _____ _____    ______ ____
ROOT
ATOM      1  C   UNL     1       1.862   4.116  19.409  0.00  0.00    +0.000 C 
ENDROOT
BRANCH   1   2
ATOM      2  N   UNL     1       2.411   5.390  18.949  0.00  0.00    +0.000 N 
ATOM      3  H   UNL     1       3.394   5.326  18.678  0.00  0.00    +0.000 HD
BRANCH   2  16
ATOM      4  O   UNL     1       0.332  10.326  22.452  0.00  0.00    +0.000 OA
ATOM      5  C   UNL     1       0.700  10.289  21.283  0.00  0.00    +0.000 C 
ATOM      6  C   UNL     1       0.658  11.502  20.445  0.00  0.00    +0.000 A 
ATOM      7  C   UNL     1       0.168  12.698  20.987  0.00  0.00    +0.000 A 
ATOM      8  C   UNL     1       0.085  13.841  20.192  0.00  0.00    +0.000 A 
ATOM      9  C   UNL     1       0.489  13.792  18.858  0.00  0.00    +0.000 A 
ATOM     10  C   UNL     1       0.992  12.606  18.321  0.00  0.00    +0.000 A 
ATOM     11  C   UNL     1       1.084  11.458  19.119  0.00  0.00    +0.000 A 
ATOM     12  C   UNL     1       1.633  10.208  18.550  0.00  0.00    +0.000 C 
ATOM     13  O   UNL     1       2.068  10.189  17.405  0.00  0.00    +0.000 OA
ATOM     14  C   UNL     1       1.644   8.985  19.379  0.00  0.00    +0.000 A 
ATOM     15  C   UNL     1       2.096   7.771  18.834  0.00  0.00    +0.000 A 
ATOM     16  C   UNL     1       2.069   6.583  19.580  0.00  0.00    +0.000 A 
ATOM     17  C   UNL     1       1.552   6.644  20.881  0.00  0.00    +0.000 A 
ATOM     18  C   UNL     1       1.129   7.853  21.442  0.00  0.00    +0.000 A 
ATOM     19  C   UNL     1       1.175   9.025  20.688  0.00  0.00    +0.000 A 
ENDBRANCH   2  16
ENDBRANCH   1   2
BRANCH   1  20
ATOM     20  C   UNL     1       2.305   2.963  18.488  0.00  0.00    +0.000 C 
BRANCH  20  21
ATOM     21  O   UNL     1       1.172   2.129  18.197  0.00  0.00    +0.000 OA
ATOM     22  H   UNL     1       1.482   1.212  18.107  0.00  0.00    +0.000 HD
ENDBRANCH  20  21
BRANCH  20  23
ATOM     23  C   UNL     1       2.930   3.555  17.212  0.00  0.00    +0.000 C 
BRANCH  23  24
ATOM     24  O   UNL     1       4.301   3.169  17.108  0.00  0.00    +0.000 OA
BRANCH  24  25
ATOM     25  C   UNL     1       5.234   4.147  17.360  0.00  0.00    +0.000 A 
ATOM     26  C   UNL     1       5.468   4.697  18.633  0.00  0.00    +0.000 A 
ATOM     27  C   UNL     1       6.469   5.646  18.843  0.00  0.00    +0.000 A 
ATOM     28  C   UNL     1       7.282   6.078  17.797  0.00  0.00    +0.000 A 
ATOM     29  C   UNL     1       7.047   5.529  16.534  0.00  0.00    +0.000 A 
ATOM     30  N   UNL     1       7.699   5.764  15.346  0.00  0.00    +0.000 N 
ATOM     31  C   UNL     1       7.145   5.031  14.325  0.00  0.00    +0.000 A 
ATOM     32  C   UNL     1       7.488   4.975  12.969  0.00  0.00    +0.000 A 
ATOM     33  C   UNL     1       6.729   4.142  12.144  0.00  0.00    +0.000 A 
ATOM     34  C   UNL     1       5.671   3.396  12.657  0.00  0.00    +0.000 A 
ATOM     35  C   UNL     1       5.349   3.457  14.019  0.00  0.00    +0.000 A 
ATOM     36  C   UNL     1       6.100   4.289  14.876  0.00  0.00    +0.000 A 
ATOM     37  C   UNL     1       6.047   4.587  16.283  0.00  0.00    +0.000 A 
ATOM     38  H   UNL     1       8.478   6.395  15.234  0.00  0.00    +0.000 HD
ENDBRANCH  24  25
ENDBRANCH  23  24
ENDBRANCH  20  23
ENDBRANCH   1  20
TORSDOF 7
ENDMDL
MODEL 6
REMARK VINA RESULT:      -9.1      4.061      6.376
REMARK  Name = 
REMARK  7 active torsions:
REMARK  status: ('A' for Active; 'I' for Inactive)
REMARK    1  A    between atoms: C_13  and  N_14
REMARK    2  A    between atoms: N_14  and  C_15
REMARK    3  A    between atoms: C_15  and  C_16
REMARK    4  A    between atoms: C_16  and  O_17
REMARK    5  A    between atoms: C_16  and  C_18
REMARK    6  A    between atoms: C_18  and  O_19
REMARK    7  A    between atoms: O_19  and  C_20
REMARK                            x       y       z     vdW  Elec       q    Type
REMARK                         _______ _______ _______ _____ _____    ______ ____
ROOT
ATOM      1  C   UNL     1       1.633  10.185  18.156  0.00  0.00    +0.000 C 
ENDROOT
BRANCH   1   2
ATOM      2  N   UNL     1       0.228  10.006  17.795  0.00  0.00    +0.000 N 
ATOM      3  H   UNL     1       0.092   9.826  16.798  0.00  0.00    +0.000 HD
BRANCH   2  16
ATOM      4  O   UNL     1      -3.886  13.448  21.285  0.00  0.00    +0.000 OA
ATOM      5  C   UNL     1      -4.040  12.900  20.199  0.00  0.00    +0.000 C 
ATOM      6  C   UNL     1      -5.349  12.937  19.521  0.00  0.00    +0.000 A 
ATOM      7  C   UNL     1      -6.428  13.583  20.138  0.00  0.00    +0.000 A 
ATOM      8  C   UNL     1      -7.681  13.589  19.524  0.00  0.00    +0.000 A 
ATOM      9  C   UNL     1      -7.858  12.950  18.297  0.00  0.00    +0.000 A 
ATOM     10  C   UNL     1      -6.779  12.320  17.673  0.00  0.00    +0.000 A 
ATOM     11  C   UNL     1      -5.518  12.319  18.283  0.00  0.00    +0.000 A 
ATOM     12  C   UNL     1      -4.376  11.664  17.610  0.00  0.00    +0.000 C 
ATOM     13  O   UNL     1      -4.511  11.180  16.493  0.00  0.00    +0.000 OA
ATOM     14  C   UNL     1      -3.074  11.599  18.305  0.00  0.00    +0.000 A 
ATOM     15  C   UNL     1      -1.995  10.919  17.714  0.00  0.00    +0.000 A 
ATOM     16  C   UNL     1      -0.763  10.795  18.373  0.00  0.00    +0.000 A 
ATOM     17  C   UNL     1      -0.652  11.352  19.655  0.00  0.00    +0.000 A 
ATOM     18  C   UNL     1      -1.710  12.055  20.237  0.00  0.00    +0.000 A 
ATOM     19  C   UNL     1      -2.923  12.178  19.560  0.00  0.00    +0.000 A 
ENDBRANCH   2  16
ENDBRANCH   1   2
BRANCH   1  20
ATOM     20  C   UNL     1       2.180   8.932  18.867  0.00  0.00    +0.000 C 
BRANCH  20  21
ATOM     21  O   UNL     1       1.187   8.435  19.779  0.00  0.00    +0.000 OA
ATOM     22  H   UNL     1       0.379   8.963  19.668  0.00  0.00    +0.000 HD
ENDBRANCH  20  21
BRANCH  20  23
ATOM     23  C   UNL     1       2.566   7.885  17.806  0.00  0.00    +0.000 C 
BRANCH  23  24
ATOM     24  O   UNL     1       3.790   7.244  18.169  0.00  0.00    +0.000 OA
BRANCH  24  25
ATOM     25  C   UNL     1       4.176   6.177  17.391  0.00  0.00    +0.000 A 
ATOM     26  C   UNL     1       5.049   6.283  16.294  0.00  0.00    +0.000 A 
ATOM     27  C   UNL     1       5.455   5.157  15.575  0.00  0.00    +0.000 A 
ATOM     28  C   UNL     1       5.015   3.883  15.926  0.00  0.00    +0.000 A 
ATOM     29  C   UNL     1       4.148   3.782  17.018  0.00  0.00    +0.000 A 
ATOM     30  N   UNL     1       3.580   2.662  17.579  0.00  0.00    +0.000 N 
ATOM     31  C   UNL     1       2.768   2.997  18.635  0.00  0.00    +0.000 A 
ATOM     32  C   UNL     1       1.998   2.180  19.471  0.00  0.00    +0.000 A 
ATOM     33  C   UNL     1       1.244   2.804  20.468  0.00  0.00    +0.000 A 
ATOM     34  C   UNL     1       1.262   4.188  20.620  0.00  0.00    +0.000 A 
ATOM     35  C   UNL     1       2.047   4.988  19.779  0.00  0.00    +0.000 A 
ATOM     36  C   UNL     1       2.820   4.385  18.765  0.00  0.00    +0.000 A 
ATOM     37  C   UNL     1       3.711   4.886  17.752  0.00  0.00    +0.000 A 
ATOM     38  H   UNL     1       3.732   1.718  17.256  0.00  0.00    +0.000 HD
ENDBRANCH  24  25
ENDBRANCH  23  24
ENDBRANCH  20  23
ENDBRANCH   1  20
TORSDOF 7
ENDMDL
MODEL 7
REMARK VINA RESULT:      -9.0      4.148      5.971
REMARK  Name = 
REMARK  7 active torsions:
REMARK  status: ('A' for Active; 'I' for Inactive)
REMARK    1  A    between atoms: C_13  and  N_14
REMARK    2  A    between atoms: N_14  and  C_15
REMARK    3  A    between atoms: C_15  and  C_16
REMARK    4  A    between atoms: C_16  and  O_17
REMARK    5  A    between atoms: C_16  and  C_18
REMARK    6  A    between atoms: C_18  and  O_19
REMARK    7  A    between atoms: O_19  and  C_20
REMARK                            x       y       z     vdW  Elec       q    Type
REMARK                         _______ _______ _______ _____ _____    ______ ____
ROOT
ATOM      1  C   UNL     1       1.006  10.270  19.330  0.00  0.00    +0.000 C 
ENDROOT
BRANCH   1   2
ATOM      2  N   UNL     1       0.245  10.966  18.295  0.00  0.00    +0.000 N 
ATOM      3  H   UNL     1       0.700  11.821  17.972  0.00  0.00    +0.000 HD
BRANCH   2  16
ATOM      4  O   UNL     1      -6.125  11.106  17.695  0.00  0.00    +0.000 OA
ATOM      5  C   UNL     1      -5.395  11.692  18.486  0.00  0.00    +0.000 C 
ATOM      6  C   UNL     1      -5.960  12.635  19.469  0.00  0.00    +0.000 A 
ATOM      7  C   UNL     1      -7.340  12.879  19.477  0.00  0.00    +0.000 A 
ATOM      8  C   UNL     1      -7.880  13.801  20.375  0.00  0.00    +0.000 A 
ATOM      9  C   UNL     1      -7.045  14.478  21.264  0.00  0.00    +0.000 A 
ATOM     10  C   UNL     1      -5.673  14.224  21.268  0.00  0.00    +0.000 A 
ATOM     11  C   UNL     1      -5.128  13.294  20.373  0.00  0.00    +0.000 A 
ATOM     12  C   UNL     1      -3.675  13.017  20.393  0.00  0.00    +0.000 C 
ATOM     13  O   UNL     1      -2.956  13.546  21.231  0.00  0.00    +0.000 OA
ATOM     14  C   UNL     1      -3.106  12.097  19.386  0.00  0.00    +0.000 A 
ATOM     15  C   UNL     1      -1.719  11.875  19.343  0.00  0.00    +0.000 A 
ATOM     16  C   UNL     1      -1.143  11.049  18.366  0.00  0.00    +0.000 A 
ATOM     17  C   UNL     1      -1.998  10.472  17.417  0.00  0.00    +0.000 A 
ATOM     18  C   UNL     1      -3.382  10.662  17.471  0.00  0.00    +0.000 A 
ATOM     19  C   UNL     1      -3.936  11.478  18.458  0.00  0.00    +0.000 A 
ENDBRANCH   2  16
ENDBRANCH   1   2
BRANCH   1  20
ATOM     20  C   UNL     1       1.339   8.830  18.892  0.00  0.00    +0.000 C 
BRANCH  20  21
ATOM     21  O   UNL     1       2.430   8.862  17.958  0.00  0.00    +0.000 OA
ATOM     22  H   UNL     1       2.332   9.651  17.400  0.00  0.00    +0.000 HD
ENDBRANCH  20  21
BRANCH  20  23
ATOM     23  C   UNL     1       1.673   7.994  20.141  0.00  0.00    +0.000 C 
BRANCH  23  24
ATOM     24  O   UNL     1       2.726   7.074  19.851  0.00  0.00    +0.000 OA
BRANCH  24  25
ATOM     25  C   UNL     1       2.366   5.753  19.714  0.00  0.00    +0.000 A 
ATOM     26  C   UNL     1       1.407   5.115  20.521  0.00  0.00    +0.000 A 
ATOM     27  C   UNL     1       1.037   3.787  20.300  0.00  0.00    +0.000 A 
ATOM     28  C   UNL     1       1.599   3.048  19.262  0.00  0.00    +0.000 A 
ATOM     29  C   UNL     1       2.550   3.686  18.462  0.00  0.00    +0.000 A 
ATOM     30  N   UNL     1       3.244   3.200  17.377  0.00  0.00    +0.000 N 
ATOM     31  C   UNL     1       4.105   4.147  16.878  0.00  0.00    +0.000 A 
ATOM     32  C   UNL     1       4.996   4.073  15.801  0.00  0.00    +0.000 A 
ATOM     33  C   UNL     1       5.772   5.202  15.526  0.00  0.00    +0.000 A 
ATOM     34  C   UNL     1       5.659   6.355  16.299  0.00  0.00    +0.000 A 
ATOM     35  C   UNL     1       4.754   6.414  17.367  0.00  0.00    +0.000 A 
ATOM     36  C   UNL     1       3.956   5.289  17.666  0.00  0.00    +0.000 A 
ATOM     37  C   UNL     1       2.955   5.007  18.661  0.00  0.00    +0.000 A 
ATOM     38  H   UNL     1       3.142   2.271  17.000  0.00  0.00    +0.000 HD
ENDBRANCH  24  25
ENDBRANCH  23  24
ENDBRANCH  20  23
ENDBRANCH   1  20
TORSDOF 7
ENDMDL
MODEL 8
REMARK VINA RESULT:      -9.0      5.008      7.579
REMARK  Name = 
REMARK  7 active torsions:
REMARK  status: ('A' for Active; 'I' for Inactive)
REMARK    1  A    between atoms: C_13  and  N_14
REMARK    2  A    between atoms: N_14  and  C_15
REMARK    3  A    between atoms: C_15  and  C_16
REMARK    4  A    between atoms: C_16  and  O_17
REMARK    5  A    between atoms: C_16  and  C_18
REMARK    6  A    between atoms: C_18  and  O_19
REMARK    7  A    between atoms: O_19  and  C_20
REMARK                            x       y       z     vdW  Elec       q    Type
REMARK                         _______ _______ _______ _____ _____    ______ ____
ROOT
ATOM      1  C   UNL     1       7.469   6.661  17.906  0.00  0.00    +0.000 C 
ENDROOT
BRANCH   1   2
ATOM      2  N   UNL     1       7.427   8.007  17.339  0.00  0.00    +0.000 N 
ATOM      3  H   UNL     1       7.435   8.010  16.317  0.00  0.00    +0.000 HD
BRANCH   2  16
ATOM      4  O   UNL     1      10.824  12.211  20.766  0.00  0.00    +0.000 OA
ATOM      5  C   UNL     1      10.034  12.398  19.847  0.00  0.00    +0.000 C 
ATOM      6  C   UNL     1       9.706  13.768  19.409  0.00  0.00    +0.000 A 
ATOM      7  C   UNL     1      10.285  14.861  20.069  0.00  0.00    +0.000 A 
ATOM      8  C   UNL     1       9.950  16.161  19.690  0.00  0.00    +0.000 A 
ATOM      9  C   UNL     1       9.038  16.372  18.655  0.00  0.00    +0.000 A 
ATOM     10  C   UNL     1       8.473  15.284  17.987  0.00  0.00    +0.000 A 
ATOM     11  C   UNL     1       8.813  13.978  18.359  0.00  0.00    +0.000 A 
ATOM     12  C   UNL     1       8.224  12.829  17.637  0.00  0.00    +0.000 C 
ATOM     13  O   UNL     1       7.492  13.015  16.673  0.00  0.00    +0.000 OA
ATOM     14  C   UNL     1       8.527  11.458  18.098  0.00  0.00    +0.000 A 
ATOM     15  C   UNL     1       7.922  10.357  17.469  0.00  0.00    +0.000 A 
ATOM     16  C   UNL     1       8.150   9.047  17.918  0.00  0.00    +0.000 A 
ATOM     17  C   UNL     1       8.983   8.877  19.032  0.00  0.00    +0.000 A 
ATOM     18  C   UNL     1       9.614   9.964  19.643  0.00  0.00    +0.000 A 
ATOM     19  C   UNL     1       9.384  11.258  19.175  0.00  0.00    +0.000 A 
ENDBRANCH   2  16
ENDBRANCH   1   2
BRANCH   1  20
ATOM     20  C   UNL     1       6.982   5.618  16.880  0.00  0.00    +0.000 C 
BRANCH  20  21
ATOM     21  O   UNL     1       6.876   4.338  17.524  0.00  0.00    +0.000 OA
ATOM     22  H   UNL     1       6.888   4.477  18.485  0.00  0.00    +0.000 HD
ENDBRANCH  20  21
BRANCH  20  23
ATOM     23  C   UNL     1       5.637   6.084  16.295  0.00  0.00    +0.000 C 
BRANCH  23  24
ATOM     24  O   UNL     1       4.554   5.498  17.020  0.00  0.00    +0.000 OA
BRANCH  24  25
ATOM     25  C   UNL     1       3.763   6.360  17.743  0.00  0.00    +0.000 A 
ATOM     26  C   UNL     1       3.487   7.683  17.353  0.00  0.00    +0.000 A 
ATOM     27  C   UNL     1       2.629   8.496  18.095  0.00  0.00    +0.000 A 
ATOM     28  C   UNL     1       2.005   8.022  19.246  0.00  0.00    +0.000 A 
ATOM     29  C   UNL     1       2.282   6.707  19.630  0.00  0.00    +0.000 A 
ATOM     30  N   UNL     1       1.800   5.992  20.702  0.00  0.00    +0.000 N 
ATOM     31  C   UNL     1       2.337   4.728  20.733  0.00  0.00    +0.000 A 
ATOM     32  C   UNL     1       2.131   3.686  21.645  0.00  0.00    +0.000 A 
ATOM     33  C   UNL     1       2.833   2.497  21.437  0.00  0.00    +0.000 A 
ATOM     34  C   UNL     1       3.703   2.358  20.359  0.00  0.00    +0.000 A 
ATOM     35  C   UNL     1       3.889   3.408  19.450  0.00  0.00    +0.000 A 
ATOM     36  C   UNL     1       3.191   4.620  19.636  0.00  0.00    +0.000 A 
ATOM     37  C   UNL     1       3.144   5.869  18.921  0.00  0.00    +0.000 A 
ATOM     38  H   UNL     1       1.145   6.348  21.381  0.00  0.00    +0.000 HD
ENDBRANCH  24  25
ENDBRANCH  23  24
ENDBRANCH  20  23
ENDBRANCH   1  20
TORSDOF 7
ENDMDL
MODEL 9
REMARK VINA RESULT:      -9.0      6.643      8.848
REMARK  Name = 
REMARK  7 active torsions:
REMARK  status: ('A' for Active; 'I' for Inactive)
REMARK    1  A    between atoms: C_13  and  N_14
REMARK    2  A    between atoms: N_14  and  C_15
REMARK    3  A    between atoms: C_15  and  C_16
REMARK    4  A    between atoms: C_16  and  O_17
REMARK    5  A    between atoms: C_16  and  C_18
REMARK    6  A    between atoms: C_18  and  O_19
REMARK    7  A    between atoms: O_19  and  C_20
REMARK                            x       y       z     vdW  Elec       q    Type
REMARK                         _______ _______ _______ _____ _____    ______ ____
ROOT
ATOM      1  C   UNL     1       8.186   9.262  18.099  0.00  0.00    +0.000 C 
ENDROOT
BRANCH   1   2
ATOM      2  N   UNL     1       9.216   9.401  19.126  0.00  0.00    +0.000 N 
ATOM      3  H   UNL     1       9.110   8.733  19.891  0.00  0.00    +0.000 HD
BRANCH   2  16
ATOM      4  O   UNL     1      10.635  15.093  21.684  0.00  0.00    +0.000 OA
ATOM      5  C   UNL     1      10.741  14.700  20.527  0.00  0.00    +0.000 C 
ATOM      6  C   UNL     1      11.217  15.610  19.469  0.00  0.00    +0.000 A 
ATOM      7  C   UNL     1      11.524  16.939  19.788  0.00  0.00    +0.000 A 
ATOM      8  C   UNL     1      11.936  17.820  18.786  0.00  0.00    +0.000 A 
ATOM      9  C   UNL     1      12.039  17.375  17.468  0.00  0.00    +0.000 A 
ATOM     10  C   UNL     1      11.749  16.047  17.152  0.00  0.00    +0.000 A 
ATOM     11  C   UNL     1      11.343  15.159  18.156  0.00  0.00    +0.000 A 
ATOM     12  C   UNL     1      11.052  13.748  17.818  0.00  0.00    +0.000 C 
ATOM     13  O   UNL     1      11.227  13.337  16.678  0.00  0.00    +0.000 OA
ATOM     14  C   UNL     1      10.544  12.847  18.873  0.00  0.00    +0.000 A 
ATOM     15  C   UNL     1      10.194  11.523  18.556  0.00  0.00    +0.000 A 
ATOM     16  C   UNL     1       9.660  10.660  19.525  0.00  0.00    +0.000 A 
ATOM     17  C   UNL     1       9.463  11.172  20.814  0.00  0.00    +0.000 A 
ATOM     18  C   UNL     1       9.836  12.477  21.145  0.00  0.00    +0.000 A 
ATOM     19  C   UNL     1      10.377  13.316  20.171  0.00  0.00    +0.000 A 
ENDBRANCH   2  16
ENDBRANCH   1   2
BRANCH   1  20
ATOM     20  C   UNL     1       7.945   7.778  17.761  0.00  0.00    +0.000 C 
BRANCH  20  21
ATOM     21  O   UNL     1       8.275   6.974  18.905  0.00  0.00    +0.000 OA
ATOM     22  H   UNL     1       8.080   7.487  19.706  0.00  0.00    +0.000 HD
ENDBRANCH  20  21
BRANCH  20  23
ATOM     23  C   UNL     1       6.478   7.596  17.332  0.00  0.00    +0.000 C 
BRANCH  23  24
ATOM     24  O   UNL     1       5.893   6.494  18.027  0.00  0.00    +0.000 OA
BRANCH  24  25
ATOM     25  C   UNL     1       5.568   5.393  17.269  0.00  0.00    +0.000 A 
ATOM     26  C   UNL     1       6.332   4.941  16.178  0.00  0.00    +0.000 A 
ATOM     27  C   UNL     1       5.988   3.782  15.479  0.00  0.00    +0.000 A 
ATOM     28  C   UNL     1       4.878   3.026  15.844  0.00  0.00    +0.000 A 
ATOM     29  C   UNL     1       4.122   3.478  16.929  0.00  0.00    +0.000 A 
ATOM     30  N   UNL     1       2.999   2.925  17.500  0.00  0.00    +0.000 N 
ATOM     31  C   UNL     1       2.546   3.695  18.543  0.00  0.00    +0.000 A 
ATOM     32  C   UNL     1       1.442   3.510  19.384  0.00  0.00    +0.000 A 
ATOM     33  C   UNL     1       1.208   4.476  20.365  0.00  0.00    +0.000 A 
ATOM     34  C   UNL     1       2.045   5.581  20.497  0.00  0.00    +0.000 A 
ATOM     35  C   UNL     1       3.152   5.744  19.653  0.00  0.00    +0.000 A 
ATOM     36  C   UNL     1       3.413   4.782  18.654  0.00  0.00    +0.000 A 
ATOM     37  C   UNL     1       4.427   4.638  17.643  0.00  0.00    +0.000 A 
ATOM     38  H   UNL     1       2.560   2.071  17.192  0.00  0.00    +0.000 HD
ENDBRANCH  24  25
ENDBRANCH  23  24
ENDBRANCH  20  23
ENDBRANCH   1  20
TORSDOF 7
ENDMDL
