MODEL 1
REMARK VINA RESULT:      -9.2      0.000      0.000
REMARK  Name = 
REMARK  10 active torsions:
REMARK  status: ('A' for Active; 'I' for Inactive)
REMARK    1  A    between atoms: C_1  and  C_2
REMARK    2  A    between atoms: C_2  and  C_3
REMARK    3  A    between atoms: C_3  and  C_4
REMARK    4  A    between atoms: C_4  and  C_5
REMARK    5  A    between atoms: C_5  and  N_6
REMARK    6  A    between atoms: C_7  and  C_8
REMARK    7  A    between atoms: C_9  and  C_10
REMARK    8  A    between atoms: N_12  and  C_13
REMARK    9  A    between atoms: C_17  and  C_18
REMARK   10  A    between atoms: C_20  and  C_21
REMARK                            x       y       z     vdW  Elec       q    Type
REMARK                         _______ _______ _______ _____ _____    ______ ____
ROOT
ATOM      1  N   UNL     1       4.267   5.356  18.303  0.00  0.00    +0.000 N 
ATOM      2  C   UNL     1       3.626   6.599  18.000  0.00  0.00    +0.000 A 
ATOM      3  C   UNL     1       4.067   7.334  16.740  0.00  0.00    +0.000 C 
ATOM      4  C   UNL     1       2.643   7.148  18.768  0.00  0.00    +0.000 A 
ATOM      5  C   UNL     1       2.205   6.370  19.962  0.00  0.00    +0.000 A 
ATOM      6  O   UNL     1       1.436   6.838  20.800  0.00  0.00    +0.000 OA
ATOM      7  C   UNL     1       2.672   4.991  20.120  0.00  0.00    +0.000 A 
ATOM      8  C   UNL     1       2.036   4.200  21.099  0.00  0.00    +0.000 A 
ATOM      9  C   UNL     1       2.443   2.895  21.312  0.00  0.00    +0.000 A 
ATOM     10  C   UNL     1       3.496   2.397  20.563  0.00  0.00    +0.000 A 
ATOM     11  C   UNL     1       4.121   3.194  19.588  0.00  0.00    +0.000 A 
ATOM     12  C   UNL     1       3.716   4.515  19.315  0.00  0.00    +0.000 A 
ENDROOT
BRANCH   4  13
ATOM     13  C   UNL     1       1.986   8.484  18.466  0.00  0.00    +0.000 C 
ATOM     14  O   UNL     1       1.918   8.961  17.339  0.00  0.00    +0.000 OA
ATOM     15  N   UNL     1       1.460   9.131  19.559  0.00  0.00    +0.000 N 
ATOM     16  H   UNL     1       1.650   8.716  20.474  0.00  0.00    +0.000 HD
BRANCH  15  17
ATOM     17  C   UNL     1       0.732  10.396  19.555  0.00  0.00    +0.000 C 
ATOM     18  C   UNL     1       0.348  10.743  21.017  0.00  0.00    +0.000 C 
ATOM     19  C   UNL     1      -0.430  12.064  21.079  0.00  0.00    +0.000 C 
ATOM     20  C   UNL     1       0.444  13.192  20.510  0.00  0.00    +0.000 C 
ATOM     21  C   UNL     1       0.827  12.886  19.046  0.00  0.00    +0.000 C 
ATOM     22  C   UNL     1       1.706  14.006  18.483  0.00  0.00    +0.000 C 
ATOM     23  C   UNL     1      -0.468  12.739  18.212  0.00  0.00    +0.000 C 
ATOM     24  C   UNL     1      -1.364  11.611  18.776  0.00  0.00    +0.000 C 
ATOM     25  C   UNL     1      -2.642  11.472  17.944  0.00  0.00    +0.000 C 
ATOM     26  C   UNL     1      -1.712  11.937  20.244  0.00  0.00    +0.000 C 
ATOM     27  C   UNL     1      -0.573  10.284  18.734  0.00  0.00    +0.000 C 
ATOM     28  C   UNL     1       1.599  11.547  19.001  0.00  0.00    +0.000 C 
ENDBRANCH  15  17
ENDBRANCH   4  13
BRANCH   1  29
ATOM     29  C   UNL     1       5.387   4.811  17.487  0.00  0.00    +0.000 C 
BRANCH  29  30
ATOM     30  C   UNL     1       6.738   4.776  18.214  0.00  0.00    +0.000 C 
BRANCH  30  31
ATOM     31  C   UNL     1       7.243   6.158  18.614  0.00  0.00    +0.000 C 
BRANCH  31  33
ATOM     32  C   UNL     1       7.933   8.413  17.761  0.00  0.00    +0.000 C 
ATOM     33  C   UNL     1       7.554   6.994  17.375  0.00  0.00    +0.000 C 
ENDBRANCH  31  33
ENDBRANCH  30  31
ENDBRANCH  29  30
ENDBRANCH   1  29
TORSDOF 6
ENDMDL
MODEL 2
REMARK VINA RESULT:      -9.0      0.441      1.874
REMARK  Name = 
REMARK  10 active torsions:
REMARK  status: ('A' for Active; 'I' for Inactive)
REMARK    1  A    between atoms: C_1  and  C_2
REMARK    2  A    between atoms: C_2  and  C_3
REMARK    3  A    between atoms: C_3  and  C_4
REMARK    4  A    between atoms: C_4  and  C_5
REMARK    5  A    between atoms: C_5  and  N_6
REMARK    6  A    between atoms: C_7  and  C_8
REMARK    7  A    between atoms: C_9  and  C_10
REMARK    8  A    between atoms: N_12  and  C_13
REMARK    9  A    between atoms: C_17  and  C_18
REMARK   10  A    between atoms: C_20  and  C_21
REMARK                            x       y       z     vdW  Elec       q    Type
REMARK                         _______ _______ _______ _____ _____    ______ ____
ROOT
ATOM      1  N   UNL     1       4.185   5.437  18.504  0.00  0.00    +0.000 N 
ATOM      2  C   UNL     1       3.537   6.677  18.204  0.00  0.00    +0.000 A 
ATOM      3  C   UNL     1       4.026   7.454  16.987  0.00  0.00    +0.000 C 
ATOM      4  C   UNL     1       2.510   7.189  18.939  0.00  0.00    +0.000 A 
ATOM      5  C   UNL     1       2.029   6.371  20.089  0.00  0.00    +0.000 A 
ATOM      6  O   UNL     1       1.213   6.803  20.901  0.00  0.00    +0.000 OA
ATOM      7  C   UNL     1       2.511   4.995  20.232  0.00  0.00    +0.000 A 
ATOM      8  C   UNL     1       1.843   4.167  21.157  0.00  0.00    +0.000 A 
ATOM      9  C   UNL     1       2.262   2.863  21.353  0.00  0.00    +0.000 A 
ATOM     10  C   UNL     1       3.358   2.403  20.643  0.00  0.00    +0.000 A 
ATOM     11  C   UNL     1       4.015   3.237  19.720  0.00  0.00    +0.000 A 
ATOM     12  C   UNL     1       3.601   4.559  19.465  0.00  0.00    +0.000 A 
ENDROOT
BRANCH   4  13
ATOM     13  C   UNL     1       1.846   8.523  18.642  0.00  0.00    +0.000 C 
ATOM     14  O   UNL     1       1.727   8.978  17.511  0.00  0.00    +0.000 OA
ATOM     15  N   UNL     1       1.374   9.192  19.747  0.00  0.00    +0.000 N 
ATOM     16  H   UNL     1       1.605   8.794  20.659  0.00  0.00    +0.000 HD
BRANCH  15  17
ATOM     17  C   UNL     1       0.653  10.461  19.753  0.00  0.00    +0.000 C 
ATOM     18  C   UNL     1      -0.623  10.301  18.886  0.00  0.00    +0.000 C 
ATOM     19  C   UNL     1      -1.424  11.609  18.844  0.00  0.00    +0.000 C 
ATOM     20  C   UNL     1      -1.835  11.994  20.273  0.00  0.00    +0.000 C 
ATOM     21  C   UNL     1      -0.584  12.182  21.159  0.00  0.00    +0.000 C 
ATOM     22  C   UNL     1      -0.996  12.556  22.584  0.00  0.00    +0.000 C 
ATOM     23  C   UNL     1       0.304  13.288  20.540  0.00  0.00    +0.000 C 
ATOM     24  C   UNL     1       0.722  12.919  19.097  0.00  0.00    +0.000 C 
ATOM     25  C   UNL     1       1.600  14.019  18.493  0.00  0.00    +0.000 C 
ATOM     26  C   UNL     1      -0.550  12.719  18.244  0.00  0.00    +0.000 C 
ATOM     27  C   UNL     1       1.509  11.590  19.135  0.00  0.00    +0.000 C 
ATOM     28  C   UNL     1       0.216  10.860  21.178  0.00  0.00    +0.000 C 
ENDBRANCH  15  17
ENDBRANCH   4  13
BRANCH   1  29
ATOM     29  C   UNL     1       5.351   4.933  17.728  0.00  0.00    +0.000 C 
BRANCH  29  30
ATOM     30  C   UNL     1       6.715   5.314  18.320  0.00  0.00    +0.000 C 
BRANCH  30  31
ATOM     31  C   UNL     1       7.477   6.328  17.473  0.00  0.00    +0.000 C 
BRANCH  31  33
ATOM     32  C   UNL     1       7.944   8.777  17.741  0.00  0.00    +0.000 C 
ATOM     33  C   UNL     1       8.106   7.400  18.360  0.00  0.00    +0.000 C 
ENDBRANCH  31  33
ENDBRANCH  30  31
ENDBRANCH  29  30
ENDBRANCH   1  29
TORSDOF 6
ENDMDL
MODEL 3
REMARK VINA RESULT:      -8.9      1.163      1.738
REMARK  Name = 
REMARK  10 active torsions:
REMARK  status: ('A' for Active; 'I' for Inactive)
REMARK    1  A    between atoms: C_1  and  C_2
REMARK    2  A    between atoms: C_2  and  C_3
REMARK    3  A    between atoms: C_3  and  C_4
REMARK    4  A    between atoms: C_4  and  C_5
REMARK    5  A    between atoms: C_5  and  N_6
REMARK    6  A    between atoms: C_7  and  C_8
REMARK    7  A    between atoms: C_9  and  C_10
REMARK    8  A    between atoms: N_12  and  C_13
REMARK    9  A    between atoms: C_17  and  C_18
REMARK   10  A    between atoms: C_20  and  C_21
REMARK                            x       y       z     vdW  Elec       q    Type
REMARK                         _______ _______ _______ _____ _____    ______ ____
ROOT
ATOM      1  N   UNL     1       4.319   5.453  18.381  0.00  0.00    +0.000 N 
ATOM      2  C   UNL     1       3.654   6.685  18.081  0.00  0.00    +0.000 A 
ATOM      3  C   UNL     1       4.127   7.464  16.859  0.00  0.00    +0.000 C 
ATOM      4  C   UNL     1       2.624   7.185  18.819  0.00  0.00    +0.000 A 
ATOM      5  C   UNL     1       2.159   6.365  19.974  0.00  0.00    +0.000 A 
ATOM      6  O   UNL     1       1.342   6.789  20.789  0.00  0.00    +0.000 OA
ATOM      7  C   UNL     1       2.659   4.996  20.118  0.00  0.00    +0.000 A 
ATOM      8  C   UNL     1       2.006   4.162  21.048  0.00  0.00    +0.000 A 
ATOM      9  C   UNL     1       2.443   2.864  21.247  0.00  0.00    +0.000 A 
ATOM     10  C   UNL     1       3.541   2.416  20.532  0.00  0.00    +0.000 A 
ATOM     11  C   UNL     1       4.183   3.255  19.604  0.00  0.00    +0.000 A 
ATOM     12  C   UNL     1       3.751   4.571  19.347  0.00  0.00    +0.000 A 
ENDROOT
BRANCH   4  13
ATOM     13  C   UNL     1       1.942   8.510  18.521  0.00  0.00    +0.000 C 
ATOM     14  O   UNL     1       1.807   8.958  17.388  0.00  0.00    +0.000 OA
ATOM     15  N   UNL     1       1.472   9.180  19.627  0.00  0.00    +0.000 N 
ATOM     16  H   UNL     1       1.717   8.789  20.539  0.00  0.00    +0.000 HD
BRANCH  15  17
ATOM     17  C   UNL     1       0.737  10.440  19.632  0.00  0.00    +0.000 C 
ATOM     18  C   UNL     1       0.411  10.808  21.103  0.00  0.00    +0.000 C 
ATOM     19  C   UNL     1      -0.373  12.125  21.177  0.00  0.00    +0.000 C 
ATOM     20  C   UNL     1       0.469  13.249  20.554  0.00  0.00    +0.000 C 
ATOM     21  C   UNL     1       0.793  12.922  19.080  0.00  0.00    +0.000 C 
ATOM     22  C   UNL     1       1.641  14.038  18.465  0.00  0.00    +0.000 C 
ATOM     23  C   UNL     1      -0.534  12.754  18.303  0.00  0.00    +0.000 C 
ATOM     24  C   UNL     1      -1.398  11.629  18.921  0.00  0.00    +0.000 C 
ATOM     25  C   UNL     1      -2.709  11.469  18.145  0.00  0.00    +0.000 C 
ATOM     26  C   UNL     1      -1.688  11.976  20.397  0.00  0.00    +0.000 C 
ATOM     27  C   UNL     1      -0.600  10.307  18.868  0.00  0.00    +0.000 C 
ATOM     28  C   UNL     1       1.571  11.587  19.025  0.00  0.00    +0.000 C 
ENDBRANCH  15  17
ENDBRANCH   4  13
BRANCH   1  29
ATOM     29  C   UNL     1       5.488   4.962  17.601  0.00  0.00    +0.000 C 
BRANCH  29  30
ATOM     30  C   UNL     1       5.117   4.097  16.388  0.00  0.00    +0.000 C 
BRANCH  30  31
ATOM     31  C   UNL     1       5.412   4.773  15.054  0.00  0.00    +0.000 C 
BRANCH  31  33
ATOM     32  C   UNL     1       5.831   3.584  12.886  0.00  0.00    +0.000 C 
ATOM     33  C   UNL     1       6.408   3.946  14.243  0.00  0.00    +0.000 C 
ENDBRANCH  31  33
ENDBRANCH  30  31
ENDBRANCH  29  30
ENDBRANCH   1  29
TORSDOF 6
ENDMDL
MODEL 4
REMARK VINA RESULT:      -8.9      1.177      2.523
REMARK  Name = 
REMARK  10 active torsions:
REMARK  status: ('A' for Active; 'I' for Inactive)
REMARK    1  A    between atoms: C_1  and  C_2
REMARK    2  A    between atoms: C_2  and  C_3
REMARK    3  A    between atoms: C_3  and  C_4
REMARK    4  A    between atoms: C_4  and  C_5
REMARK    5  A    between atoms: C_5  and  N_6
REMARK    6  A    between atoms: C_7  and  C_8
REMARK    7  A    between atoms: C_9  and  C_10
REMARK    8  A    between atoms: N_12  and  C_13
REMARK    9  A    between atoms: C_17  and  C_18
REMARK   10  A    between atoms: C_20  and  C_21
REMARK                            x       y       z     vdW  Elec       q    Type
REMARK                         _______ _______ _______ _____ _____    ______ ____
ROOT
ATOM      1  N   UNL     1       4.270   5.458  18.415  0.00  0.00    +0.000 N 
ATOM      2  C   UNL     1       3.600   6.684  18.106  0.00  0.00    +0.000 A 
ATOM      3  C   UNL     1       4.061   7.451  16.872  0.00  0.00    +0.000 C 
ATOM      4  C   UNL     1       2.574   7.191  18.846  0.00  0.00    +0.000 A 
ATOM      5  C   UNL     1       2.120   6.382  20.014  0.00  0.00    +0.000 A 
ATOM      6  O   UNL     1       1.308   6.813  20.830  0.00  0.00    +0.000 OA
ATOM      7  C   UNL     1       2.625   5.016  20.169  0.00  0.00    +0.000 A 
ATOM      8  C   UNL     1       1.981   4.191  21.114  0.00  0.00    +0.000 A 
ATOM      9  C   UNL     1       2.423   2.896  21.324  0.00  0.00    +0.000 A 
ATOM     10  C   UNL     1       3.517   2.443  20.606  0.00  0.00    +0.000 A 
ATOM     11  C   UNL     1       4.149   3.273  19.664  0.00  0.00    +0.000 A 
ATOM     12  C   UNL     1       3.712   4.585  19.395  0.00  0.00    +0.000 A 
ENDROOT
BRANCH   4  13
ATOM     13  C   UNL     1       1.885   8.510  18.539  0.00  0.00    +0.000 C 
ATOM     14  O   UNL     1       1.791   8.972  17.408  0.00  0.00    +0.000 OA
ATOM     15  N   UNL     1       1.362   9.158  19.633  0.00  0.00    +0.000 N 
ATOM     16  H   UNL     1       1.574   8.757  20.549  0.00  0.00    +0.000 HD
BRANCH  15  17
ATOM     17  C   UNL     1       0.609  10.407  19.626  0.00  0.00    +0.000 C 
ATOM     18  C   UNL     1       1.495  11.507  18.986  0.00  0.00    +0.000 C 
ATOM     19  C   UNL     1       0.760  12.854  18.957  0.00  0.00    +0.000 C 
ATOM     20  C   UNL     1      -0.529  12.708  18.133  0.00  0.00    +0.000 C 
ATOM     21  C   UNL     1      -1.444  11.632  18.758  0.00  0.00    +0.000 C 
ATOM     22  C   UNL     1      -2.723  11.480  17.930  0.00  0.00    +0.000 C 
ATOM     23  C   UNL     1      -1.781  12.045  20.210  0.00  0.00    +0.000 C 
ATOM     24  C   UNL     1      -0.493  12.204  21.052  0.00  0.00    +0.000 C 
ATOM     25  C   UNL     1      -0.836  12.613  22.488  0.00  0.00    +0.000 C 
ATOM     26  C   UNL     1       0.408  13.270  20.392  0.00  0.00    +0.000 C 
ATOM     27  C   UNL     1       0.260  10.855  21.064  0.00  0.00    +0.000 C 
ATOM     28  C   UNL     1      -0.683  10.287  18.790  0.00  0.00    +0.000 C 
ENDBRANCH  15  17
ENDBRANCH   4  13
BRANCH   1  29
ATOM     29  C   UNL     1       5.434   4.961  17.631  0.00  0.00    +0.000 C 
BRANCH  29  30
ATOM     30  C   UNL     1       5.060   4.037  16.464  0.00  0.00    +0.000 C 
BRANCH  30  31
ATOM     31  C   UNL     1       5.288   4.672  15.096  0.00  0.00    +0.000 C 
BRANCH  31  33
ATOM     32  C   UNL     1       6.058   3.644  12.943  0.00  0.00    +0.000 C 
ATOM     33  C   UNL     1       6.442   3.982  14.372  0.00  0.00    +0.000 C 
ENDBRANCH  31  33
ENDBRANCH  30  31
ENDBRANCH  29  30
ENDBRANCH   1  29
TORSDOF 6
ENDMDL
MODEL 5
REMARK VINA RESULT:      -8.8      1.182      2.512
REMARK  Name = 
REMARK  10 active torsions:
REMARK  status: ('A' for Active; 'I' for Inactive)
REMARK    1  A    between atoms: C_1  and  C_2
REMARK    2  A    between atoms: C_2  and  C_3
REMARK    3  A    between atoms: C_3  and  C_4
REMARK    4  A    between atoms: C_4  and  C_5
REMARK    5  A    between atoms: C_5  and  N_6
REMARK    6  A    between atoms: C_7  and  C_8
REMARK    7  A    between atoms: C_9  and  C_10
REMARK    8  A    between atoms: N_12  and  C_13
REMARK    9  A    between atoms: C_17  and  C_18
REMARK   10  A    between atoms: C_20  and  C_21
REMARK                            x       y       z     vdW  Elec       q    Type
REMARK                         _______ _______ _______ _____ _____    ______ ____
ROOT
ATOM      1  N   UNL     1       4.244   5.345  18.505  0.00  0.00    +0.000 N 
ATOM      2  C   UNL     1       3.606   6.588  18.193  0.00  0.00    +0.000 A 
ATOM      3  C   UNL     1       4.095   7.344  16.962  0.00  0.00    +0.000 C 
ATOM      4  C   UNL     1       2.589   7.120  18.927  0.00  0.00    +0.000 A 
ATOM      5  C   UNL     1       2.107   6.323  20.091  0.00  0.00    +0.000 A 
ATOM      6  O   UNL     1       1.301   6.774  20.903  0.00  0.00    +0.000 OA
ATOM      7  C   UNL     1       2.576   4.944  20.249  0.00  0.00    +0.000 A 
ATOM      8  C   UNL     1       1.906   4.135  21.189  0.00  0.00    +0.000 A 
ATOM      9  C   UNL     1       2.313   2.829  21.400  0.00  0.00    +0.000 A 
ATOM     10  C   UNL     1       3.400   2.349  20.689  0.00  0.00    +0.000 A 
ATOM     11  C   UNL     1       4.059   3.164  19.752  0.00  0.00    +0.000 A 
ATOM     12  C   UNL     1       3.657   4.487  19.481  0.00  0.00    +0.000 A 
ENDROOT
BRANCH   4  13
ATOM     13  C   UNL     1       1.936   8.456  18.616  0.00  0.00    +0.000 C 
ATOM     14  O   UNL     1       1.842   8.912  17.483  0.00  0.00    +0.000 OA
ATOM     15  N   UNL     1       1.445   9.129  19.711  0.00  0.00    +0.000 N 
ATOM     16  H   UNL     1       1.656   8.730  20.628  0.00  0.00    +0.000 HD
BRANCH  15  17
ATOM     17  C   UNL     1       0.729  10.400  19.702  0.00  0.00    +0.000 C 
ATOM     18  C   UNL     1      -0.545  10.237  18.833  0.00  0.00    +0.000 C 
ATOM     19  C   UNL     1      -1.340  11.548  18.776  0.00  0.00    +0.000 C 
ATOM     20  C   UNL     1      -1.754  11.949  20.200  0.00  0.00    +0.000 C 
ATOM     21  C   UNL     1      -0.504  12.141  21.087  0.00  0.00    +0.000 C 
ATOM     22  C   UNL     1      -0.918  12.531  22.508  0.00  0.00    +0.000 C 
ATOM     23  C   UNL     1       0.390  13.237  20.459  0.00  0.00    +0.000 C 
ATOM     24  C   UNL     1       0.810  12.851  19.021  0.00  0.00    +0.000 C 
ATOM     25  C   UNL     1       1.695  13.941  18.408  0.00  0.00    +0.000 C 
ATOM     26  C   UNL     1      -0.460  12.648  18.167  0.00  0.00    +0.000 C 
ATOM     27  C   UNL     1       1.592  11.519  19.075  0.00  0.00    +0.000 C 
ATOM     28  C   UNL     1       0.291  10.815  21.122  0.00  0.00    +0.000 C 
ENDBRANCH  15  17
ENDBRANCH   4  13
BRANCH   1  29
ATOM     29  C   UNL     1       5.399   4.819  17.728  0.00  0.00    +0.000 C 
BRANCH  29  30
ATOM     30  C   UNL     1       5.007   3.967  16.514  0.00  0.00    +0.000 C 
BRANCH  30  31
ATOM     31  C   UNL     1       6.096   3.899  15.449  0.00  0.00    +0.000 C 
BRANCH  31  33
ATOM     32  C   UNL     1       6.175   3.581  12.963  0.00  0.00    +0.000 C 
ATOM     33  C   UNL     1       5.557   4.373  14.101  0.00  0.00    +0.000 C 
ENDBRANCH  31  33
ENDBRANCH  30  31
ENDBRANCH  29  30
ENDBRANCH   1  29
TORSDOF 6
ENDMDL
MODEL 6
REMARK VINA RESULT:      -8.8      0.389      1.878
REMARK  Name = 
REMARK  10 active torsions:
REMARK  status: ('A' for Active; 'I' for Inactive)
REMARK    1  A    between atoms: C_1  and  C_2
REMARK    2  A    between atoms: C_2  and  C_3
REMARK    3  A    between atoms: C_3  and  C_4
REMARK    4  A    between atoms: C_4  and  C_5
REMARK    5  A    between atoms: C_5  and  N_6
REMARK    6  A    between atoms: C_7  and  C_8
REMARK    7  A    between atoms: C_9  and  C_10
REMARK    8  A    between atoms: N_12  and  C_13
REMARK    9  A    between atoms: C_17  and  C_18
REMARK   10  A    between atoms: C_20  and  C_21
REMARK                            x       y       z     vdW  Elec       q    Type
REMARK                         _______ _______ _______ _____ _____    ______ ____
ROOT
ATOM      1  N   UNL     1       4.127   5.260  18.269  0.00  0.00    +0.000 N 
ATOM      2  C   UNL     1       3.530   6.529  17.984  0.00  0.00    +0.000 A 
ATOM      3  C   UNL     1       3.941   7.232  16.695  0.00  0.00    +0.000 C 
ATOM      4  C   UNL     1       2.614   7.131  18.794  0.00  0.00    +0.000 A 
ATOM      5  C   UNL     1       2.200   6.385  20.017  0.00  0.00    +0.000 A 
ATOM      6  O   UNL     1       1.497   6.896  20.887  0.00  0.00    +0.000 OA
ATOM      7  C   UNL     1       2.609   4.986  20.167  0.00  0.00    +0.000 A 
ATOM      8  C   UNL     1       1.987   4.235  21.185  0.00  0.00    +0.000 A 
ATOM      9  C   UNL     1       2.343   2.914  21.391  0.00  0.00    +0.000 A 
ATOM     10  C   UNL     1       3.333   2.360  20.597  0.00  0.00    +0.000 A 
ATOM     11  C   UNL     1       3.945   3.118  19.582  0.00  0.00    +0.000 A 
ATOM     12  C   UNL     1       3.589   4.455  19.316  0.00  0.00    +0.000 A 
ENDROOT
BRANCH   4  13
ATOM     13  C   UNL     1       2.006   8.494  18.510  0.00  0.00    +0.000 C 
ATOM     14  O   UNL     1       2.103   9.062  17.429  0.00  0.00    +0.000 OA
ATOM     15  N   UNL     1       1.322   9.053  19.564  0.00  0.00    +0.000 N 
ATOM     16  H   UNL     1       1.377   8.563  20.459  0.00  0.00    +0.000 HD
BRANCH  15  17
ATOM     17  C   UNL     1       0.601  10.322  19.558  0.00  0.00    +0.000 C 
ATOM     18  C   UNL     1       1.512  11.399  18.914  0.00  0.00    +0.000 C 
ATOM     19  C   UNL     1       0.811  12.763  18.886  0.00  0.00    +0.000 C 
ATOM     20  C   UNL     1      -0.483  12.648  18.066  0.00  0.00    +0.000 C 
ATOM     21  C   UNL     1      -1.424  11.596  18.695  0.00  0.00    +0.000 C 
ATOM     22  C   UNL     1      -2.708  11.476  17.871  0.00  0.00    +0.000 C 
ATOM     23  C   UNL     1      -1.745  12.020  20.148  0.00  0.00    +0.000 C 
ATOM     24  C   UNL     1      -0.451  12.147  20.986  0.00  0.00    +0.000 C 
ATOM     25  C   UNL     1      -0.779  12.565  22.423  0.00  0.00    +0.000 C 
ATOM     26  C   UNL     1       0.474  13.189  20.321  0.00  0.00    +0.000 C 
ATOM     27  C   UNL     1       0.267  10.779  20.997  0.00  0.00    +0.000 C 
ATOM     28  C   UNL     1      -0.696  10.233  18.727  0.00  0.00    +0.000 C 
ENDBRANCH  15  17
ENDBRANCH   4  13
BRANCH   1  29
ATOM     29  C   UNL     1       5.177   4.656  17.404  0.00  0.00    +0.000 C 
BRANCH  29  30
ATOM     30  C   UNL     1       6.583   4.663  18.020  0.00  0.00    +0.000 C 
BRANCH  30  31
ATOM     31  C   UNL     1       6.802   5.805  19.007  0.00  0.00    +0.000 C 
BRANCH  31  33
ATOM     32  C   UNL     1       7.621   7.701  17.584  0.00  0.00    +0.000 C 
ATOM     33  C   UNL     1       8.013   6.641  18.597  0.00  0.00    +0.000 C 
ENDBRANCH  31  33
ENDBRANCH  30  31
ENDBRANCH  29  30
ENDBRANCH   1  29
TORSDOF 6
ENDMDL
MODEL 7
REMARK VINA RESULT:      -8.6      1.264      2.371
REMARK  Name = 
REMARK  10 active torsions:
REMARK  status: ('A' for Active; 'I' for Inactive)
REMARK    1  A    between atoms: C_1  and  C_2
REMARK    2  A    between atoms: C_2  and  C_3
REMARK    3  A    between atoms: C_3  and  C_4
REMARK    4  A    between atoms: C_4  and  C_5
REMARK    5  A    between atoms: C_5  and  N_6
REMARK    6  A    between atoms: C_7  and  C_8
REMARK    7  A    between atoms: C_9  and  C_10
REMARK    8  A    between atoms: N_12  and  C_13
REMARK    9  A    between atoms: C_17  and  C_18
REMARK   10  A    between atoms: C_20  and  C_21
REMARK                            x       y       z     vdW  Elec       q    Type
REMARK                         _______ _______ _______ _____ _____    ______ ____
ROOT
ATOM      1  N   UNL     1       3.756   5.641  17.708  0.00  0.00    +0.000 N 
ATOM      2  C   UNL     1       3.189   6.850  18.224  0.00  0.00    +0.000 A 
ATOM      3  C   UNL     1       3.585   8.159  17.551  0.00  0.00    +0.000 C 
ATOM      4  C   UNL     1       2.315   6.887  19.269  0.00  0.00    +0.000 A 
ATOM      5  C   UNL     1       1.915   5.579  19.862  0.00  0.00    +0.000 A 
ATOM      6  O   UNL     1       1.253   5.507  20.896  0.00  0.00    +0.000 OA
ATOM      7  C   UNL     1       2.286   4.343  19.170  0.00  0.00    +0.000 A 
ATOM      8  C   UNL     1       1.671   3.150  19.600  0.00  0.00    +0.000 A 
ATOM      9  C   UNL     1       1.993   1.945  19.001  0.00  0.00    +0.000 A 
ATOM     10  C   UNL     1       2.942   1.937  17.993  0.00  0.00    +0.000 A 
ATOM     11  C   UNL     1       3.547   3.134  17.569  0.00  0.00    +0.000 A 
ATOM     12  C   UNL     1       3.224   4.386  18.129  0.00  0.00    +0.000 A 
ENDROOT
BRANCH   4  13
ATOM     13  C   UNL     1       1.741   8.173  19.839  0.00  0.00    +0.000 C 
ATOM     14  O   UNL     1       1.890   8.518  21.006  0.00  0.00    +0.000 OA
ATOM     15  N   UNL     1       1.036   8.939  18.941  0.00  0.00    +0.000 N 
ATOM     16  H   UNL     1       0.871   8.531  18.018  0.00  0.00    +0.000 HD
BRANCH  15  17
ATOM     17  C   UNL     1       0.423  10.238  19.198  0.00  0.00    +0.000 C 
ATOM     18  C   UNL     1      -0.815  10.386  18.276  0.00  0.00    +0.000 C 
ATOM     19  C   UNL     1      -1.502  11.740  18.494  0.00  0.00    +0.000 C 
ATOM     20  C   UNL     1      -1.954  11.847  19.958  0.00  0.00    +0.000 C 
ATOM     21  C   UNL     1      -0.739  11.725  20.904  0.00  0.00    +0.000 C 
ATOM     22  C   UNL     1      -1.192  11.822  22.363  0.00  0.00    +0.000 C 
ATOM     23  C   UNL     1       0.268  12.852  20.570  0.00  0.00    +0.000 C 
ATOM     24  C   UNL     1       0.729  12.762  19.096  0.00  0.00    +0.000 C 
ATOM     25  C   UNL     1       1.726  13.881  18.775  0.00  0.00    +0.000 C 
ATOM     26  C   UNL     1      -0.509  12.868  18.179  0.00  0.00    +0.000 C 
ATOM     27  C   UNL     1       1.401  11.390  18.870  0.00  0.00    +0.000 C 
ATOM     28  C   UNL     1      -0.053  10.361  20.662  0.00  0.00    +0.000 C 
ENDBRANCH  15  17
ENDBRANCH   4  13
BRANCH   1  29
ATOM     29  C   UNL     1       4.762   5.631  16.611  0.00  0.00    +0.000 C 
BRANCH  29  30
ATOM     30  C   UNL     1       6.214   5.491  17.089  0.00  0.00    +0.000 C 
BRANCH  30  31
ATOM     31  C   UNL     1       6.998   6.797  17.023  0.00  0.00    +0.000 C 
BRANCH  31  33
ATOM     32  C   UNL     1       7.725   5.765  19.190  0.00  0.00    +0.000 C 
ATOM     33  C   UNL     1       7.859   6.968  18.273  0.00  0.00    +0.000 C 
ENDBRANCH  31  33
ENDBRANCH  30  31
ENDBRANCH  29  30
ENDBRANCH   1  29
TORSDOF 6
ENDMDL
MODEL 8
REMARK VINA RESULT:      -8.5      1.485      2.644
REMARK  Name = 
REMARK  10 active torsions:
REMARK  status: ('A' for Active; 'I' for Inactive)
REMARK    1  A    between atoms: C_1  and  C_2
REMARK    2  A    between atoms: C_2  and  C_3
REMARK    3  A    between atoms: C_3  and  C_4
REMARK    4  A    between atoms: C_4  and  C_5
REMARK    5  A    between atoms: C_5  and  N_6
REMARK    6  A    between atoms: C_7  and  C_8
REMARK    7  A    between atoms: C_9  and  C_10
REMARK    8  A    between atoms: N_12  and  C_13
REMARK    9  A    between atoms: C_17  and  C_18
REMARK   10  A    between atoms: C_20  and  C_21
REMARK                            x       y       z     vdW  Elec       q    Type
REMARK                         _______ _______ _______ _____ _____    ______ ____
ROOT
ATOM      1  N   UNL     1       3.701   5.612  17.691  0.00  0.00    +0.000 N 
ATOM      2  C   UNL     1       3.138   6.815  18.224  0.00  0.00    +0.000 A 
ATOM      3  C   UNL     1       3.494   8.128  17.535  0.00  0.00    +0.000 C 
ATOM      4  C   UNL     1       2.302   6.846  19.300  0.00  0.00    +0.000 A 
ATOM      5  C   UNL     1       1.939   5.535  19.910  0.00  0.00    +0.000 A 
ATOM      6  O   UNL     1       1.315   5.458  20.967  0.00  0.00    +0.000 OA
ATOM      7  C   UNL     1       2.299   4.301  19.208  0.00  0.00    +0.000 A 
ATOM      8  C   UNL     1       1.715   3.102  19.663  0.00  0.00    +0.000 A 
ATOM      9  C   UNL     1       2.029   1.899  19.055  0.00  0.00    +0.000 A 
ATOM     10  C   UNL     1       2.942   1.900  18.014  0.00  0.00    +0.000 A 
ATOM     11  C   UNL     1       3.517   3.102  17.566  0.00  0.00    +0.000 A 
ATOM     12  C   UNL     1       3.199   4.352  18.134  0.00  0.00    +0.000 A 
ENDROOT
BRANCH   4  13
ATOM     13  C   UNL     1       1.733   8.126  19.887  0.00  0.00    +0.000 C 
ATOM     14  O   UNL     1       1.970   8.508  21.027  0.00  0.00    +0.000 OA
ATOM     15  N   UNL     1       0.925   8.844  19.035  0.00  0.00    +0.000 N 
ATOM     16  H   UNL     1       0.696   8.405  18.141  0.00  0.00    +0.000 HD
BRANCH  15  17
ATOM     17  C   UNL     1       0.290  10.127  19.314  0.00  0.00    +0.000 C 
ATOM     18  C   UNL     1       1.268  11.256  18.898  0.00  0.00    +0.000 C 
ATOM     19  C   UNL     1       0.660  12.638  19.176  0.00  0.00    +0.000 C 
ATOM     20  C   UNL     1      -0.643  12.785  18.376  0.00  0.00    +0.000 C 
ATOM     21  C   UNL     1      -1.649  11.685  18.783  0.00  0.00    +0.000 C 
ATOM     22  C   UNL     1      -2.943  11.828  17.978  0.00  0.00    +0.000 C 
ATOM     23  C   UNL     1      -1.933  11.807  20.299  0.00  0.00    +0.000 C 
ATOM     24  C   UNL     1      -0.629  11.667  21.120  0.00  0.00    +0.000 C 
ATOM     25  C   UNL     1      -0.921  11.788  22.619  0.00  0.00    +0.000 C 
ATOM     26  C   UNL     1       0.360  12.767  20.676  0.00  0.00    +0.000 C 
ATOM     27  C   UNL     1      -0.004  10.286  20.824  0.00  0.00    +0.000 C 
ATOM     28  C   UNL     1      -1.014  10.303  18.509  0.00  0.00    +0.000 C 
ENDBRANCH  15  17
ENDBRANCH   4  13
BRANCH   1  29
ATOM     29  C   UNL     1       4.667   5.611  16.559  0.00  0.00    +0.000 C 
BRANCH  29  30
ATOM     30  C   UNL     1       6.137   5.501  16.986  0.00  0.00    +0.000 C 
BRANCH  30  31
ATOM     31  C   UNL     1       6.975   4.642  16.043  0.00  0.00    +0.000 C 
BRANCH  31  33
ATOM     32  C   UNL     1       6.423   4.051  13.670  0.00  0.00    +0.000 C 
ATOM     33  C   UNL     1       6.074   3.816  15.129  0.00  0.00    +0.000 C 
ENDBRANCH  31  33
ENDBRANCH  30  31
ENDBRANCH  29  30
ENDBRANCH   1  29
TORSDOF 6
ENDMDL
MODEL 9
REMARK VINA RESULT:      -8.5      1.469      2.654
REMARK  Name = 
REMARK  10 active torsions:
REMARK  status: ('A' for Active; 'I' for Inactive)
REMARK    1  A    between atoms: C_1  and  C_2
REMARK    2  A    between atoms: C_2  and  C_3
REMARK    3  A    between atoms: C_3  and  C_4
REMARK    4  A    between atoms: C_4  and  C_5
REMARK    5  A    between atoms: C_5  and  N_6
REMARK    6  A    between atoms: C_7  and  C_8
REMARK    7  A    between atoms: C_9  and  C_10
REMARK    8  A    between atoms: N_12  and  C_13
REMARK    9  A    between atoms: C_17  and  C_18
REMARK   10  A    between atoms: C_20  and  C_21
REMARK                            x       y       z     vdW  Elec       q    Type
REMARK                         _______ _______ _______ _____ _____    ______ ____
ROOT
ATOM      1  N   UNL     1       3.677   5.698  17.695  0.00  0.00    +0.000 N 
ATOM      2  C   UNL     1       3.115   6.902  18.228  0.00  0.00    +0.000 A 
ATOM      3  C   UNL     1       3.480   8.215  17.546  0.00  0.00    +0.000 C 
ATOM      4  C   UNL     1       2.270   6.931  19.297  0.00  0.00    +0.000 A 
ATOM      5  C   UNL     1       1.898   5.620  19.900  0.00  0.00    +0.000 A 
ATOM      6  O   UNL     1       1.266   5.541  20.952  0.00  0.00    +0.000 OA
ATOM      7  C   UNL     1       2.259   4.387  19.196  0.00  0.00    +0.000 A 
ATOM      8  C   UNL     1       1.667   3.189  19.643  0.00  0.00    +0.000 A 
ATOM      9  C   UNL     1       1.982   1.987  19.033  0.00  0.00    +0.000 A 
ATOM     10  C   UNL     1       2.902   1.987  17.999  0.00  0.00    +0.000 A 
ATOM     11  C   UNL     1       3.485   3.190  17.560  0.00  0.00    +0.000 A 
ATOM     12  C   UNL     1       3.167   4.438  18.129  0.00  0.00    +0.000 A 
ENDROOT
BRANCH   4  13
ATOM     13  C   UNL     1       1.702   8.212  19.885  0.00  0.00    +0.000 C 
ATOM     14  O   UNL     1       1.872   8.552  21.049  0.00  0.00    +0.000 OA
ATOM     15  N   UNL     1       0.975   8.979  19.004  0.00  0.00    +0.000 N 
ATOM     16  H   UNL     1       0.794   8.574  18.083  0.00  0.00    +0.000 HD
BRANCH  15  17
ATOM     17  C   UNL     1       0.362  10.274  19.280  0.00  0.00    +0.000 C 
ATOM     18  C   UNL     1      -0.825  10.470  18.301  0.00  0.00    +0.000 C 
ATOM     19  C   UNL     1      -1.510  11.823  18.535  0.00  0.00    +0.000 C 
ATOM     20  C   UNL     1      -2.036  11.879  19.977  0.00  0.00    +0.000 C 
ATOM     21  C   UNL     1      -0.873  11.707  20.979  0.00  0.00    +0.000 C 
ATOM     22  C   UNL     1      -1.401  11.754  22.415  0.00  0.00    +0.000 C 
ATOM     23  C   UNL     1       0.160  12.834  20.741  0.00  0.00    +0.000 C 
ATOM     24  C   UNL     1       0.696  12.796  19.291  0.00  0.00    +0.000 C 
ATOM     25  C   UNL     1       1.718  13.915  19.065  0.00  0.00    +0.000 C 
ATOM     26  C   UNL     1      -0.492  12.951  18.316  0.00  0.00    +0.000 C 
ATOM     27  C   UNL     1       1.366  11.426  19.046  0.00  0.00    +0.000 C 
ATOM     28  C   UNL     1      -0.188  10.346  20.720  0.00  0.00    +0.000 C 
ENDBRANCH  15  17
ENDBRANCH   4  13
BRANCH   1  29
ATOM     29  C   UNL     1       4.652   5.698  16.570  0.00  0.00    +0.000 C 
BRANCH  29  30
ATOM     30  C   UNL     1       6.122   5.681  17.011  0.00  0.00    +0.000 C 
BRANCH  30  31
ATOM     31  C   UNL     1       6.904   4.497  16.453  0.00  0.00    +0.000 C 
BRANCH  31  33
ATOM     32  C   UNL     1       6.931   4.646  13.950  0.00  0.00    +0.000 C 
ATOM     33  C   UNL     1       6.271   4.000  15.155  0.00  0.00    +0.000 C 
ENDBRANCH  31  33
ENDBRANCH  30  31
ENDBRANCH  29  30
ENDBRANCH   1  29
TORSDOF 6
ENDMDL
