MODEL 1
REMARK VINA RESULT:      -8.0      0.000      0.000
REMARK  Name = 
REMARK  8 active torsions:
REMARK  status: ('A' for Active; 'I' for Inactive)
REMARK    1  A    between atoms: C_1  and  C_2
REMARK    2  A    between atoms: C_2  and  O_3
REMARK    3  A    between atoms: O_3  and  C_4
REMARK    4  A    between atoms: C_4  and  C_6
REMARK    5  A    between atoms: N_12  and  C_13
REMARK    6  A    between atoms: C_13  and  C_14
REMARK    7  A    between atoms: C_25  and  C_26
REMARK    8  A    between atoms: C_26  and  C_27
REMARK                            x       y       z     vdW  Elec       q    Type
REMARK                         _______ _______ _______ _____ _____    ______ ____
ROOT
ATOM      1  C   UNL     1       4.102   3.618  19.543  0.00  0.00    +0.000 C 
ATOM      2  C   UNL     1       4.089   2.620  20.730  0.00  0.00    +0.000 C 
ATOM      3  C   UNL     1       2.718   2.526  21.377  0.00  0.00    +0.000 C 
ATOM      4  C   UNL     1       2.230   3.907  21.813  0.00  0.00    +0.000 C 
ATOM      5  C   UNL     1       2.512   5.025  20.836  0.00  0.00    +0.000 C 
ATOM      6  C   UNL     1       3.378   4.934  19.805  0.00  0.00    +0.000 C 
ATOM      7  N   UNL     1       3.555   5.944  18.837  0.00  0.00    +0.000 N 
ATOM      8  C   UNL     1       4.710   6.030  18.031  0.00  0.00    +0.000 C 
ATOM      9  O   UNL     1       4.880   6.960  17.236  0.00  0.00    +0.000 OA
ATOM     10  C   UNL     1       5.780   4.925  18.109  0.00  0.00    +0.000 C 
ATOM     11  C   UNL     1       5.558   3.936  19.246  0.00  0.00    +0.000 C 
ENDROOT
BRANCH   1  12
ATOM     12  C   UNL     1       3.217   2.984  18.453  0.00  0.00    +0.000 C 
ATOM     13  O   UNL     1       3.518   1.939  17.876  0.00  0.00    +0.000 OA
BRANCH  12  14
ATOM     14  O   UNL     1       2.172   3.750  18.054  0.00  0.00    +0.000 OA
BRANCH  14  16
ATOM     15  C   UNL     1       0.493   2.250  19.136  0.00  0.00    +0.000 C 
ATOM     16  C   UNL     1       0.974   2.971  17.878  0.00  0.00    +0.000 C 
ENDBRANCH  14  16
ENDBRANCH  12  14
ENDBRANCH   1  12
BRANCH   7  17
ATOM     17  C   UNL     1       2.342   6.558  18.215  0.00  0.00    +0.000 C 
BRANCH  17  18
ATOM     18  C   UNL     1       1.919   7.963  18.580  0.00  0.00    +0.000 A 
ATOM     19  C   UNL     1       1.995   9.043  17.680  0.00  0.00    +0.000 A 
ATOM     20  C   UNL     1       1.657  10.342  18.090  0.00  0.00    +0.000 A 
ATOM     21  C   UNL     1       1.234  10.530  19.389  0.00  0.00    +0.000 A 
ATOM     22  C   UNL     1       1.068   9.472  20.247  0.00  0.00    +0.000 A 
ATOM     23  C   UNL     1       1.369   8.182  19.865  0.00  0.00    +0.000 A 
ATOM     24  O   UNL     1       0.620   9.860  21.473  0.00  0.00    +0.000 OA
ATOM     25  C   UNL     1       0.700  11.295  21.336  0.00  0.00    +0.000 C 
ATOM     26  O   UNL     1       0.937  11.720  19.977  0.00  0.00    +0.000 OA
ENDBRANCH  17  18
ENDBRANCH   7  17
BRANCH  10  27
ATOM     27  C   UNL     1       5.961   4.206  16.736  0.00  0.00    +0.000 C 
BRANCH  27  28
ATOM     28  C   UNL     1       6.830   5.018  15.760  0.00  0.00    +0.000 C 
ATOM     29  O   UNL     1       7.565   5.904  16.216  0.00  0.00    +0.000 OA
ATOM     30  N   UNL     1       6.786   4.723  14.388  0.00  0.00    +0.000 N 
ATOM     31  C   UNL     1       7.600   5.597  13.517  0.00  0.00    +0.000 C 
ATOM     32  C   UNL     1       8.127   4.852  12.301  0.00  0.00    +0.000 C 
ATOM     33  C   UNL     1       6.984   4.240  11.504  0.00  0.00    +0.000 C 
ATOM     34  C   UNL     1       6.104   3.372  12.397  0.00  0.00    +0.000 C 
ATOM     35  C   UNL     1       5.689   4.045  13.715  0.00  0.00    +0.000 C 
ENDBRANCH  27  28
ENDBRANCH  10  27
TORSDOF 7
ENDMDL
MODEL 2
REMARK VINA RESULT:      -7.8      1.401      1.747
REMARK  Name = 
REMARK  8 active torsions:
REMARK  status: ('A' for Active; 'I' for Inactive)
REMARK    1  A    between atoms: C_1  and  C_2
REMARK    2  A    between atoms: C_2  and  O_3
REMARK    3  A    between atoms: O_3  and  C_4
REMARK    4  A    between atoms: C_4  and  C_6
REMARK    5  A    between atoms: N_12  and  C_13
REMARK    6  A    between atoms: C_13  and  C_14
REMARK    7  A    between atoms: C_25  and  C_26
REMARK    8  A    between atoms: C_26  and  C_27
REMARK                            x       y       z     vdW  Elec       q    Type
REMARK                         _______ _______ _______ _____ _____    ______ ____
ROOT
ATOM      1  C   UNL     1       3.326   4.899  19.158  0.00  0.00    +0.000 C 
ATOM      2  C   UNL     1       2.991   4.126  20.459  0.00  0.00    +0.000 C 
ATOM      3  C   UNL     1       1.585   4.424  20.950  0.00  0.00    +0.000 C 
ATOM      4  C   UNL     1       1.383   5.927  21.135  0.00  0.00    +0.000 C 
ATOM      5  C   UNL     1       1.989   6.793  20.055  0.00  0.00    +0.000 C 
ATOM      6  C   UNL     1       2.895   6.363  19.153  0.00  0.00    +0.000 C 
ATOM      7  N   UNL     1       3.374   7.148  18.084  0.00  0.00    +0.000 N 
ATOM      8  C   UNL     1       4.583   6.863  17.414  0.00  0.00    +0.000 C 
ATOM      9  O   UNL     1       5.022   7.600  16.524  0.00  0.00    +0.000 OA
ATOM     10  C   UNL     1       5.368   5.585  17.764  0.00  0.00    +0.000 C 
ATOM     11  C   UNL     1       4.836   4.856  18.992  0.00  0.00    +0.000 C 
ENDROOT
BRANCH   1  12
ATOM     12  C   UNL     1       2.416   4.301  18.068  0.00  0.00    +0.000 C 
ATOM     13  O   UNL     1       1.226   4.593  17.961  0.00  0.00    +0.000 OA
BRANCH  12  14
ATOM     14  O   UNL     1       2.979   3.301  17.345  0.00  0.00    +0.000 OA
BRANCH  14  16
ATOM     15  C   UNL     1       3.681   1.194  18.488  0.00  0.00    +0.000 C 
ATOM     16  C   UNL     1       2.572   2.004  17.820  0.00  0.00    +0.000 C 
ENDBRANCH  14  16
ENDBRANCH  12  14
ENDBRANCH   1  12
BRANCH   7  17
ATOM     17  C   UNL     1       2.386   7.895  17.248  0.00  0.00    +0.000 C 
BRANCH  17  18
ATOM     18  C   UNL     1       1.751   9.168  17.762  0.00  0.00    +0.000 A 
ATOM     19  C   UNL     1       2.489  10.337  18.031  0.00  0.00    +0.000 A 
ATOM     20  C   UNL     1       1.864  11.469  18.574  0.00  0.00    +0.000 A 
ATOM     21  C   UNL     1       0.508  11.413  18.823  0.00  0.00    +0.000 A 
ATOM     22  C   UNL     1      -0.237  10.313  18.480  0.00  0.00    +0.000 A 
ATOM     23  C   UNL     1       0.346   9.195  17.923  0.00  0.00    +0.000 A 
ATOM     24  O   UNL     1      -1.556  10.462  18.784  0.00  0.00    +0.000 OA
ATOM     25  C   UNL     1      -1.516  11.704  19.518  0.00  0.00    +0.000 C 
ATOM     26  O   UNL     1      -0.245  12.382  19.410  0.00  0.00    +0.000 OA
ENDBRANCH  17  18
ENDBRANCH   7  17
BRANCH  10  27
ATOM     27  C   UNL     1       5.497   4.637  16.532  0.00  0.00    +0.000 C 
BRANCH  27  28
ATOM     28  C   UNL     1       6.586   5.100  15.548  0.00  0.00    +0.000 C 
ATOM     29  O   UNL     1       7.479   5.852  15.963  0.00  0.00    +0.000 OA
ATOM     30  N   UNL     1       6.555   4.646  14.220  0.00  0.00    +0.000 N 
ATOM     31  C   UNL     1       7.598   5.196  13.329  0.00  0.00    +0.000 C 
ATOM     32  C   UNL     1       8.007   4.200  12.255  0.00  0.00    +0.000 C 
ATOM     33  C   UNL     1       6.801   3.760  11.437  0.00  0.00    +0.000 C 
ATOM     34  C   UNL     1       5.694   3.234  12.344  0.00  0.00    +0.000 C 
ATOM     35  C   UNL     1       5.371   4.149  13.536  0.00  0.00    +0.000 C 
ENDBRANCH  27  28
ENDBRANCH  10  27
TORSDOF 7
ENDMDL
MODEL 3
REMARK VINA RESULT:      -7.8      0.586      1.148
REMARK  Name = 
REMARK  8 active torsions:
REMARK  status: ('A' for Active; 'I' for Inactive)
REMARK    1  A    between atoms: C_1  and  C_2
REMARK    2  A    between atoms: C_2  and  O_3
REMARK    3  A    between atoms: O_3  and  C_4
REMARK    4  A    between atoms: C_4  and  C_6
REMARK    5  A    between atoms: N_12  and  C_13
REMARK    6  A    between atoms: C_13  and  C_14
REMARK    7  A    between atoms: C_25  and  C_26
REMARK    8  A    between atoms: C_26  and  C_27
REMARK                            x       y       z     vdW  Elec       q    Type
REMARK                         _______ _______ _______ _____ _____    ______ ____
ROOT
ATOM      1  C   UNL     1       3.968   3.595  19.492  0.00  0.00    +0.000 C 
ATOM      2  C   UNL     1       3.956   2.517  20.606  0.00  0.00    +0.000 C 
ATOM      3  C   UNL     1       2.618   2.458  21.323  0.00  0.00    +0.000 C 
ATOM      4  C   UNL     1       2.241   3.830  21.880  0.00  0.00    +0.000 C 
ATOM      5  C   UNL     1       2.541   4.997  20.967  0.00  0.00    +0.000 C 
ATOM      6  C   UNL     1       3.343   4.929  19.884  0.00  0.00    +0.000 C 
ATOM      7  N   UNL     1       3.532   5.994  18.978  0.00  0.00    +0.000 N 
ATOM      8  C   UNL     1       4.646   6.069  18.116  0.00  0.00    +0.000 C 
ATOM      9  O   UNL     1       4.832   7.043  17.377  0.00  0.00    +0.000 OA
ATOM     10  C   UNL     1       5.647   4.900  18.056  0.00  0.00    +0.000 C 
ATOM     11  C   UNL     1       5.423   3.847  19.134  0.00  0.00    +0.000 C 
ENDROOT
BRANCH   1  12
ATOM     12  C   UNL     1       2.989   3.094  18.413  0.00  0.00    +0.000 C 
ATOM     13  O   UNL     1       3.205   2.093  17.732  0.00  0.00    +0.000 OA
BRANCH  12  14
ATOM     14  O   UNL     1       1.956   3.934  18.151  0.00  0.00    +0.000 OA
BRANCH  14  16
ATOM     15  C   UNL     1       0.511   2.120  19.080  0.00  0.00    +0.000 C 
ATOM     16  C   UNL     1       0.706   3.226  18.046  0.00  0.00    +0.000 C 
ENDBRANCH  14  16
ENDBRANCH  12  14
ENDBRANCH   1  12
BRANCH   7  17
ATOM     17  C   UNL     1       2.329   6.721  18.471  0.00  0.00    +0.000 C 
BRANCH  17  18
ATOM     18  C   UNL     1       1.821   7.957  19.180  0.00  0.00    +0.000 A 
ATOM     19  C   UNL     1       1.565   7.994  20.563  0.00  0.00    +0.000 A 
ATOM     20  C   UNL     1       1.027   9.144  21.162  0.00  0.00    +0.000 A 
ATOM     21  C   UNL     1       0.772  10.239  20.363  0.00  0.00    +0.000 A 
ATOM     22  C   UNL     1       1.103  10.246  19.031  0.00  0.00    +0.000 A 
ATOM     23  C   UNL     1       1.655   9.140  18.422  0.00  0.00    +0.000 A 
ATOM     24  O   UNL     1       0.794  11.425  18.424  0.00  0.00    +0.000 OA
ATOM     25  C   UNL     1       0.069  12.083  19.485  0.00  0.00    +0.000 C 
ATOM     26  O   UNL     1       0.188  11.404  20.754  0.00  0.00    +0.000 OA
ENDBRANCH  17  18
ENDBRANCH   7  17
BRANCH  10  27
ATOM     27  C   UNL     1       5.709   4.272  16.629  0.00  0.00    +0.000 C 
BRANCH  27  28
ATOM     28  C   UNL     1       6.682   5.021  15.702  0.00  0.00    +0.000 C 
ATOM     29  O   UNL     1       7.440   5.866  16.196  0.00  0.00    +0.000 OA
ATOM     30  N   UNL     1       6.704   4.713  14.332  0.00  0.00    +0.000 N 
ATOM     31  C   UNL     1       7.619   5.528  13.506  0.00  0.00    +0.000 C 
ATOM     32  C   UNL     1       8.173   4.740  12.330  0.00  0.00    +0.000 C 
ATOM     33  C   UNL     1       7.046   4.188  11.469  0.00  0.00    +0.000 C 
ATOM     34  C   UNL     1       6.064   3.383  12.313  0.00  0.00    +0.000 C 
ATOM     35  C   UNL     1       5.611   4.095  13.599  0.00  0.00    +0.000 C 
ENDBRANCH  27  28
ENDBRANCH  10  27
TORSDOF 7
ENDMDL
MODEL 4
REMARK VINA RESULT:      -7.6      1.466      1.978
REMARK  Name = 
REMARK  8 active torsions:
REMARK  status: ('A' for Active; 'I' for Inactive)
REMARK    1  A    between atoms: C_1  and  C_2
REMARK    2  A    between atoms: C_2  and  O_3
REMARK    3  A    between atoms: O_3  and  C_4
REMARK    4  A    between atoms: C_4  and  C_6
REMARK    5  A    between atoms: N_12  and  C_13
REMARK    6  A    between atoms: C_13  and  C_14
REMARK    7  A    between atoms: C_25  and  C_26
REMARK    8  A    between atoms: C_26  and  C_27
REMARK                            x       y       z     vdW  Elec       q    Type
REMARK                         _______ _______ _______ _____ _____    ______ ____
ROOT
ATOM      1  C   UNL     1       3.261   4.826  19.105  0.00  0.00    +0.000 C 
ATOM      2  C   UNL     1       2.964   4.013  20.391  0.00  0.00    +0.000 C 
ATOM      3  C   UNL     1       1.573   4.297  20.932  0.00  0.00    +0.000 C 
ATOM      4  C   UNL     1       1.379   5.794  21.170  0.00  0.00    +0.000 C 
ATOM      5  C   UNL     1       1.954   6.692  20.100  0.00  0.00    +0.000 C 
ATOM      6  C   UNL     1       2.833   6.289  19.158  0.00  0.00    +0.000 C 
ATOM      7  N   UNL     1       3.281   7.107  18.100  0.00  0.00    +0.000 N 
ATOM      8  C   UNL     1       4.469   6.842  17.386  0.00  0.00    +0.000 C 
ATOM      9  O   UNL     1       4.883   7.606  16.507  0.00  0.00    +0.000 OA
ATOM     10  C   UNL     1       5.262   5.553  17.673  0.00  0.00    +0.000 C 
ATOM     11  C   UNL     1       4.765   4.787  18.893  0.00  0.00    +0.000 C 
ENDROOT
BRANCH   1  12
ATOM     12  C   UNL     1       2.318   4.263  18.025  0.00  0.00    +0.000 C 
ATOM     13  O   UNL     1       1.139   4.602  17.928  0.00  0.00    +0.000 OA
BRANCH  12  14
ATOM     14  O   UNL     1       2.834   3.240  17.299  0.00  0.00    +0.000 OA
BRANCH  14  16
ATOM     15  C   UNL     1       3.719   1.184  18.409  0.00  0.00    +0.000 C 
ATOM     16  C   UNL     1       2.516   1.960  17.877  0.00  0.00    +0.000 C 
ENDBRANCH  14  16
ENDBRANCH  12  14
ENDBRANCH   1  12
BRANCH   7  17
ATOM     17  C   UNL     1       2.270   7.881  17.318  0.00  0.00    +0.000 C 
BRANCH  17  18
ATOM     18  C   UNL     1       1.749   9.204  17.833  0.00  0.00    +0.000 A 
ATOM     19  C   UNL     1       0.450   9.366  18.349  0.00  0.00    +0.000 A 
ATOM     20  C   UNL     1      -0.010  10.631  18.748  0.00  0.00    +0.000 A 
ATOM     21  C   UNL     1       0.848  11.705  18.635  0.00  0.00    +0.000 A 
ATOM     22  C   UNL     1       2.146  11.544  18.220  0.00  0.00    +0.000 A 
ATOM     23  C   UNL     1       2.633  10.310  17.846  0.00  0.00    +0.000 A 
ATOM     24  O   UNL     1       2.836  12.717  18.200  0.00  0.00    +0.000 OA
ATOM     25  C   UNL     1       1.771  13.651  18.476  0.00  0.00    +0.000 C 
ATOM     26  O   UNL     1       0.551  13.006  18.903  0.00  0.00    +0.000 OA
ENDBRANCH  17  18
ENDBRANCH   7  17
BRANCH  10  27
ATOM     27  C   UNL     1       5.353   4.644  16.409  0.00  0.00    +0.000 C 
BRANCH  27  28
ATOM     28  C   UNL     1       6.481   5.077  15.456  0.00  0.00    +0.000 C 
ATOM     29  O   UNL     1       7.377   5.811  15.893  0.00  0.00    +0.000 OA
ATOM     30  N   UNL     1       6.479   4.615  14.130  0.00  0.00    +0.000 N 
ATOM     31  C   UNL     1       7.561   5.137  13.268  0.00  0.00    +0.000 C 
ATOM     32  C   UNL     1       7.980   4.126  12.212  0.00  0.00    +0.000 C 
ATOM     33  C   UNL     1       6.790   3.707  11.361  0.00  0.00    +0.000 C 
ATOM     34  C   UNL     1       5.644   3.211  12.236  0.00  0.00    +0.000 C 
ATOM     35  C   UNL     1       5.306   4.140  13.413  0.00  0.00    +0.000 C 
ENDBRANCH  27  28
ENDBRANCH  10  27
TORSDOF 7
ENDMDL
MODEL 5
REMARK VINA RESULT:      -7.6      1.985      7.913
REMARK  Name = 
REMARK  8 active torsions:
REMARK  status: ('A' for Active; 'I' for Inactive)
REMARK    1  A    between atoms: C_1  and  C_2
REMARK    2  A    between atoms: C_2  and  O_3
REMARK    3  A    between atoms: O_3  and  C_4
REMARK    4  A    between atoms: C_4  and  C_6
REMARK    5  A    between atoms: N_12  and  C_13
REMARK    6  A    between atoms: C_13  and  C_14
REMARK    7  A    between atoms: C_25  and  C_26
REMARK    8  A    between atoms: C_26  and  C_27
REMARK                            x       y       z     vdW  Elec       q    Type
REMARK                         _______ _______ _______ _____ _____    ______ ____
ROOT
ATOM      1  C   UNL     1       1.950   4.423  18.723  0.00  0.00    +0.000 C 
ATOM      2  C   UNL     1       0.902   3.290  18.871  0.00  0.00    +0.000 C 
ATOM      3  C   UNL     1       1.538   1.914  18.781  0.00  0.00    +0.000 C 
ATOM      4  C   UNL     1       2.329   1.766  17.482  0.00  0.00    +0.000 C 
ATOM      5  C   UNL     1       3.133   2.982  17.080  0.00  0.00    +0.000 C 
ATOM      6  C   UNL     1       2.969   4.212  17.609  0.00  0.00    +0.000 C 
ATOM      7  N   UNL     1       3.795   5.314  17.305  0.00  0.00    +0.000 N 
ATOM      8  C   UNL     1       3.390   6.649  17.521  0.00  0.00    +0.000 C 
ATOM      9  O   UNL     1       4.098   7.605  17.186  0.00  0.00    +0.000 OA
ATOM     10  C   UNL     1       2.050   6.937  18.223  0.00  0.00    +0.000 C 
ATOM     11  C   UNL     1       1.184   5.700  18.421  0.00  0.00    +0.000 C 
ENDROOT
BRANCH   1  12
ATOM     12  C   UNL     1       2.837   4.340  19.980  0.00  0.00    +0.000 C 
ATOM     13  O   UNL     1       4.020   4.003  19.937  0.00  0.00    +0.000 OA
BRANCH  12  14
ATOM     14  O   UNL     1       2.176   4.496  21.154  0.00  0.00    +0.000 OA
BRANCH  14  16
ATOM     15  C   UNL     1       1.207   2.448  22.204  0.00  0.00    +0.000 C 
ATOM     16  C   UNL     1       2.400   3.388  22.045  0.00  0.00    +0.000 C 
ENDBRANCH  14  16
ENDBRANCH  12  14
ENDBRANCH   1  12
BRANCH   7  17
ATOM     17  C   UNL     1       5.277   5.124  17.329  0.00  0.00    +0.000 C 
BRANCH  17  18
ATOM     18  C   UNL     1       6.056   4.993  16.040  0.00  0.00    +0.000 A 
ATOM     19  C   UNL     1       7.246   5.702  15.790  0.00  0.00    +0.000 A 
ATOM     20  C   UNL     1       7.894   5.600  14.549  0.00  0.00    +0.000 A 
ATOM     21  C   UNL     1       7.344   4.775  13.589  0.00  0.00    +0.000 A 
ATOM     22  C   UNL     1       6.237   4.009  13.853  0.00  0.00    +0.000 A 
ATOM     23  C   UNL     1       5.594   4.071  15.071  0.00  0.00    +0.000 A 
ATOM     24  O   UNL     1       5.864   3.247  12.789  0.00  0.00    +0.000 OA
ATOM     25  C   UNL     1       6.756   3.761  11.776  0.00  0.00    +0.000 C 
ATOM     26  O   UNL     1       7.792   4.611  12.315  0.00  0.00    +0.000 OA
ENDBRANCH  17  18
ENDBRANCH   7  17
BRANCH  10  27
ATOM     27  C   UNL     1       2.259   7.724  19.554  0.00  0.00    +0.000 C 
BRANCH  27  28
ATOM     28  C   UNL     1       1.590   9.109  19.527  0.00  0.00    +0.000 C 
ATOM     29  O   UNL     1       1.651   9.777  18.486  0.00  0.00    +0.000 OA
ATOM     30  N   UNL     1       0.911   9.570  20.667  0.00  0.00    +0.000 N 
ATOM     31  C   UNL     1       0.359  10.938  20.575  0.00  0.00    +0.000 C 
ATOM     32  C   UNL     1      -0.913  11.090  21.393  0.00  0.00    +0.000 C 
ATOM     33  C   UNL     1      -0.668  10.723  22.850  0.00  0.00    +0.000 C 
ATOM     34  C   UNL     1      -0.052   9.332  22.962  0.00  0.00    +0.000 C 
ATOM     35  C   UNL     1       1.141   9.096  22.023  0.00  0.00    +0.000 C 
ENDBRANCH  27  28
ENDBRANCH  10  27
TORSDOF 7
ENDMDL
MODEL 6
REMARK VINA RESULT:      -7.5      1.966      7.912
REMARK  Name = 
REMARK  8 active torsions:
REMARK  status: ('A' for Active; 'I' for Inactive)
REMARK    1  A    between atoms: C_1  and  C_2
REMARK    2  A    between atoms: C_2  and  O_3
REMARK    3  A    between atoms: O_3  and  C_4
REMARK    4  A    between atoms: C_4  and  C_6
REMARK    5  A    between atoms: N_12  and  C_13
REMARK    6  A    between atoms: C_13  and  C_14
REMARK    7  A    between atoms: C_25  and  C_26
REMARK    8  A    between atoms: C_26  and  C_27
REMARK                            x       y       z     vdW  Elec       q    Type
REMARK                         _______ _______ _______ _____ _____    ______ ____
ROOT
ATOM      1  C   UNL     1       1.830   4.368  18.961  0.00  0.00    +0.000 C 
ATOM      2  C   UNL     1       0.743   3.281  19.159  0.00  0.00    +0.000 C 
ATOM      3  C   UNL     1       1.329   1.880  19.120  0.00  0.00    +0.000 C 
ATOM      4  C   UNL     1       2.104   1.652  17.824  0.00  0.00    +0.000 C 
ATOM      5  C   UNL     1       2.949   2.821  17.369  0.00  0.00    +0.000 C 
ATOM      6  C   UNL     1       2.833   4.077  17.849  0.00  0.00    +0.000 C 
ATOM      7  N   UNL     1       3.696   5.135  17.497  0.00  0.00    +0.000 N 
ATOM      8  C   UNL     1       3.342   6.491  17.662  0.00  0.00    +0.000 C 
ATOM      9  O   UNL     1       4.082   7.406  17.285  0.00  0.00    +0.000 OA
ATOM     10  C   UNL     1       2.019   6.856  18.360  0.00  0.00    +0.000 C 
ATOM     11  C   UNL     1       1.109   5.659  18.612  0.00  0.00    +0.000 C 
ENDROOT
BRANCH   1  12
ATOM     12  C   UNL     1       2.724   4.302  20.214  0.00  0.00    +0.000 C 
ATOM     13  O   UNL     1       2.447   4.890  21.259  0.00  0.00    +0.000 OA
BRANCH  12  14
ATOM     14  O   UNL     1       3.920   3.692  20.027  0.00  0.00    +0.000 OA
BRANCH  14  16
ATOM     15  C   UNL     1       4.948   1.432  20.304  0.00  0.00    +0.000 C 
ATOM     16  C   UNL     1       4.074   2.544  20.882  0.00  0.00    +0.000 C 
ENDBRANCH  14  16
ENDBRANCH  12  14
ENDBRANCH   1  12
BRANCH   7  17
ATOM     17  C   UNL     1       5.170   4.892  17.520  0.00  0.00    +0.000 C 
BRANCH  17  18
ATOM     18  C   UNL     1       5.962   4.843  16.233  0.00  0.00    +0.000 A 
ATOM     19  C   UNL     1       7.135   5.594  16.027  0.00  0.00    +0.000 A 
ATOM     20  C   UNL     1       7.794   5.568  14.788  0.00  0.00    +0.000 A 
ATOM     21  C   UNL     1       7.272   4.778  13.785  0.00  0.00    +0.000 A 
ATOM     22  C   UNL     1       6.183   3.972  14.002  0.00  0.00    +0.000 A 
ATOM     23  C   UNL     1       5.530   3.958  15.217  0.00  0.00    +0.000 A 
ATOM     24  O   UNL     1       5.838   3.254  12.899  0.00  0.00    +0.000 OA
ATOM     25  C   UNL     1       6.723   3.839  11.920  0.00  0.00    +0.000 C 
ATOM     26  O   UNL     1       7.733   4.687  12.508  0.00  0.00    +0.000 OA
ENDBRANCH  17  18
ENDBRANCH   7  17
BRANCH  10  27
ATOM     27  C   UNL     1       2.265   7.686  19.657  0.00  0.00    +0.000 C 
BRANCH  27  28
ATOM     28  C   UNL     1       1.591   9.068  19.605  0.00  0.00    +0.000 C 
ATOM     29  O   UNL     1       1.649   9.717  18.552  0.00  0.00    +0.000 OA
ATOM     30  N   UNL     1       0.912   9.547  20.737  0.00  0.00    +0.000 N 
ATOM     31  C   UNL     1       0.355  10.911  20.620  0.00  0.00    +0.000 C 
ATOM     32  C   UNL     1      -0.917  11.074  21.437  0.00  0.00    +0.000 C 
ATOM     33  C   UNL     1      -0.669  10.735  22.899  0.00  0.00    +0.000 C 
ATOM     34  C   UNL     1      -0.048   9.349  23.037  0.00  0.00    +0.000 C 
ATOM     35  C   UNL     1       1.145   9.100  22.101  0.00  0.00    +0.000 C 
ENDBRANCH  27  28
ENDBRANCH  10  27
TORSDOF 7
ENDMDL
MODEL 7
REMARK VINA RESULT:      -7.4      4.428      8.531
REMARK  Name = 
REMARK  8 active torsions:
REMARK  status: ('A' for Active; 'I' for Inactive)
REMARK    1  A    between atoms: C_1  and  C_2
REMARK    2  A    between atoms: C_2  and  O_3
REMARK    3  A    between atoms: O_3  and  C_4
REMARK    4  A    between atoms: C_4  and  C_6
REMARK    5  A    between atoms: N_12  and  C_13
REMARK    6  A    between atoms: C_13  and  C_14
REMARK    7  A    between atoms: C_25  and  C_26
REMARK    8  A    between atoms: C_26  and  C_27
REMARK                            x       y       z     vdW  Elec       q    Type
REMARK                         _______ _______ _______ _____ _____    ______ ____
ROOT
ATOM      1  C   UNL     1       1.062  12.474  19.696  0.00  0.00    +0.000 C 
ATOM      2  C   UNL     1       1.971  13.713  19.904  0.00  0.00    +0.000 C 
ATOM      3  C   UNL     1       1.242  14.835  20.624  0.00  0.00    +0.000 C 
ATOM      4  C   UNL     1      -0.041  15.211  19.883  0.00  0.00    +0.000 C 
ATOM      5  C   UNL     1      -0.832  14.043  19.340  0.00  0.00    +0.000 C 
ATOM      6  C   UNL     1      -0.352  12.788  19.219  0.00  0.00    +0.000 C 
ATOM      7  N   UNL     1      -1.130  11.684  18.812  0.00  0.00    +0.000 N 
ATOM      8  C   UNL     1      -0.560  10.500  18.299  0.00  0.00    +0.000 C 
ATOM      9  O   UNL     1      -1.258   9.569  17.884  0.00  0.00    +0.000 OA
ATOM     10  C   UNL     1       0.971  10.334  18.283  0.00  0.00    +0.000 C 
ATOM     11  C   UNL     1       1.729  11.606  18.642  0.00  0.00    +0.000 C 
ENDROOT
BRANCH   1  12
ATOM     12  C   UNL     1       0.799  11.905  21.103  0.00  0.00    +0.000 C 
ATOM     13  O   UNL     1       1.421  10.946  21.560  0.00  0.00    +0.000 OA
BRANCH  12  14
ATOM     14  O   UNL     1      -0.282  12.427  21.734  0.00  0.00    +0.000 OA
BRANCH  14  16
ATOM     15  C   UNL     1      -2.254  11.851  23.155  0.00  0.00    +0.000 C 
ATOM     16  C   UNL     1      -0.842  11.505  22.687  0.00  0.00    +0.000 C 
ENDBRANCH  14  16
ENDBRANCH  12  14
ENDBRANCH   1  12
BRANCH   7  17
ATOM     17  C   UNL     1      -2.467  11.481  19.447  0.00  0.00    +0.000 C 
BRANCH  17  18
ATOM     18  C   UNL     1      -3.736  11.807  18.691  0.00  0.00    +0.000 A 
ATOM     19  C   UNL     1      -3.902  11.532  17.321  0.00  0.00    +0.000 A 
ATOM     20  C   UNL     1      -5.071  11.919  16.649  0.00  0.00    +0.000 A 
ATOM     21  C   UNL     1      -6.058  12.560  17.369  0.00  0.00    +0.000 A 
ATOM     22  C   UNL     1      -5.947  12.751  18.723  0.00  0.00    +0.000 A 
ATOM     23  C   UNL     1      -4.820  12.359  19.414  0.00  0.00    +0.000 A 
ATOM     24  O   UNL     1      -7.033  13.378  19.252  0.00  0.00    +0.000 OA
ATOM     25  C   UNL     1      -7.751  13.716  18.047  0.00  0.00    +0.000 C 
ATOM     26  O   UNL     1      -7.218  13.068  16.872  0.00  0.00    +0.000 OA
ENDBRANCH  17  18
ENDBRANCH   7  17
BRANCH  10  27
ATOM     27  C   UNL     1       1.425   9.119  19.150  0.00  0.00    +0.000 C 
BRANCH  27  28
ATOM     28  C   UNL     1       2.265   8.109  18.349  0.00  0.00    +0.000 C 
ATOM     29  O   UNL     1       2.716   8.453  17.248  0.00  0.00    +0.000 OA
ATOM     30  N   UNL     1       2.517   6.838  18.891  0.00  0.00    +0.000 N 
ATOM     31  C   UNL     1       3.273   5.910  18.024  0.00  0.00    +0.000 C 
ATOM     32  C   UNL     1       4.140   4.959  18.834  0.00  0.00    +0.000 C 
ATOM     33  C   UNL     1       3.298   4.174  19.830  0.00  0.00    +0.000 C 
ATOM     34  C   UNL     1       2.473   5.115  20.703  0.00  0.00    +0.000 C 
ATOM     35  C   UNL     1       1.711   6.194  19.916  0.00  0.00    +0.000 C 
ENDBRANCH  27  28
ENDBRANCH  10  27
TORSDOF 7
ENDMDL
MODEL 8
REMARK VINA RESULT:      -7.3      6.289     11.265
REMARK  Name = 
REMARK  8 active torsions:
REMARK  status: ('A' for Active; 'I' for Inactive)
REMARK    1  A    between atoms: C_1  and  C_2
REMARK    2  A    between atoms: C_2  and  O_3
REMARK    3  A    between atoms: O_3  and  C_4
REMARK    4  A    between atoms: C_4  and  C_6
REMARK    5  A    between atoms: N_12  and  C_13
REMARK    6  A    between atoms: C_13  and  C_14
REMARK    7  A    between atoms: C_25  and  C_26
REMARK    8  A    between atoms: C_26  and  C_27
REMARK                            x       y       z     vdW  Elec       q    Type
REMARK                         _______ _______ _______ _____ _____    ______ ____
ROOT
ATOM      1  C   UNL     1      -0.146  11.180  19.206  0.00  0.00    +0.000 C 
ATOM      2  C   UNL     1       0.104   9.930  18.323  0.00  0.00    +0.000 C 
ATOM      3  C   UNL     1       1.577   9.561  18.268  0.00  0.00    +0.000 C 
ATOM      4  C   UNL     1       2.416  10.747  17.795  0.00  0.00    +0.000 C 
ATOM      5  C   UNL     1       2.009  12.087  18.364  0.00  0.00    +0.000 C 
ATOM      6  C   UNL     1       0.838  12.324  18.992  0.00  0.00    +0.000 C 
ATOM      7  N   UNL     1       0.514  13.548  19.613  0.00  0.00    +0.000 N 
ATOM      8  C   UNL     1      -0.816  13.928  19.893  0.00  0.00    +0.000 C 
ATOM      9  O   UNL     1      -1.088  15.033  20.376  0.00  0.00    +0.000 OA
ATOM     10  C   UNL     1      -1.966  12.938  19.630  0.00  0.00    +0.000 C 
ATOM     11  C   UNL     1      -1.537  11.690  18.868  0.00  0.00    +0.000 C 
ENDROOT
BRANCH   1  12
ATOM     12  C   UNL     1       0.184  10.747  20.647  0.00  0.00    +0.000 C 
ATOM     13  O   UNL     1       1.030  11.318  21.335  0.00  0.00    +0.000 OA
BRANCH  12  14
ATOM     14  O   UNL     1      -0.402   9.589  21.041  0.00  0.00    +0.000 OA
BRANCH  14  16
ATOM     15  C   UNL     1       1.151   7.641  21.226  0.00  0.00    +0.000 C 
ATOM     16  C   UNL     1       0.459   8.822  21.904  0.00  0.00    +0.000 C 
ENDBRANCH  14  16
ENDBRANCH  12  14
ENDBRANCH   1  12
BRANCH   7  17
ATOM     17  C   UNL     1       1.523  14.180  20.516  0.00  0.00    +0.000 C 
BRANCH  17  18
ATOM     18  C   UNL     1       2.552  15.142  19.966  0.00  0.00    +0.000 A 
ATOM     19  C   UNL     1       2.491  15.664  18.661  0.00  0.00    +0.000 A 
ATOM     20  C   UNL     1       3.509  16.497  18.173  0.00  0.00    +0.000 A 
ATOM     21  C   UNL     1       4.561  16.804  19.011  0.00  0.00    +0.000 A 
ATOM     22  C   UNL     1       4.586  16.376  20.315  0.00  0.00    +0.000 A 
ATOM     23  C   UNL     1       3.587  15.576  20.828  0.00  0.00    +0.000 A 
ATOM     24  O   UNL     1       5.693  16.802  20.982  0.00  0.00    +0.000 OA
ATOM     25  C   UNL     1       6.441  17.390  19.897  0.00  0.00    +0.000 C 
ATOM     26  O   UNL     1       5.665  17.531  18.687  0.00  0.00    +0.000 OA
ENDBRANCH  17  18
ENDBRANCH   7  17
BRANCH  10  27
ATOM     27  C   UNL     1      -2.731  12.587  20.944  0.00  0.00    +0.000 C 
BRANCH  27  28
ATOM     28  C   UNL     1      -4.254  12.748  20.794  0.00  0.00    +0.000 C 
ATOM     29  O   UNL     1      -4.735  12.811  19.655  0.00  0.00    +0.000 OA
ATOM     30  N   UNL     1      -5.058  12.796  21.944  0.00  0.00    +0.000 N 
ATOM     31  C   UNL     1      -6.500  13.022  21.709  0.00  0.00    +0.000 C 
ATOM     32  C   UNL     1      -7.358  12.335  22.760  0.00  0.00    +0.000 C 
ATOM     33  C   UNL     1      -6.979  12.802  24.158  0.00  0.00    +0.000 C 
ATOM     34  C   UNL     1      -5.484  12.622  24.402  0.00  0.00    +0.000 C 
ATOM     35  C   UNL     1      -4.594  13.164  23.272  0.00  0.00    +0.000 C 
ENDBRANCH  27  28
ENDBRANCH  10  27
TORSDOF 7
ENDMDL
MODEL 9
REMARK VINA RESULT:      -7.2      7.780     11.087
REMARK  Name = 
REMARK  8 active torsions:
REMARK  status: ('A' for Active; 'I' for Inactive)
REMARK    1  A    between atoms: C_1  and  C_2
REMARK    2  A    between atoms: C_2  and  O_3
REMARK    3  A    between atoms: O_3  and  C_4
REMARK    4  A    between atoms: C_4  and  C_6
REMARK    5  A    between atoms: N_12  and  C_13
REMARK    6  A    between atoms: C_13  and  C_14
REMARK    7  A    between atoms: C_25  and  C_26
REMARK    8  A    between atoms: C_26  and  C_27
REMARK                            x       y       z     vdW  Elec       q    Type
REMARK                         _______ _______ _______ _____ _____    ______ ____
ROOT
ATOM      1  C   UNL     1       9.619  13.643  18.795  0.00  0.00    +0.000 C 
ATOM      2  C   UNL     1      10.967  13.683  18.032  0.00  0.00    +0.000 C 
ATOM      3  C   UNL     1      11.810  12.449  18.305  0.00  0.00    +0.000 C 
ATOM      4  C   UNL     1      12.032  12.266  19.806  0.00  0.00    +0.000 C 
ATOM      5  C   UNL     1      10.824  12.543  20.670  0.00  0.00    +0.000 C 
ATOM      6  C   UNL     1       9.717  13.190  20.248  0.00  0.00    +0.000 C 
ATOM      7  N   UNL     1       8.554  13.350  21.030  0.00  0.00    +0.000 N 
ATOM      8  C   UNL     1       7.591  14.345  20.763  0.00  0.00    +0.000 C 
ATOM      9  O   UNL     1       6.612  14.516  21.497  0.00  0.00    +0.000 OA
ATOM     10  C   UNL     1       7.730  15.226  19.507  0.00  0.00    +0.000 C 
ATOM     11  C   UNL     1       9.060  15.056  18.783  0.00  0.00    +0.000 C 
ENDROOT
BRANCH   1  12
ATOM     12  C   UNL     1       8.812  12.493  18.162  0.00  0.00    +0.000 C 
ATOM     13  O   UNL     1       8.113  12.643  17.161  0.00  0.00    +0.000 OA
BRANCH  12  14
ATOM     14  O   UNL     1       8.792  11.347  18.887  0.00  0.00    +0.000 OA
BRANCH  14  16
ATOM     15  C   UNL     1       8.145   9.101  18.006  0.00  0.00    +0.000 C 
ATOM     16  C   UNL     1       9.191  10.209  18.100  0.00  0.00    +0.000 C 
ENDBRANCH  14  16
ENDBRANCH  12  14
ENDBRANCH   1  12
BRANCH   7  17
ATOM     17  C   UNL     1       8.005  12.158  21.744  0.00  0.00    +0.000 C 
BRANCH  17  18
ATOM     18  C   UNL     1       7.673  12.230  23.217  0.00  0.00    +0.000 A 
ATOM     19  C   UNL     1       6.525  11.634  23.773  0.00  0.00    +0.000 A 
ATOM     20  C   UNL     1       6.225  11.790  25.135  0.00  0.00    +0.000 A 
ATOM     21  C   UNL     1       7.090  12.528  25.916  0.00  0.00    +0.000 A 
ATOM     22  C   UNL     1       8.259  13.035  25.406  0.00  0.00    +0.000 A 
ATOM     23  C   UNL     1       8.592  12.877  24.077  0.00  0.00    +0.000 A 
ATOM     24  O   UNL     1       8.985  13.710  26.339  0.00  0.00    +0.000 OA
ATOM     25  C   UNL     1       8.052  13.718  27.439  0.00  0.00    +0.000 C 
ATOM     26  O   UNL     1       6.923  12.842  27.229  0.00  0.00    +0.000 OA
ENDBRANCH  17  18
ENDBRANCH   7  17
BRANCH  10  27
ATOM     27  C   UNL     1       6.514  15.050  18.546  0.00  0.00    +0.000 C 
BRANCH  27  28
ATOM     28  C   UNL     1       5.459  16.155  18.727  0.00  0.00    +0.000 C 
ATOM     29  O   UNL     1       5.834  17.334  18.762  0.00  0.00    +0.000 OA
ATOM     30  N   UNL     1       4.103  15.804  18.827  0.00  0.00    +0.000 N 
ATOM     31  C   UNL     1       3.167  16.922  19.069  0.00  0.00    +0.000 C 
ATOM     32  C   UNL     1       1.809  16.671  18.433  0.00  0.00    +0.000 C 
ATOM     33  C   UNL     1       1.207  15.368  18.938  0.00  0.00    +0.000 C 
ATOM     34  C   UNL     1       2.178  14.209  18.741  0.00  0.00    +0.000 C 
ATOM     35  C   UNL     1       3.607  14.498  19.230  0.00  0.00    +0.000 C 
ENDBRANCH  27  28
ENDBRANCH  10  27
TORSDOF 7
ENDMDL
