MODEL 1
REMARK VINA RESULT:      -5.1      0.000      0.000
REMARK  Name = 
REMARK  5 active torsions:
REMARK  status: ('A' for Active; 'I' for Inactive)
REMARK    1  A    between atoms: C_1  and  C_2
REMARK    2  A    between atoms: C_2  and  C_3
REMARK    3  A    between atoms: C_3  and  C_4
REMARK    4  A    between atoms: C_4  and  N_5
REMARK    5  A    between atoms: N_5  and  C_6
REMARK                            x       y       z     vdW  Elec       q    Type
REMARK                         _______ _______ _______ _____ _____    ______ ____
ROOT
ATOM      1  N   UNL     1       5.682   3.627  18.560  0.00  0.00    +0.000 N 
ATOM      2  H   UNL     1       6.076   2.792  18.132  0.00  0.00    +0.000 HD
ENDROOT
BRANCH   1   3
ATOM      3  C   UNL     1       4.293   3.682  18.373  0.00  0.00    +0.000 A 
ATOM      4  C   UNL     1       3.681   4.939  18.264  0.00  0.00    +0.000 A 
ATOM      5  C   UNL     1       2.315   5.066  17.998  0.00  0.00    +0.000 A 
ATOM      6  C   UNL     1       1.537   3.931  17.802  0.00  0.00    +0.000 A 
ATOM      7  C   UNL     1       2.131   2.673  17.871  0.00  0.00    +0.000 A 
ATOM      8  C   UNL     1       3.498   2.552  18.146  0.00  0.00    +0.000 A 
ENDBRANCH   1   3
BRANCH   1   9
ATOM      9  C   UNL     1       6.476   4.821  18.276  0.00  0.00    +0.000 C 
BRANCH   9  10
ATOM     10  C   UNL     1       7.366   4.553  17.060  0.00  0.00    +0.000 C 
BRANCH  10  12
ATOM     11  C   UNL     1       6.019   3.904  15.028  0.00  0.00    +0.000 C 
ATOM     12  C   UNL     1       6.706   5.039  15.769  0.00  0.00    +0.000 C 
ENDBRANCH  10  12
ENDBRANCH   9  10
ENDBRANCH   1   9
TORSDOF 4
ENDMDL
MODEL 2
REMARK VINA RESULT:      -5.0      1.169      1.790
REMARK  Name = 
REMARK  5 active torsions:
REMARK  status: ('A' for Active; 'I' for Inactive)
REMARK    1  A    between atoms: C_1  and  C_2
REMARK    2  A    between atoms: C_2  and  C_3
REMARK    3  A    between atoms: C_3  and  C_4
REMARK    4  A    between atoms: C_4  and  N_5
REMARK    5  A    between atoms: N_5  and  C_6
REMARK                            x       y       z     vdW  Elec       q    Type
REMARK                         _______ _______ _______ _____ _____    ______ ____
ROOT
ATOM      1  N   UNL     1       5.460   3.654  18.473  0.00  0.00    +0.000 N 
ATOM      2  H   UNL     1       5.928   2.764  18.626  0.00  0.00    +0.000 HD
ENDROOT
BRANCH   1   3
ATOM      3  C   UNL     1       4.066   3.502  18.495  0.00  0.00    +0.000 A 
ATOM      4  C   UNL     1       3.269   4.562  18.041  0.00  0.00    +0.000 A 
ATOM      5  C   UNL     1       1.878   4.448  17.961  0.00  0.00    +0.000 A 
ATOM      6  C   UNL     1       1.258   3.253  18.306  0.00  0.00    +0.000 A 
ATOM      7  C   UNL     1       2.033   2.176  18.727  0.00  0.00    +0.000 A 
ATOM      8  C   UNL     1       3.425   2.298  18.813  0.00  0.00    +0.000 A 
ENDBRANCH   1   3
BRANCH   1   9
ATOM      9  C   UNL     1       6.065   4.417  17.383  0.00  0.00    +0.000 C 
BRANCH   9  10
ATOM     10  C   UNL     1       7.525   4.717  17.731  0.00  0.00    +0.000 C 
BRANCH  10  12
ATOM     11  C   UNL     1       7.556   7.239  17.697  0.00  0.00    +0.000 C 
ATOM     12  C   UNL     1       7.648   5.994  18.563  0.00  0.00    +0.000 C 
ENDBRANCH  10  12
ENDBRANCH   9  10
ENDBRANCH   1   9
TORSDOF 4
ENDMDL
MODEL 3
REMARK VINA RESULT:      -5.0      1.471      2.394
REMARK  Name = 
REMARK  5 active torsions:
REMARK  status: ('A' for Active; 'I' for Inactive)
REMARK    1  A    between atoms: C_1  and  C_2
REMARK    2  A    between atoms: C_2  and  C_3
REMARK    3  A    between atoms: C_3  and  C_4
REMARK    4  A    between atoms: C_4  and  N_5
REMARK    5  A    between atoms: N_5  and  C_6
REMARK                            x       y       z     vdW  Elec       q    Type
REMARK                         _______ _______ _______ _____ _____    ______ ____
ROOT
ATOM      1  N   UNL     1       5.353   3.384  18.615  0.00  0.00    +0.000 N 
ATOM      2  H   UNL     1       5.817   2.517  18.354  0.00  0.00    +0.000 HD
ENDROOT
BRANCH   1   3
ATOM      3  C   UNL     1       3.960   3.265  18.502  0.00  0.00    +0.000 A 
ATOM      4  C   UNL     1       3.311   2.265  19.240  0.00  0.00    +0.000 A 
ATOM      5  C   UNL     1       1.919   2.141  19.236  0.00  0.00    +0.000 A 
ATOM      6  C   UNL     1       1.144   3.042  18.514  0.00  0.00    +0.000 A 
ATOM      7  C   UNL     1       1.765   4.063  17.801  0.00  0.00    +0.000 A 
ATOM      8  C   UNL     1       3.161   4.177  17.803  0.00  0.00    +0.000 A 
ENDBRANCH   1   3
BRANCH   1   9
ATOM      9  C   UNL     1       6.007   4.556  18.037  0.00  0.00    +0.000 C 
BRANCH   9  10
ATOM     10  C   UNL     1       6.508   5.459  19.167  0.00  0.00    +0.000 C 
BRANCH  10  12
ATOM     11  C   UNL     1       7.531   7.183  17.637  0.00  0.00    +0.000 C 
ATOM     12  C   UNL     1       7.785   6.198  18.765  0.00  0.00    +0.000 C 
ENDBRANCH  10  12
ENDBRANCH   9  10
ENDBRANCH   1   9
TORSDOF 4
ENDMDL
MODEL 4
REMARK VINA RESULT:      -5.0      1.613      2.502
REMARK  Name = 
REMARK  5 active torsions:
REMARK  status: ('A' for Active; 'I' for Inactive)
REMARK    1  A    between atoms: C_1  and  C_2
REMARK    2  A    between atoms: C_2  and  C_3
REMARK    3  A    between atoms: C_3  and  C_4
REMARK    4  A    between atoms: C_4  and  N_5
REMARK    5  A    between atoms: N_5  and  C_6
REMARK                            x       y       z     vdW  Elec       q    Type
REMARK                         _______ _______ _______ _____ _____    ______ ____
ROOT
ATOM      1  N   UNL     1       5.908   4.409  18.050  0.00  0.00    +0.000 N 
ATOM      2  H   UNL     1       6.394   4.509  17.162  0.00  0.00    +0.000 HD
ENDROOT
BRANCH   1   3
ATOM      3  C   UNL     1       4.517   4.414  17.867  0.00  0.00    +0.000 A 
ATOM      4  C   UNL     1       3.882   3.211  17.527  0.00  0.00    +0.000 A 
ATOM      5  C   UNL     1       2.492   3.128  17.408  0.00  0.00    +0.000 A 
ATOM      6  C   UNL     1       1.704   4.246  17.659  0.00  0.00    +0.000 A 
ATOM      7  C   UNL     1       2.312   5.442  18.031  0.00  0.00    +0.000 A 
ATOM      8  C   UNL     1       3.706   5.521  18.141  0.00  0.00    +0.000 A 
ENDBRANCH   1   3
BRANCH   1   9
ATOM      9  C   UNL     1       6.481   5.255  19.094  0.00  0.00    +0.000 C 
BRANCH   9  10
ATOM     10  C   UNL     1       7.695   5.997  18.527  0.00  0.00    +0.000 C 
BRANCH  10  12
ATOM     11  C   UNL     1       7.841   8.379  17.709  0.00  0.00    +0.000 C 
ATOM     12  C   UNL     1       7.283   6.991  17.441  0.00  0.00    +0.000 C 
ENDBRANCH  10  12
ENDBRANCH   9  10
ENDBRANCH   1   9
TORSDOF 4
ENDMDL
MODEL 5
REMARK VINA RESULT:      -4.9      1.590      4.573
REMARK  Name = 
REMARK  5 active torsions:
REMARK  status: ('A' for Active; 'I' for Inactive)
REMARK    1  A    between atoms: C_1  and  C_2
REMARK    2  A    between atoms: C_2  and  C_3
REMARK    3  A    between atoms: C_3  and  C_4
REMARK    4  A    between atoms: C_4  and  N_5
REMARK    5  A    between atoms: N_5  and  C_6
REMARK                            x       y       z     vdW  Elec       q    Type
REMARK                         _______ _______ _______ _____ _____    ______ ____
ROOT
ATOM      1  N   UNL     1       5.799   3.882  18.977  0.00  0.00    +0.000 N 
ATOM      2  H   UNL     1       6.298   3.561  19.804  0.00  0.00    +0.000 HD
ENDROOT
BRANCH   1   3
ATOM      3  C   UNL     1       6.290   5.123  18.543  0.00  0.00    +0.000 A 
ATOM      4  C   UNL     1       7.496   5.592  19.083  0.00  0.00    +0.000 A 
ATOM      5  C   UNL     1       8.082   6.780  18.637  0.00  0.00    +0.000 A 
ATOM      6  C   UNL     1       7.485   7.509  17.615  0.00  0.00    +0.000 A 
ATOM      7  C   UNL     1       6.305   7.043  17.041  0.00  0.00    +0.000 A 
ATOM      8  C   UNL     1       5.719   5.857  17.497  0.00  0.00    +0.000 A 
ENDBRANCH   1   3
BRANCH   1   9
ATOM      9  C   UNL     1       4.354   3.702  19.098  0.00  0.00    +0.000 C 
BRANCH   9  10
ATOM     10  C   UNL     1       3.877   2.735  18.011  0.00  0.00    +0.000 C 
BRANCH  10  12
ATOM     11  C   UNL     1       2.127   4.550  17.942  0.00  0.00    +0.000 C 
ATOM     12  C   UNL     1       2.580   3.220  17.364  0.00  0.00    +0.000 C 
ENDBRANCH  10  12
ENDBRANCH   9  10
ENDBRANCH   1   9
TORSDOF 4
ENDMDL
MODEL 6
REMARK VINA RESULT:      -4.9      1.944      2.896
REMARK  Name = 
REMARK  5 active torsions:
REMARK  status: ('A' for Active; 'I' for Inactive)
REMARK    1  A    between atoms: C_1  and  C_2
REMARK    2  A    between atoms: C_2  and  C_3
REMARK    3  A    between atoms: C_3  and  C_4
REMARK    4  A    between atoms: C_4  and  N_5
REMARK    5  A    between atoms: N_5  and  C_6
REMARK                            x       y       z     vdW  Elec       q    Type
REMARK                         _______ _______ _______ _____ _____    ______ ____
ROOT
ATOM      1  N   UNL     1       4.881   3.046  19.348  0.00  0.00    +0.000 N 
ATOM      2  H   UNL     1       5.222   2.127  19.072  0.00  0.00    +0.000 HD
ENDROOT
BRANCH   1   3
ATOM      3  C   UNL     1       3.488   3.038  19.510  0.00  0.00    +0.000 A 
ATOM      4  C   UNL     1       2.685   2.747  18.397  0.00  0.00    +0.000 A 
ATOM      5  C   UNL     1       1.296   2.644  18.506  0.00  0.00    +0.000 A 
ATOM      6  C   UNL     1       0.682   2.801  19.743  0.00  0.00    +0.000 A 
ATOM      7  C   UNL     1       1.462   3.057  20.867  0.00  0.00    +0.000 A 
ATOM      8  C   UNL     1       2.853   3.167  20.751  0.00  0.00    +0.000 A 
ENDBRANCH   1   3
BRANCH   1   9
ATOM      9  C   UNL     1       5.491   4.119  18.567  0.00  0.00    +0.000 C 
BRANCH   9  10
ATOM     10  C   UNL     1       4.936   5.464  19.045  0.00  0.00    +0.000 C 
BRANCH  10  12
ATOM     11  C   UNL     1       2.755   6.480  18.287  0.00  0.00    +0.000 C 
ATOM     12  C   UNL     1       4.202   6.195  17.920  0.00  0.00    +0.000 C 
ENDBRANCH  10  12
ENDBRANCH   9  10
ENDBRANCH   1   9
TORSDOF 4
ENDMDL
MODEL 7
REMARK VINA RESULT:      -4.9      1.555      4.374
REMARK  Name = 
REMARK  5 active torsions:
REMARK  status: ('A' for Active; 'I' for Inactive)
REMARK    1  A    between atoms: C_1  and  C_2
REMARK    2  A    between atoms: C_2  and  C_3
REMARK    3  A    between atoms: C_3  and  C_4
REMARK    4  A    between atoms: C_4  and  N_5
REMARK    5  A    between atoms: N_5  and  C_6
REMARK                            x       y       z     vdW  Elec       q    Type
REMARK                         _______ _______ _______ _____ _____    ______ ____
ROOT
ATOM      1  N   UNL     1       4.366   2.854  18.592  0.00  0.00    +0.000 N 
ATOM      2  H   UNL     1       4.197   3.127  19.558  0.00  0.00    +0.000 HD
ENDROOT
BRANCH   1   3
ATOM      3  C   UNL     1       4.538   3.978  17.772  0.00  0.00    +0.000 A 
ATOM      4  C   UNL     1       4.314   5.249  18.322  0.00  0.00    +0.000 A 
ATOM      5  C   UNL     1       4.543   6.414  17.585  0.00  0.00    +0.000 A 
ATOM      6  C   UNL     1       5.036   6.330  16.288  0.00  0.00    +0.000 A 
ATOM      7  C   UNL     1       5.298   5.080  15.734  0.00  0.00    +0.000 A 
ATOM      8  C   UNL     1       5.058   3.916  16.474  0.00  0.00    +0.000 A 
ENDBRANCH   1   3
BRANCH   1   9
ATOM      9  C   UNL     1       3.460   1.795  18.151  0.00  0.00    +0.000 C 
BRANCH   9  10
ATOM     10  C   UNL     1       2.017   2.299  18.245  0.00  0.00    +0.000 C 
BRANCH  10  12
ATOM     11  C   UNL     1       0.978   3.783  20.000  0.00  0.00    +0.000 C 
ATOM     12  C   UNL     1       1.560   2.412  19.699  0.00  0.00    +0.000 C 
ENDBRANCH  10  12
ENDBRANCH   9  10
ENDBRANCH   1   9
TORSDOF 4
ENDMDL
MODEL 8
REMARK VINA RESULT:      -4.9      0.761      1.408
REMARK  Name = 
REMARK  5 active torsions:
REMARK  status: ('A' for Active; 'I' for Inactive)
REMARK    1  A    between atoms: C_1  and  C_2
REMARK    2  A    between atoms: C_2  and  C_3
REMARK    3  A    between atoms: C_3  and  C_4
REMARK    4  A    between atoms: C_4  and  N_5
REMARK    5  A    between atoms: N_5  and  C_6
REMARK                            x       y       z     vdW  Elec       q    Type
REMARK                         _______ _______ _______ _____ _____    ______ ____
ROOT
ATOM      1  N   UNL     1       5.694   3.549  18.560  0.00  0.00    +0.000 N 
ATOM      2  H   UNL     1       6.127   2.751  18.101  0.00  0.00    +0.000 HD
ENDROOT
BRANCH   1   3
ATOM      3  C   UNL     1       4.295   3.486  18.468  0.00  0.00    +0.000 A 
ATOM      4  C   UNL     1       3.603   2.645  19.351  0.00  0.00    +0.000 A 
ATOM      5  C   UNL     1       2.207   2.594  19.368  0.00  0.00    +0.000 A 
ATOM      6  C   UNL     1       1.471   3.412  18.517  0.00  0.00    +0.000 A 
ATOM      7  C   UNL     1       2.138   4.279  17.656  0.00  0.00    +0.000 A 
ATOM      8  C   UNL     1       3.537   4.320  17.638  0.00  0.00    +0.000 A 
ENDBRANCH   1   3
BRANCH   1   9
ATOM      9  C   UNL     1       6.362   4.806  18.231  0.00  0.00    +0.000 C 
BRANCH   9  10
ATOM     10  C   UNL     1       7.256   4.593  17.006  0.00  0.00    +0.000 C 
BRANCH  10  12
ATOM     11  C   UNL     1       6.301   4.342  14.685  0.00  0.00    +0.000 C 
ATOM     12  C   UNL     1       6.702   5.317  15.779  0.00  0.00    +0.000 C 
ENDBRANCH  10  12
ENDBRANCH   9  10
ENDBRANCH   1   9
TORSDOF 4
ENDMDL
MODEL 9
REMARK VINA RESULT:      -4.8      1.077      2.280
REMARK  Name = 
REMARK  5 active torsions:
REMARK  status: ('A' for Active; 'I' for Inactive)
REMARK    1  A    between atoms: C_1  and  C_2
REMARK    2  A    between atoms: C_2  and  C_3
REMARK    3  A    between atoms: C_3  and  C_4
REMARK    4  A    between atoms: C_4  and  N_5
REMARK    5  A    between atoms: N_5  and  C_6
REMARK                            x       y       z     vdW  Elec       q    Type
REMARK                         _______ _______ _______ _____ _____    ______ ____
ROOT
ATOM      1  N   UNL     1       5.351   3.526  17.632  0.00  0.00    +0.000 N 
ATOM      2  H   UNL     1       5.800   2.619  17.743  0.00  0.00    +0.000 HD
ENDROOT
BRANCH   1   3
ATOM      3  C   UNL     1       3.963   3.426  17.803  0.00  0.00    +0.000 A 
ATOM      4  C   UNL     1       3.437   2.239  18.335  0.00  0.00    +0.000 A 
ATOM      5  C   UNL     1       2.073   2.102  18.606  0.00  0.00    +0.000 A 
ATOM      6  C   UNL     1       1.209   3.167  18.379  0.00  0.00    +0.000 A 
ATOM      7  C   UNL     1       1.714   4.366  17.883  0.00  0.00    +0.000 A 
ATOM      8  C   UNL     1       3.080   4.495  17.606  0.00  0.00    +0.000 A 
ENDBRANCH   1   3
BRANCH   1   9
ATOM      9  C   UNL     1       5.865   4.258  16.477  0.00  0.00    +0.000 C 
BRANCH   9  10
ATOM     10  C   UNL     1       7.287   4.738  16.779  0.00  0.00    +0.000 C 
BRANCH  10  12
ATOM     11  C   UNL     1       7.767   6.032  18.890  0.00  0.00    +0.000 C 
ATOM     12  C   UNL     1       7.282   6.110  17.453  0.00  0.00    +0.000 C 
ENDBRANCH  10  12
ENDBRANCH   9  10
ENDBRANCH   1   9
TORSDOF 4
ENDMDL
