MODEL 1
REMARK VINA RESULT:      -8.1      0.000      0.000
REMARK  Name = 
REMARK  15 active torsions:
REMARK  status: ('A' for Active; 'I' for Inactive)
REMARK    1  A    between atoms: C_1  and  C_2
REMARK    2  A    between atoms: C_2  and  N_3
REMARK    3  A    between atoms: N_3  and  C_4
REMARK    4  A    between atoms: C_4  and  C_5
REMARK    5  A    between atoms: C_7  and  N_8
REMARK    6  A    between atoms: C_9  and  C_10
REMARK    7  A    between atoms: C_14  and  C_15
REMARK    8  A    between atoms: C_17  and  C_18
REMARK    9  A    between atoms: C_18  and  C_19
REMARK   10  A    between atoms: C_19  and  O_21
REMARK   11  A    between atoms: C_24  and  O_25
REMARK   12  A    between atoms: O_25  and  C_26
REMARK   13  A    between atoms: C_27  and  O_29
REMARK   14  A    between atoms: O_29  and  C_30
REMARK   15  A    between atoms: C_30  and  C_31
REMARK                            x       y       z     vdW  Elec       q    Type
REMARK                         _______ _______ _______ _____ _____    ______ ____
ROOT
ATOM      1  C   UNL     1      -0.012  11.396  19.446  0.00  0.00    +0.000 A 
ATOM      2  C   UNL     1       1.252  11.892  19.862  0.00  0.00    +0.000 A 
ATOM      3  C   UNL     1       1.726  13.151  19.505  0.00  0.00    +0.000 A 
ATOM      4  C   UNL     1       0.914  13.947  18.714  0.00  0.00    +0.000 A 
ATOM      5  C   UNL     1      -0.392  13.537  18.408  0.00  0.00    +0.000 A 
ATOM      6  C   UNL     1      -0.922  12.285  18.804  0.00  0.00    +0.000 A 
ENDROOT
BRANCH   6   7
ATOM      7  C   UNL     1      -2.402  12.032  18.658  0.00  0.00    +0.000 A 
ATOM      8  C   UNL     1      -3.275  12.475  19.683  0.00  0.00    +0.000 A 
ATOM      9  C   UNL     1      -4.661  12.252  19.667  0.00  0.00    +0.000 A 
ATOM     10  C   UNL     1      -5.236  11.705  18.527  0.00  0.00    +0.000 A 
ATOM     11  C   UNL     1      -4.425  11.324  17.460  0.00  0.00    +0.000 A 
ATOM     12  C   UNL     1      -3.025  11.467  17.514  0.00  0.00    +0.000 A 
BRANCH  12  13
ATOM     13  O   UNL     1      -2.225  11.044  16.478  0.00  0.00    +0.000 OA
ATOM     14  C   UNL     1      -2.887  10.500  15.337  0.00  0.00    +0.000 C 
ENDBRANCH  12  13
BRANCH   9  15
ATOM     15  C   UNL     1      -5.510  12.607  20.872  0.00  0.00    +0.000 C 
BRANCH  15  16
ATOM     16  C   UNL     1      -6.905  12.029  20.911  0.00  0.00    +0.000 C 
ATOM     17  O   UNL     1      -7.187  11.079  21.633  0.00  0.00    +0.000 OA
BRANCH  16  18
ATOM     18  O   UNL     1      -7.826  12.598  20.113  0.00  0.00    +0.000 OA
ATOM     19  H   UNL     1      -8.136  13.481  20.397  0.00  0.00    +0.000 HD
ENDBRANCH  16  18
ENDBRANCH  15  16
ENDBRANCH   9  15
ENDBRANCH   6   7
BRANCH   3  20
ATOM     20  N   UNL     1       2.966  13.681  19.936  0.00  0.00    +0.000 N 
ATOM     21  C   UNL     1       3.232  14.302  21.143  0.00  0.00    +0.000 C 
ATOM     22  C   UNL     1       4.609  14.893  21.232  0.00  0.00    +0.000 C 
ATOM     23  O   UNL     1       2.467  14.372  22.102  0.00  0.00    +0.000 OA
ATOM     24  H   UNL     1       3.739  13.589  19.288  0.00  0.00    +0.000 HD
ENDBRANCH   3  20
BRANCH   1  25
ATOM     25  C   UNL     1      -0.314   9.935  19.770  0.00  0.00    +0.000 C 
BRANCH  25  26
ATOM     26  N   UNL     1       0.847   9.077  20.031  0.00  0.00    +0.000 N 
ATOM     27  C   UNL     1       1.590   8.634  18.937  0.00  0.00    +0.000 C 
ATOM     28  O   UNL     1       1.379   8.960  17.775  0.00  0.00    +0.000 OA
BRANCH  26  30
ATOM     29  C   UNL     1       0.674   9.441  22.485  0.00  0.00    +0.000 C 
ATOM     30  C   UNL     1       1.009   8.481  21.355  0.00  0.00    +0.000 C 
ENDBRANCH  26  30
BRANCH  27  31
ATOM     31  O   UNL     1       2.532   7.715  19.299  0.00  0.00    +0.000 OA
BRANCH  31  32
ATOM     32  C   UNL     1       2.758   6.654  18.367  0.00  0.00    +0.000 C 
BRANCH  32  33
ATOM     33  C   UNL     1       2.128   5.371  18.842  0.00  0.00    +0.000 A 
ATOM     34  C   UNL     1       1.900   5.150  20.207  0.00  0.00    +0.000 A 
ATOM     35  C   UNL     1       1.308   3.962  20.641  0.00  0.00    +0.000 A 
ATOM     36  C   UNL     1       0.948   2.984  19.716  0.00  0.00    +0.000 A 
ATOM     37  C   UNL     1       1.174   3.193  18.357  0.00  0.00    +0.000 A 
ATOM     38  C   UNL     1       1.765   4.380  17.921  0.00  0.00    +0.000 A 
ENDBRANCH  32  33
ENDBRANCH  31  32
ENDBRANCH  27  31
ENDBRANCH  25  26
ENDBRANCH   1  25
TORSDOF 12
ENDMDL
MODEL 2
REMARK VINA RESULT:      -7.9      0.816      1.080
REMARK  Name = 
REMARK  15 active torsions:
REMARK  status: ('A' for Active; 'I' for Inactive)
REMARK    1  A    between atoms: C_1  and  C_2
REMARK    2  A    between atoms: C_2  and  N_3
REMARK    3  A    between atoms: N_3  and  C_4
REMARK    4  A    between atoms: C_4  and  C_5
REMARK    5  A    between atoms: C_7  and  N_8
REMARK    6  A    between atoms: C_9  and  C_10
REMARK    7  A    between atoms: C_14  and  C_15
REMARK    8  A    between atoms: C_17  and  C_18
REMARK    9  A    between atoms: C_18  and  C_19
REMARK   10  A    between atoms: C_19  and  O_21
REMARK   11  A    between atoms: C_24  and  O_25
REMARK   12  A    between atoms: O_25  and  C_26
REMARK   13  A    between atoms: C_27  and  O_29
REMARK   14  A    between atoms: O_29  and  C_30
REMARK   15  A    between atoms: C_30  and  C_31
REMARK                            x       y       z     vdW  Elec       q    Type
REMARK                         _______ _______ _______ _____ _____    ______ ____
ROOT
ATOM      1  C   UNL     1       0.081  11.409  19.244  0.00  0.00    +0.000 A 
ATOM      2  C   UNL     1       1.348  11.876  19.685  0.00  0.00    +0.000 A 
ATOM      3  C   UNL     1       1.755  13.200  19.548  0.00  0.00    +0.000 A 
ATOM      4  C   UNL     1       0.873  14.090  18.959  0.00  0.00    +0.000 A 
ATOM      5  C   UNL     1      -0.432  13.684  18.644  0.00  0.00    +0.000 A 
ATOM      6  C   UNL     1      -0.894  12.358  18.824  0.00  0.00    +0.000 A 
ENDROOT
BRANCH   6   7
ATOM      7  C   UNL     1      -2.370  12.069  18.703  0.00  0.00    +0.000 A 
ATOM      8  C   UNL     1      -3.235  12.489  19.744  0.00  0.00    +0.000 A 
ATOM      9  C   UNL     1      -4.616  12.232  19.752  0.00  0.00    +0.000 A 
ATOM     10  C   UNL     1      -5.197  11.673  18.620  0.00  0.00    +0.000 A 
ATOM     11  C   UNL     1      -4.396  11.313  17.539  0.00  0.00    +0.000 A 
ATOM     12  C   UNL     1      -2.999  11.491  17.569  0.00  0.00    +0.000 A 
BRANCH  12  13
ATOM     13  O   UNL     1      -2.207  11.088  16.518  0.00  0.00    +0.000 OA
ATOM     14  C   UNL     1      -2.879  10.627  15.348  0.00  0.00    +0.000 C 
ENDBRANCH  12  13
BRANCH   9  15
ATOM     15  C   UNL     1      -5.452  12.564  20.972  0.00  0.00    +0.000 C 
BRANCH  15  16
ATOM     16  C   UNL     1      -6.852  11.999  21.007  0.00  0.00    +0.000 C 
ATOM     17  O   UNL     1      -7.082  10.879  21.450  0.00  0.00    +0.000 OA
BRANCH  16  18
ATOM     18  O   UNL     1      -7.839  12.776  20.525  0.00  0.00    +0.000 OA
ATOM     19  H   UNL     1      -8.445  12.337  19.894  0.00  0.00    +0.000 HD
ENDBRANCH  16  18
ENDBRANCH  15  16
ENDBRANCH   9  15
ENDBRANCH   6   7
BRANCH   3  20
ATOM     20  N   UNL     1       2.997  13.697  20.012  0.00  0.00    +0.000 N 
ATOM     21  C   UNL     1       3.243  14.331  21.216  0.00  0.00    +0.000 C 
ATOM     22  C   UNL     1       4.635  14.879  21.341  0.00  0.00    +0.000 C 
ATOM     23  O   UNL     1       2.449  14.444  22.147  0.00  0.00    +0.000 OA
ATOM     24  H   UNL     1       3.787  13.568  19.392  0.00  0.00    +0.000 HD
ENDBRANCH   3  20
BRANCH   1  25
ATOM     25  C   UNL     1      -0.149   9.900  19.303  0.00  0.00    +0.000 C 
BRANCH  25  26
ATOM     26  N   UNL     1       1.034   9.075  19.565  0.00  0.00    +0.000 N 
ATOM     27  C   UNL     1       1.827   8.707  18.479  0.00  0.00    +0.000 C 
ATOM     28  O   UNL     1       1.640   9.076  17.325  0.00  0.00    +0.000 OA
BRANCH  26  30
ATOM     29  C   UNL     1      -0.064   8.557  21.736  0.00  0.00    +0.000 C 
ATOM     30  C   UNL     1       1.178   8.428  20.867  0.00  0.00    +0.000 C 
ENDBRANCH  26  30
BRANCH  27  31
ATOM     31  O   UNL     1       2.792   7.808  18.832  0.00  0.00    +0.000 OA
BRANCH  31  32
ATOM     32  C   UNL     1       3.464   7.158  17.750  0.00  0.00    +0.000 C 
BRANCH  32  33
ATOM     33  C   UNL     1       3.186   5.678  17.749  0.00  0.00    +0.000 A 
ATOM     34  C   UNL     1       1.888   5.195  17.961  0.00  0.00    +0.000 A 
ATOM     35  C   UNL     1       1.635   3.822  17.950  0.00  0.00    +0.000 A 
ATOM     36  C   UNL     1       2.677   2.922  17.736  0.00  0.00    +0.000 A 
ATOM     37  C   UNL     1       3.972   3.393  17.527  0.00  0.00    +0.000 A 
ATOM     38  C   UNL     1       4.227   4.765  17.537  0.00  0.00    +0.000 A 
ENDBRANCH  32  33
ENDBRANCH  31  32
ENDBRANCH  27  31
ENDBRANCH  25  26
ENDBRANCH   1  25
TORSDOF 12
ENDMDL
MODEL 3
REMARK VINA RESULT:      -7.8      2.372      4.627
REMARK  Name = 
REMARK  15 active torsions:
REMARK  status: ('A' for Active; 'I' for Inactive)
REMARK    1  A    between atoms: C_1  and  C_2
REMARK    2  A    between atoms: C_2  and  N_3
REMARK    3  A    between atoms: N_3  and  C_4
REMARK    4  A    between atoms: C_4  and  C_5
REMARK    5  A    between atoms: C_7  and  N_8
REMARK    6  A    between atoms: C_9  and  C_10
REMARK    7  A    between atoms: C_14  and  C_15
REMARK    8  A    between atoms: C_17  and  C_18
REMARK    9  A    between atoms: C_18  and  C_19
REMARK   10  A    between atoms: C_19  and  O_21
REMARK   11  A    between atoms: C_24  and  O_25
REMARK   12  A    between atoms: O_25  and  C_26
REMARK   13  A    between atoms: C_27  and  O_29
REMARK   14  A    between atoms: O_29  and  C_30
REMARK   15  A    between atoms: C_30  and  C_31
REMARK                            x       y       z     vdW  Elec       q    Type
REMARK                         _______ _______ _______ _____ _____    ______ ____
ROOT
ATOM      1  C   UNL     1      -0.780  11.122  19.625  0.00  0.00    +0.000 A 
ATOM      2  C   UNL     1      -0.861  10.578  18.316  0.00  0.00    +0.000 A 
ATOM      3  C   UNL     1      -2.015  10.641  17.541  0.00  0.00    +0.000 A 
ATOM      4  C   UNL     1      -3.124  11.269  18.082  0.00  0.00    +0.000 A 
ATOM      5  C   UNL     1      -3.026  11.934  19.312  0.00  0.00    +0.000 A 
ATOM      6  C   UNL     1      -1.849  11.936  20.099  0.00  0.00    +0.000 A 
ENDROOT
BRANCH   6   7
ATOM      7  C   UNL     1      -1.748  12.879  21.272  0.00  0.00    +0.000 A 
ATOM      8  C   UNL     1      -2.558  12.641  22.411  0.00  0.00    +0.000 A 
ATOM      9  C   UNL     1      -2.574  13.480  23.537  0.00  0.00    +0.000 A 
ATOM     10  C   UNL     1      -1.646  14.511  23.614  0.00  0.00    +0.000 A 
ATOM     11  C   UNL     1      -0.775  14.737  22.550  0.00  0.00    +0.000 A 
ATOM     12  C   UNL     1      -0.821  13.949  21.383  0.00  0.00    +0.000 A 
BRANCH  12  13
ATOM     13  O   UNL     1       0.007  14.208  20.316  0.00  0.00    +0.000 OA
ATOM     14  C   UNL     1       0.630  15.490  20.283  0.00  0.00    +0.000 C 
ENDBRANCH  12  13
BRANCH   9  15
ATOM     15  C   UNL     1      -3.583  13.257  24.647  0.00  0.00    +0.000 C 
BRANCH  15  16
ATOM     16  C   UNL     1      -4.994  12.929  24.221  0.00  0.00    +0.000 C 
ATOM     17  O   UNL     1      -5.530  11.871  24.532  0.00  0.00    +0.000 OA
BRANCH  16  18
ATOM     18  O   UNL     1      -5.640  13.847  23.479  0.00  0.00    +0.000 OA
ATOM     19  H   UNL     1      -5.136  14.666  23.297  0.00  0.00    +0.000 HD
ENDBRANCH  16  18
ENDBRANCH  15  16
ENDBRANCH   9  15
ENDBRANCH   6   7
BRANCH   3  20
ATOM     20  N   UNL     1      -2.109  10.138  16.221  0.00  0.00    +0.000 N 
ATOM     21  C   UNL     1      -2.942  10.592  15.214  0.00  0.00    +0.000 C 
ATOM     22  C   UNL     1      -2.916   9.745  13.974  0.00  0.00    +0.000 C 
ATOM     23  O   UNL     1      -3.642  11.600  15.257  0.00  0.00    +0.000 OA
ATOM     24  H   UNL     1      -1.495   9.366  15.993  0.00  0.00    +0.000 HD
ENDBRANCH   3  20
BRANCH   1  25
ATOM     25  C   UNL     1       0.492  10.821  20.414  0.00  0.00    +0.000 C 
BRANCH  25  26
ATOM     26  N   UNL     1       0.683   9.426  20.825  0.00  0.00    +0.000 N 
ATOM     27  C   UNL     1       1.483   8.613  20.024  0.00  0.00    +0.000 C 
ATOM     28  O   UNL     1       2.090   8.996  19.031  0.00  0.00    +0.000 OA
BRANCH  26  30
ATOM     29  C   UNL     1      -0.330   9.769  23.071  0.00  0.00    +0.000 C 
ATOM     30  C   UNL     1      -0.184   8.863  21.858  0.00  0.00    +0.000 C 
ENDBRANCH  26  30
BRANCH  27  31
ATOM     31  O   UNL     1       1.443   7.307  20.422  0.00  0.00    +0.000 OA
BRANCH  31  32
ATOM     32  C   UNL     1       2.480   6.467  19.907  0.00  0.00    +0.000 C 
BRANCH  32  33
ATOM     33  C   UNL     1       1.955   5.094  19.581  0.00  0.00    +0.000 A 
ATOM     34  C   UNL     1       1.379   4.293  20.577  0.00  0.00    +0.000 A 
ATOM     35  C   UNL     1       0.887   3.025  20.266  0.00  0.00    +0.000 A 
ATOM     36  C   UNL     1       0.972   2.544  18.961  0.00  0.00    +0.000 A 
ATOM     37  C   UNL     1       1.545   3.331  17.964  0.00  0.00    +0.000 A 
ATOM     38  C   UNL     1       2.038   4.600  18.273  0.00  0.00    +0.000 A 
ENDBRANCH  32  33
ENDBRANCH  31  32
ENDBRANCH  27  31
ENDBRANCH  25  26
ENDBRANCH   1  25
TORSDOF 12
ENDMDL
MODEL 4
REMARK VINA RESULT:      -7.7      2.384      4.737
REMARK  Name = 
REMARK  15 active torsions:
REMARK  status: ('A' for Active; 'I' for Inactive)
REMARK    1  A    between atoms: C_1  and  C_2
REMARK    2  A    between atoms: C_2  and  N_3
REMARK    3  A    between atoms: N_3  and  C_4
REMARK    4  A    between atoms: C_4  and  C_5
REMARK    5  A    between atoms: C_7  and  N_8
REMARK    6  A    between atoms: C_9  and  C_10
REMARK    7  A    between atoms: C_14  and  C_15
REMARK    8  A    between atoms: C_17  and  C_18
REMARK    9  A    between atoms: C_18  and  C_19
REMARK   10  A    between atoms: C_19  and  O_21
REMARK   11  A    between atoms: C_24  and  O_25
REMARK   12  A    between atoms: O_25  and  C_26
REMARK   13  A    between atoms: C_27  and  O_29
REMARK   14  A    between atoms: O_29  and  C_30
REMARK   15  A    between atoms: C_30  and  C_31
REMARK                            x       y       z     vdW  Elec       q    Type
REMARK                         _______ _______ _______ _____ _____    ______ ____
ROOT
ATOM      1  C   UNL     1      -1.120  11.188  19.497  0.00  0.00    +0.000 A 
ATOM      2  C   UNL     1      -1.231  10.524  18.247  0.00  0.00    +0.000 A 
ATOM      3  C   UNL     1      -2.416  10.475  17.520  0.00  0.00    +0.000 A 
ATOM      4  C   UNL     1      -3.526  11.113  18.048  0.00  0.00    +0.000 A 
ATOM      5  C   UNL     1      -3.405  11.892  19.208  0.00  0.00    +0.000 A 
ATOM      6  C   UNL     1      -2.199  12.007  19.940  0.00  0.00    +0.000 A 
ENDROOT
BRANCH   6   7
ATOM      7  C   UNL     1      -2.087  13.057  21.018  0.00  0.00    +0.000 A 
ATOM      8  C   UNL     1      -2.730  12.831  22.260  0.00  0.00    +0.000 A 
ATOM      9  C   UNL     1      -2.726  13.760  23.313  0.00  0.00    +0.000 A 
ATOM     10  C   UNL     1      -1.931  14.894  23.199  0.00  0.00    +0.000 A 
ATOM     11  C   UNL     1      -1.218  15.121  22.024  0.00  0.00    +0.000 A 
ATOM     12  C   UNL     1      -1.294  14.231  20.935  0.00  0.00    +0.000 A 
BRANCH  12  13
ATOM     13  O   UNL     1      -0.627  14.486  19.759  0.00  0.00    +0.000 OA
ATOM     14  C   UNL     1      -0.275  15.844  19.502  0.00  0.00    +0.000 C 
ENDBRANCH  12  13
BRANCH   9  15
ATOM     15  C   UNL     1      -3.572  13.524  24.549  0.00  0.00    +0.000 C 
BRANCH  15  16
ATOM     16  C   UNL     1      -4.888  12.814  24.343  0.00  0.00    +0.000 C 
ATOM     17  O   UNL     1      -5.774  13.293  23.642  0.00  0.00    +0.000 OA
BRANCH  16  18
ATOM     18  O   UNL     1      -5.053  11.634  24.966  0.00  0.00    +0.000 OA
ATOM     19  H   UNL     1      -5.443  10.923  24.418  0.00  0.00    +0.000 HD
ENDBRANCH  16  18
ENDBRANCH  15  16
ENDBRANCH   9  15
ENDBRANCH   6   7
BRANCH   3  20
ATOM     20  N   UNL     1      -2.543   9.850  16.256  0.00  0.00    +0.000 N 
ATOM     21  C   UNL     1      -3.087  10.396  15.108  0.00  0.00    +0.000 C 
ATOM     22  C   UNL     1      -3.219   9.421  13.973  0.00  0.00    +0.000 C 
ATOM     23  O   UNL     1      -3.425  11.567  14.956  0.00  0.00    +0.000 OA
ATOM     24  H   UNL     1      -2.193   8.902  16.190  0.00  0.00    +0.000 HD
ENDBRANCH   3  20
BRANCH   1  25
ATOM     25  C   UNL     1       0.193  11.004  20.255  0.00  0.00    +0.000 C 
BRANCH  25  26
ATOM     26  N   UNL     1       0.498   9.640  20.699  0.00  0.00    +0.000 N 
ATOM     27  C   UNL     1       1.396   8.892  19.940  0.00  0.00    +0.000 C 
ATOM     28  O   UNL     1       1.998   9.314  18.960  0.00  0.00    +0.000 OA
BRANCH  26  30
ATOM     29  C   UNL     1      -0.249   9.696  23.072  0.00  0.00    +0.000 C 
ATOM     30  C   UNL     1      -0.348   9.016  21.715  0.00  0.00    +0.000 C 
ENDBRANCH  26  30
BRANCH  27  31
ATOM     31  O   UNL     1       1.463   7.594  20.361  0.00  0.00    +0.000 OA
BRANCH  31  32
ATOM     32  C   UNL     1       2.448   6.781  19.717  0.00  0.00    +0.000 C 
BRANCH  32  33
ATOM     33  C   UNL     1       1.952   5.371  19.536  0.00  0.00    +0.000 A 
ATOM     34  C   UNL     1       1.959   4.767  18.271  0.00  0.00    +0.000 A 
ATOM     35  C   UNL     1       1.506   3.457  18.111  0.00  0.00    +0.000 A 
ATOM     36  C   UNL     1       1.036   2.742  19.211  0.00  0.00    +0.000 A 
ATOM     37  C   UNL     1       1.022   3.334  20.473  0.00  0.00    +0.000 A 
ATOM     38  C   UNL     1       1.476   4.644  20.635  0.00  0.00    +0.000 A 
ENDBRANCH  32  33
ENDBRANCH  31  32
ENDBRANCH  27  31
ENDBRANCH  25  26
ENDBRANCH   1  25
TORSDOF 12
ENDMDL
MODEL 5
REMARK VINA RESULT:      -7.6      1.478      1.745
REMARK  Name = 
REMARK  15 active torsions:
REMARK  status: ('A' for Active; 'I' for Inactive)
REMARK    1  A    between atoms: C_1  and  C_2
REMARK    2  A    between atoms: C_2  and  N_3
REMARK    3  A    between atoms: N_3  and  C_4
REMARK    4  A    between atoms: C_4  and  C_5
REMARK    5  A    between atoms: C_7  and  N_8
REMARK    6  A    between atoms: C_9  and  C_10
REMARK    7  A    between atoms: C_14  and  C_15
REMARK    8  A    between atoms: C_17  and  C_18
REMARK    9  A    between atoms: C_18  and  C_19
REMARK   10  A    between atoms: C_19  and  O_21
REMARK   11  A    between atoms: C_24  and  O_25
REMARK   12  A    between atoms: O_25  and  C_26
REMARK   13  A    between atoms: C_27  and  O_29
REMARK   14  A    between atoms: O_29  and  C_30
REMARK   15  A    between atoms: C_30  and  C_31
REMARK                            x       y       z     vdW  Elec       q    Type
REMARK                         _______ _______ _______ _____ _____    ______ ____
ROOT
ATOM      1  C   UNL     1       0.102  11.677  19.107  0.00  0.00    +0.000 A 
ATOM      2  C   UNL     1       1.474  12.040  19.046  0.00  0.00    +0.000 A 
ATOM      3  C   UNL     1       1.902  13.327  18.736  0.00  0.00    +0.000 A 
ATOM      4  C   UNL     1       0.936  14.287  18.483  0.00  0.00    +0.000 A 
ATOM      5  C   UNL     1      -0.421  13.988  18.675  0.00  0.00    +0.000 A 
ATOM      6  C   UNL     1      -0.885  12.704  19.045  0.00  0.00    +0.000 A 
ENDROOT
BRANCH   6   7
ATOM      7  C   UNL     1      -2.321  12.534  19.476  0.00  0.00    +0.000 A 
ATOM      8  C   UNL     1      -2.730  13.081  20.717  0.00  0.00    +0.000 A 
ATOM      9  C   UNL     1      -4.029  12.942  21.232  0.00  0.00    +0.000 A 
ATOM     10  C   UNL     1      -5.008  12.375  20.427  0.00  0.00    +0.000 A 
ATOM     11  C   UNL     1      -4.670  11.891  19.165  0.00  0.00    +0.000 A 
ATOM     12  C   UNL     1      -3.347  11.951  18.686  0.00  0.00    +0.000 A 
BRANCH  12  13
ATOM     13  O   UNL     1      -3.009  11.428  17.460  0.00  0.00    +0.000 OA
ATOM     14  C   UNL     1      -4.070  11.248  16.524  0.00  0.00    +0.000 C 
ENDBRANCH  12  13
BRANCH   9  15
ATOM     15  C   UNL     1      -4.352  13.409  22.638  0.00  0.00    +0.000 C 
BRANCH  15  16
ATOM     16  C   UNL     1      -4.224  12.381  23.737  0.00  0.00    +0.000 C 
ATOM     17  O   UNL     1      -5.127  12.189  24.545  0.00  0.00    +0.000 OA
BRANCH  16  18
ATOM     18  O   UNL     1      -3.074  11.687  23.798  0.00  0.00    +0.000 OA
ATOM     19  H   UNL     1      -2.299  12.191  24.118  0.00  0.00    +0.000 HD
ENDBRANCH  16  18
ENDBRANCH  15  16
ENDBRANCH   9  15
ENDBRANCH   6   7
BRANCH   3  20
ATOM     20  N   UNL     1       3.261  13.722  18.703  0.00  0.00    +0.000 N 
ATOM     21  C   UNL     1       3.881  14.643  19.528  0.00  0.00    +0.000 C 
ATOM     22  C   UNL     1       5.296  14.956  19.136  0.00  0.00    +0.000 C 
ATOM     23  O   UNL     1       3.385  15.171  20.520  0.00  0.00    +0.000 OA
ATOM     24  H   UNL     1       3.838  13.275  18.001  0.00  0.00    +0.000 HD
ENDBRANCH   3  20
BRANCH   1  25
ATOM     25  C   UNL     1      -0.205  10.192  19.286  0.00  0.00    +0.000 C 
BRANCH  25  26
ATOM     26  N   UNL     1       0.919   9.344  19.695  0.00  0.00    +0.000 N 
ATOM     27  C   UNL     1       1.643   8.694  18.696  0.00  0.00    +0.000 C 
ATOM     28  O   UNL     1       1.445   8.828  17.494  0.00  0.00    +0.000 OA
BRANCH  26  30
ATOM     29  C   UNL     1      -0.177   9.302  21.928  0.00  0.00    +0.000 C 
ATOM     30  C   UNL     1       1.057   8.972  21.101  0.00  0.00    +0.000 C 
ENDBRANCH  26  30
BRANCH  27  31
ATOM     31  O   UNL     1       2.547   7.811  19.214  0.00  0.00    +0.000 OA
BRANCH  31  32
ATOM     32  C   UNL     1       2.877   6.696  18.380  0.00  0.00    +0.000 C 
BRANCH  32  33
ATOM     33  C   UNL     1       2.199   5.440  18.859  0.00  0.00    +0.000 A 
ATOM     34  C   UNL     1       1.872   5.277  20.213  0.00  0.00    +0.000 A 
ATOM     35  C   UNL     1       1.237   4.114  20.650  0.00  0.00    +0.000 A 
ATOM     36  C   UNL     1       0.930   3.102  19.741  0.00  0.00    +0.000 A 
ATOM     37  C   UNL     1       1.254   3.254  18.394  0.00  0.00    +0.000 A 
ATOM     38  C   UNL     1       1.889   4.417  17.955  0.00  0.00    +0.000 A 
ENDBRANCH  32  33
ENDBRANCH  31  32
ENDBRANCH  27  31
ENDBRANCH  25  26
ENDBRANCH   1  25
TORSDOF 12
ENDMDL
MODEL 6
REMARK VINA RESULT:      -7.6      1.074      1.683
REMARK  Name = 
REMARK  15 active torsions:
REMARK  status: ('A' for Active; 'I' for Inactive)
REMARK    1  A    between atoms: C_1  and  C_2
REMARK    2  A    between atoms: C_2  and  N_3
REMARK    3  A    between atoms: N_3  and  C_4
REMARK    4  A    between atoms: C_4  and  C_5
REMARK    5  A    between atoms: C_7  and  N_8
REMARK    6  A    between atoms: C_9  and  C_10
REMARK    7  A    between atoms: C_14  and  C_15
REMARK    8  A    between atoms: C_17  and  C_18
REMARK    9  A    between atoms: C_18  and  C_19
REMARK   10  A    between atoms: C_19  and  O_21
REMARK   11  A    between atoms: C_24  and  O_25
REMARK   12  A    between atoms: O_25  and  C_26
REMARK   13  A    between atoms: C_27  and  O_29
REMARK   14  A    between atoms: O_29  and  C_30
REMARK   15  A    between atoms: C_30  and  C_31
REMARK                            x       y       z     vdW  Elec       q    Type
REMARK                         _______ _______ _______ _____ _____    ______ ____
ROOT
ATOM      1  C   UNL     1       0.044  11.580  19.742  0.00  0.00    +0.000 A 
ATOM      2  C   UNL     1       1.302  12.099  20.147  0.00  0.00    +0.000 A 
ATOM      3  C   UNL     1       1.765  13.351  19.753  0.00  0.00    +0.000 A 
ATOM      4  C   UNL     1       0.949  14.115  18.936  0.00  0.00    +0.000 A 
ATOM      5  C   UNL     1      -0.353  13.684  18.640  0.00  0.00    +0.000 A 
ATOM      6  C   UNL     1      -0.873  12.441  19.072  0.00  0.00    +0.000 A 
ENDROOT
BRANCH   6   7
ATOM      7  C   UNL     1      -2.350  12.170  18.929  0.00  0.00    +0.000 A 
ATOM      8  C   UNL     1      -3.225  12.602  19.957  0.00  0.00    +0.000 A 
ATOM      9  C   UNL     1      -4.609  12.362  19.945  0.00  0.00    +0.000 A 
ATOM     10  C   UNL     1      -5.180  11.809  18.806  0.00  0.00    +0.000 A 
ATOM     11  C   UNL     1      -4.368  11.439  17.736  0.00  0.00    +0.000 A 
ATOM     12  C   UNL     1      -2.969  11.599  17.787  0.00  0.00    +0.000 A 
BRANCH  12  13
ATOM     13  O   UNL     1      -2.167  11.185  16.748  0.00  0.00    +0.000 OA
ATOM     14  C   UNL     1      -2.826  10.786  15.548  0.00  0.00    +0.000 C 
ENDBRANCH  12  13
BRANCH   9  15
ATOM     15  C   UNL     1      -5.459  12.706  21.153  0.00  0.00    +0.000 C 
BRANCH  15  16
ATOM     16  C   UNL     1      -6.900  12.258  21.115  0.00  0.00    +0.000 C 
ATOM     17  O   UNL     1      -7.795  13.004  20.730  0.00  0.00    +0.000 OA
BRANCH  16  18
ATOM     18  O   UNL     1      -7.165  11.005  21.527  0.00  0.00    +0.000 OA
ATOM     19  H   UNL     1      -6.387  10.491  21.825  0.00  0.00    +0.000 HD
ENDBRANCH  16  18
ENDBRANCH  15  16
ENDBRANCH   9  15
ENDBRANCH   6   7
BRANCH   3  20
ATOM     20  N   UNL     1       2.999  13.905  20.171  0.00  0.00    +0.000 N 
ATOM     21  C   UNL     1       3.255  14.567  21.358  0.00  0.00    +0.000 C 
ATOM     22  C   UNL     1       4.627  15.172  21.434  0.00  0.00    +0.000 C 
ATOM     23  O   UNL     1       2.486  14.662  22.311  0.00  0.00    +0.000 OA
ATOM     24  H   UNL     1       3.775  13.799  19.530  0.00  0.00    +0.000 HD
ENDBRANCH   3  20
BRANCH   1  25
ATOM     25  C   UNL     1      -0.246  10.126  20.110  0.00  0.00    +0.000 C 
BRANCH  25  26
ATOM     26  N   UNL     1       0.898   9.210  20.078  0.00  0.00    +0.000 N 
ATOM     27  C   UNL     1       1.375   8.805  18.832  0.00  0.00    +0.000 C 
ATOM     28  O   UNL     1       0.945   9.208  17.758  0.00  0.00    +0.000 OA
BRANCH  26  30
ATOM     29  C   UNL     1       0.792   9.221  22.563  0.00  0.00    +0.000 C 
ATOM     30  C   UNL     1       1.302   8.530  21.307  0.00  0.00    +0.000 C 
ENDBRANCH  26  30
BRANCH  27  31
ATOM     31  O   UNL     1       2.325   7.830  18.942  0.00  0.00    +0.000 OA
BRANCH  31  32
ATOM     32  C   UNL     1       3.312   7.803  17.907  0.00  0.00    +0.000 C 
BRANCH  32  33
ATOM     33  C   UNL     1       3.659   6.388  17.525  0.00  0.00    +0.000 A 
ATOM     34  C   UNL     1       4.771   6.118  16.715  0.00  0.00    +0.000 A 
ATOM     35  C   UNL     1       5.091   4.804  16.371  0.00  0.00    +0.000 A 
ATOM     36  C   UNL     1       4.301   3.751  16.827  0.00  0.00    +0.000 A 
ATOM     37  C   UNL     1       3.192   4.009  17.630  0.00  0.00    +0.000 A 
ATOM     38  C   UNL     1       2.869   5.323  17.976  0.00  0.00    +0.000 A 
ENDBRANCH  32  33
ENDBRANCH  31  32
ENDBRANCH  27  31
ENDBRANCH  25  26
ENDBRANCH   1  25
TORSDOF 12
ENDMDL
MODEL 7
REMARK VINA RESULT:      -7.5      1.262      2.020
REMARK  Name = 
REMARK  15 active torsions:
REMARK  status: ('A' for Active; 'I' for Inactive)
REMARK    1  A    between atoms: C_1  and  C_2
REMARK    2  A    between atoms: C_2  and  N_3
REMARK    3  A    between atoms: N_3  and  C_4
REMARK    4  A    between atoms: C_4  and  C_5
REMARK    5  A    between atoms: C_7  and  N_8
REMARK    6  A    between atoms: C_9  and  C_10
REMARK    7  A    between atoms: C_14  and  C_15
REMARK    8  A    between atoms: C_17  and  C_18
REMARK    9  A    between atoms: C_18  and  C_19
REMARK   10  A    between atoms: C_19  and  O_21
REMARK   11  A    between atoms: C_24  and  O_25
REMARK   12  A    between atoms: O_25  and  C_26
REMARK   13  A    between atoms: C_27  and  O_29
REMARK   14  A    between atoms: O_29  and  C_30
REMARK   15  A    between atoms: C_30  and  C_31
REMARK                            x       y       z     vdW  Elec       q    Type
REMARK                         _______ _______ _______ _____ _____    ______ ____
ROOT
ATOM      1  C   UNL     1       0.092  11.486  19.620  0.00  0.00    +0.000 A 
ATOM      2  C   UNL     1       1.361  11.972  20.031  0.00  0.00    +0.000 A 
ATOM      3  C   UNL     1       1.825  13.243  19.703  0.00  0.00    +0.000 A 
ATOM      4  C   UNL     1       0.999  14.059  18.948  0.00  0.00    +0.000 A 
ATOM      5  C   UNL     1      -0.310  13.654  18.651  0.00  0.00    +0.000 A 
ATOM      6  C   UNL     1      -0.831  12.390  19.019  0.00  0.00    +0.000 A 
ENDROOT
BRANCH   6   7
ATOM      7  C   UNL     1      -2.312  12.136  18.889  0.00  0.00    +0.000 A 
ATOM      8  C   UNL     1      -3.201  12.823  19.754  0.00  0.00    +0.000 A 
ATOM      9  C   UNL     1      -4.592  12.627  19.747  0.00  0.00    +0.000 A 
ATOM     10  C   UNL     1      -5.149  11.839  18.748  0.00  0.00    +0.000 A 
ATOM     11  C   UNL     1      -4.320  11.205  17.826  0.00  0.00    +0.000 A 
ATOM     12  C   UNL     1      -2.918  11.331  17.889  0.00  0.00    +0.000 A 
BRANCH  12  13
ATOM     13  O   UNL     1      -2.102  10.662  17.006  0.00  0.00    +0.000 OA
ATOM     14  C   UNL     1      -2.625  10.428  15.700  0.00  0.00    +0.000 C 
ENDBRANCH  12  13
BRANCH   9  15
ATOM     15  C   UNL     1      -5.463  13.270  20.808  0.00  0.00    +0.000 C 
BRANCH  15  16
ATOM     16  C   UNL     1      -5.692  12.471  22.069  0.00  0.00    +0.000 C 
ATOM     17  O   UNL     1      -6.749  11.884  22.275  0.00  0.00    +0.000 OA
BRANCH  16  18
ATOM     18  O   UNL     1      -4.688  12.435  22.964  0.00  0.00    +0.000 OA
ATOM     19  H   UNL     1      -4.345  13.308  23.241  0.00  0.00    +0.000 HD
ENDBRANCH  16  18
ENDBRANCH  15  16
ENDBRANCH   9  15
ENDBRANCH   6   7
BRANCH   3  20
ATOM     20  N   UNL     1       3.071  13.764  20.129  0.00  0.00    +0.000 N 
ATOM     21  C   UNL     1       3.332  14.439  21.308  0.00  0.00    +0.000 C 
ATOM     22  C   UNL     1       4.721  15.001  21.393  0.00  0.00    +0.000 C 
ATOM     23  O   UNL     1       2.552  14.576  22.248  0.00  0.00    +0.000 OA
ATOM     24  H   UNL     1       3.852  13.621  19.501  0.00  0.00    +0.000 HD
ENDBRANCH   3  20
BRANCH   1  25
ATOM     25  C   UNL     1      -0.201  10.014  19.907  0.00  0.00    +0.000 C 
BRANCH  25  26
ATOM     26  N   UNL     1       0.966   9.153  20.123  0.00  0.00    +0.000 N 
ATOM     27  C   UNL     1       1.595   8.613  19.002  0.00  0.00    +0.000 C 
ATOM     28  O   UNL     1       1.279   8.856  17.843  0.00  0.00    +0.000 OA
BRANCH  26  30
ATOM     29  C   UNL     1       0.248   9.151  22.505  0.00  0.00    +0.000 C 
ATOM     30  C   UNL     1       1.244   8.653  21.468  0.00  0.00    +0.000 C 
ENDBRANCH  26  30
BRANCH  27  31
ATOM     31  O   UNL     1       2.553   7.702  19.344  0.00  0.00    +0.000 OA
BRANCH  31  32
ATOM     32  C   UNL     1       2.333   6.364  18.888  0.00  0.00    +0.000 C 
BRANCH  32  33
ATOM     33  C   UNL     1       3.388   5.947  17.899  0.00  0.00    +0.000 A 
ATOM     34  C   UNL     1       3.544   4.600  17.545  0.00  0.00    +0.000 A 
ATOM     35  C   UNL     1       4.519   4.221  16.621  0.00  0.00    +0.000 A 
ATOM     36  C   UNL     1       5.352   5.182  16.050  0.00  0.00    +0.000 A 
ATOM     37  C   UNL     1       5.207   6.524  16.399  0.00  0.00    +0.000 A 
ATOM     38  C   UNL     1       4.232   6.905  17.322  0.00  0.00    +0.000 A 
ENDBRANCH  32  33
ENDBRANCH  31  32
ENDBRANCH  27  31
ENDBRANCH  25  26
ENDBRANCH   1  25
TORSDOF 12
ENDMDL
MODEL 8
REMARK VINA RESULT:      -7.5      1.543      3.124
REMARK  Name = 
REMARK  15 active torsions:
REMARK  status: ('A' for Active; 'I' for Inactive)
REMARK    1  A    between atoms: C_1  and  C_2
REMARK    2  A    between atoms: C_2  and  N_3
REMARK    3  A    between atoms: N_3  and  C_4
REMARK    4  A    between atoms: C_4  and  C_5
REMARK    5  A    between atoms: C_7  and  N_8
REMARK    6  A    between atoms: C_9  and  C_10
REMARK    7  A    between atoms: C_14  and  C_15
REMARK    8  A    between atoms: C_17  and  C_18
REMARK    9  A    between atoms: C_18  and  C_19
REMARK   10  A    between atoms: C_19  and  O_21
REMARK   11  A    between atoms: C_24  and  O_25
REMARK   12  A    between atoms: O_25  and  C_26
REMARK   13  A    between atoms: C_27  and  O_29
REMARK   14  A    between atoms: O_29  and  C_30
REMARK   15  A    between atoms: C_30  and  C_31
REMARK                            x       y       z     vdW  Elec       q    Type
REMARK                         _______ _______ _______ _____ _____    ______ ____
ROOT
ATOM      1  C   UNL     1       0.157  11.525  19.747  0.00  0.00    +0.000 A 
ATOM      2  C   UNL     1       1.378  12.003  20.294  0.00  0.00    +0.000 A 
ATOM      3  C   UNL     1       1.902  13.256  19.993  0.00  0.00    +0.000 A 
ATOM      4  C   UNL     1       1.187  14.065  19.126  0.00  0.00    +0.000 A 
ATOM      5  C   UNL     1      -0.086  13.673  18.686  0.00  0.00    +0.000 A 
ATOM      6  C   UNL     1      -0.670  12.428  19.019  0.00  0.00    +0.000 A 
ENDROOT
BRANCH   6   7
ATOM      7  C   UNL     1      -2.131  12.195  18.720  0.00  0.00    +0.000 A 
ATOM      8  C   UNL     1      -2.490  11.634  17.469  0.00  0.00    +0.000 A 
ATOM      9  C   UNL     1      -3.820  11.417  17.073  0.00  0.00    +0.000 A 
ATOM     10  C   UNL     1      -4.833  11.617  18.002  0.00  0.00    +0.000 A 
ATOM     11  C   UNL     1      -4.521  12.094  19.273  0.00  0.00    +0.000 A 
ATOM     12  C   UNL     1      -3.195  12.396  19.638  0.00  0.00    +0.000 A 
BRANCH  12  13
ATOM     13  O   UNL     1      -2.898  12.915  20.878  0.00  0.00    +0.000 OA
ATOM     14  C   UNL     1      -3.896  12.776  21.887  0.00  0.00    +0.000 C 
ENDBRANCH  12  13
BRANCH   9  15
ATOM     15  C   UNL     1      -4.137  10.969  15.660  0.00  0.00    +0.000 C 
BRANCH  15  16
ATOM     16  C   UNL     1      -3.111  10.093  14.982  0.00  0.00    +0.000 C 
ATOM     17  O   UNL     1      -2.546   9.185  15.580  0.00  0.00    +0.000 OA
BRANCH  16  18
ATOM     18  O   UNL     1      -2.837  10.356  13.691  0.00  0.00    +0.000 OA
ATOM     19  H   UNL     1      -2.339  11.182  13.530  0.00  0.00    +0.000 HD
ENDBRANCH  16  18
ENDBRANCH  15  16
ENDBRANCH   9  15
ENDBRANCH   6   7
BRANCH   3  20
ATOM     20  N   UNL     1       3.097  13.769  20.552  0.00  0.00    +0.000 N 
ATOM     21  C   UNL     1       3.215  14.582  21.663  0.00  0.00    +0.000 C 
ATOM     22  C   UNL     1       4.610  15.082  21.907  0.00  0.00    +0.000 C 
ATOM     23  O   UNL     1       2.309  14.884  22.436  0.00  0.00    +0.000 OA
ATOM     24  H   UNL     1       3.956  13.504  20.085  0.00  0.00    +0.000 HD
ENDBRANCH   3  20
BRANCH   1  25
ATOM     25  C   UNL     1      -0.196  10.067  20.033  0.00  0.00    +0.000 C 
BRANCH  25  26
ATOM     26  N   UNL     1       0.934   9.163  20.272  0.00  0.00    +0.000 N 
ATOM     27  C   UNL     1       1.570   8.606  19.164  0.00  0.00    +0.000 C 
ATOM     28  O   UNL     1       1.292   8.866  17.999  0.00  0.00    +0.000 OA
BRANCH  26  30
ATOM     29  C   UNL     1       0.174   9.195  22.641  0.00  0.00    +0.000 C 
ATOM     30  C   UNL     1       1.161   8.648  21.621  0.00  0.00    +0.000 C 
ENDBRANCH  26  30
BRANCH  27  31
ATOM     31  O   UNL     1       2.487   7.660  19.524  0.00  0.00    +0.000 OA
BRANCH  31  32
ATOM     32  C   UNL     1       2.592   6.531  18.652  0.00  0.00    +0.000 C 
BRANCH  32  33
ATOM     33  C   UNL     1       2.640   5.245  19.434  0.00  0.00    +0.000 A 
ATOM     34  C   UNL     1       3.553   4.236  19.096  0.00  0.00    +0.000 A 
ATOM     35  C   UNL     1       3.597   3.050  19.830  0.00  0.00    +0.000 A 
ATOM     36  C   UNL     1       2.726   2.858  20.901  0.00  0.00    +0.000 A 
ATOM     37  C   UNL     1       1.812   3.854  21.243  0.00  0.00    +0.000 A 
ATOM     38  C   UNL     1       1.766   5.042  20.510  0.00  0.00    +0.000 A 
ENDBRANCH  32  33
ENDBRANCH  31  32
ENDBRANCH  27  31
ENDBRANCH  25  26
ENDBRANCH   1  25
TORSDOF 12
ENDMDL
MODEL 9
REMARK VINA RESULT:      -7.5      1.593      2.356
REMARK  Name = 
REMARK  15 active torsions:
REMARK  status: ('A' for Active; 'I' for Inactive)
REMARK    1  A    between atoms: C_1  and  C_2
REMARK    2  A    between atoms: C_2  and  N_3
REMARK    3  A    between atoms: N_3  and  C_4
REMARK    4  A    between atoms: C_4  and  C_5
REMARK    5  A    between atoms: C_7  and  N_8
REMARK    6  A    between atoms: C_9  and  C_10
REMARK    7  A    between atoms: C_14  and  C_15
REMARK    8  A    between atoms: C_17  and  C_18
REMARK    9  A    between atoms: C_18  and  C_19
REMARK   10  A    between atoms: C_19  and  O_21
REMARK   11  A    between atoms: C_24  and  O_25
REMARK   12  A    between atoms: O_25  and  C_26
REMARK   13  A    between atoms: C_27  and  O_29
REMARK   14  A    between atoms: O_29  and  C_30
REMARK   15  A    between atoms: C_30  and  C_31
REMARK                            x       y       z     vdW  Elec       q    Type
REMARK                         _______ _______ _______ _____ _____    ______ ____
ROOT
ATOM      1  C   UNL     1       0.016  11.441  19.595  0.00  0.00    +0.000 A 
ATOM      2  C   UNL     1       1.292  11.921  19.993  0.00  0.00    +0.000 A 
ATOM      3  C   UNL     1       1.761  13.187  19.658  0.00  0.00    +0.000 A 
ATOM      4  C   UNL     1       0.935  14.006  18.908  0.00  0.00    +0.000 A 
ATOM      5  C   UNL     1      -0.380  13.609  18.623  0.00  0.00    +0.000 A 
ATOM      6  C   UNL     1      -0.905  12.349  18.998  0.00  0.00    +0.000 A 
ENDROOT
BRANCH   6   7
ATOM      7  C   UNL     1      -2.390  12.105  18.881  0.00  0.00    +0.000 A 
ATOM      8  C   UNL     1      -3.247  12.618  19.886  0.00  0.00    +0.000 A 
ATOM      9  C   UNL     1      -4.637  12.410  19.896  0.00  0.00    +0.000 A 
ATOM     10  C   UNL     1      -5.228  11.804  18.796  0.00  0.00    +0.000 A 
ATOM     11  C   UNL     1      -4.433  11.351  17.746  0.00  0.00    +0.000 A 
ATOM     12  C   UNL     1      -3.030  11.481  17.779  0.00  0.00    +0.000 A 
BRANCH  12  13
ATOM     13  O   UNL     1      -2.245  10.987  16.762  0.00  0.00    +0.000 OA
ATOM     14  C   UNL     1      -2.883  10.776  15.504  0.00  0.00    +0.000 C 
ENDBRANCH  12  13
BRANCH   9  15
ATOM     15  C   UNL     1      -5.469  12.846  21.086  0.00  0.00    +0.000 C 
BRANCH  15  16
ATOM     16  C   UNL     1      -4.715  13.204  22.344  0.00  0.00    +0.000 C 
ATOM     17  O   UNL     1      -4.424  14.365  22.610  0.00  0.00    +0.000 OA
BRANCH  16  18
ATOM     18  O   UNL     1      -4.369  12.193  23.161  0.00  0.00    +0.000 OA
ATOM     19  H   UNL     1      -5.109  11.779  23.649  0.00  0.00    +0.000 HD
ENDBRANCH  16  18
ENDBRANCH  15  16
ENDBRANCH   9  15
ENDBRANCH   6   7
BRANCH   3  20
ATOM     20  N   UNL     1       3.013  13.701  20.073  0.00  0.00    +0.000 N 
ATOM     21  C   UNL     1       3.289  14.373  21.250  0.00  0.00    +0.000 C 
ATOM     22  C   UNL     1       4.683  14.928  21.322  0.00  0.00    +0.000 C 
ATOM     23  O   UNL     1       2.520  14.514  22.197  0.00  0.00    +0.000 OA
ATOM     24  H   UNL     1       3.788  13.555  19.437  0.00  0.00    +0.000 HD
ENDBRANCH   3  20
BRANCH   1  25
ATOM     25  C   UNL     1      -0.284   9.972  19.888  0.00  0.00    +0.000 C 
BRANCH  25  26
ATOM     26  N   UNL     1       0.872   9.125  20.199  0.00  0.00    +0.000 N 
ATOM     27  C   UNL     1       1.557   8.539  19.135  0.00  0.00    +0.000 C 
ATOM     28  O   UNL     1       1.298   8.729  17.953  0.00  0.00    +0.000 OA
BRANCH  26  30
ATOM     29  C   UNL     1       0.100   9.307  22.556  0.00  0.00    +0.000 C 
ATOM     30  C   UNL     1       1.085   8.688  21.577  0.00  0.00    +0.000 C 
ENDBRANCH  26  30
BRANCH  27  31
ATOM     31  O   UNL     1       2.499   7.648  19.564  0.00  0.00    +0.000 OA
BRANCH  31  32
ATOM     32  C   UNL     1       2.590   6.431  18.818  0.00  0.00    +0.000 C 
BRANCH  32  33
ATOM     33  C   UNL     1       4.003   6.180  18.361  0.00  0.00    +0.000 A 
ATOM     34  C   UNL     1       4.533   6.874  17.264  0.00  0.00    +0.000 A 
ATOM     35  C   UNL     1       5.846   6.642  16.850  0.00  0.00    +0.000 A 
ATOM     36  C   UNL     1       6.636   5.712  17.522  0.00  0.00    +0.000 A 
ATOM     37  C   UNL     1       6.117   5.015  18.612  0.00  0.00    +0.000 A 
ATOM     38  C   UNL     1       4.804   5.245  19.028  0.00  0.00    +0.000 A 
ENDBRANCH  32  33
ENDBRANCH  31  32
ENDBRANCH  27  31
ENDBRANCH  25  26
ENDBRANCH   1  25
TORSDOF 12
ENDMDL
