MODEL 1
REMARK VINA RESULT:      -6.6      0.000      0.000
REMARK  Name = 
REMARK  7 active torsions:
REMARK  status: ('A' for Active; 'I' for Inactive)
REMARK    1  A    between atoms: C_1  and  C_2
REMARK    2  A    between atoms: C_2  and  N_3
REMARK    3  A    between atoms: N_3  and  C_4
REMARK    4  A    between atoms: N_3  and  C_6
REMARK    5  A    between atoms: C_4  and  C_5
REMARK    6  A    between atoms: C_6  and  C_7
REMARK    7  A    between atoms: C_18  and  C_20
REMARK                            x       y       z     vdW  Elec       q    Type
REMARK                         _______ _______ _______ _____ _____    ______ ____
ROOT
ATOM      1  C   UNL     1      -0.668  12.455  22.218  0.00  0.00    +0.000 C 
ATOM      2  O   UNL     1      -1.200  13.102  23.121  0.00  0.00    +0.000 OA
ATOM      3  N   UNL     1      -0.688  11.092  22.343  0.00  0.00    +0.000 N 
ATOM      4  C   UNL     1      -0.110  10.189  21.500  0.00  0.00    +0.000 A 
ATOM      5  N   UNL     1       0.416  10.343  20.309  0.00  0.00    +0.000 NA
ATOM      6  C   UNL     1       1.073   9.171  19.934  0.00  0.00    +0.000 A 
ATOM      7  C   UNL     1       1.817   8.926  18.762  0.00  0.00    +0.000 A 
ATOM      8  C   UNL     1       2.551   7.731  18.600  0.00  0.00    +0.000 A 
ATOM      9  N   UNL     1       3.374   7.351  17.532  0.00  0.00    +0.000 NA
ATOM     10  C   UNL     1       3.903   6.178  17.788  0.00  0.00    +0.000 A 
ATOM     11  N   UNL     1       4.745   5.364  17.102  0.00  0.00    +0.000 N 
ATOM     12  C   UNL     1       5.297   5.594  15.873  0.00  0.00    +0.000 C 
ATOM     13  O   UNL     1       5.162   6.618  15.208  0.00  0.00    +0.000 OA
ATOM     14  S   UNL     1       3.488   5.455  19.274  0.00  0.00    +0.000 S 
ATOM     15  C   UNL     1       2.487   6.789  19.627  0.00  0.00    +0.000 A 
ATOM     16  C   UNL     1       1.702   6.979  20.751  0.00  0.00    +0.000 A 
ATOM     17  C   UNL     1       0.999   8.162  20.897  0.00  0.00    +0.000 A 
ATOM     18  S   UNL     1      -0.020   8.639  22.187  0.00  0.00    +0.000 S 
ATOM     19  H   UNL     1      -1.077  10.745  23.207  0.00  0.00    +0.000 HD
ATOM     20  H   UNL     1       4.954   4.478  17.553  0.00  0.00    +0.000 HD
ENDROOT
BRANCH  12  21
ATOM     21  C   UNL     1       6.171   4.451  15.357  0.00  0.00    +0.000 C 
ATOM     22 CL   UNL     1       7.056   4.864  13.859  0.00  0.00    +0.000 Cl
ENDBRANCH  12  21
BRANCH   1  23
ATOM     23  C   UNL     1       0.067  13.054  21.013  0.00  0.00    +0.000 C 
BRANCH  23  24
ATOM     24  N   UNL     1      -0.801  13.777  20.054  0.00  0.00    +0.000 NA
BRANCH  24  26
ATOM     25  C   UNL     1       1.342  13.618  18.766  0.00  0.00    +0.000 C 
ATOM     26  C   UNL     1      -0.068  14.198  18.848  0.00  0.00    +0.000 C 
ENDBRANCH  24  26
BRANCH  24  27
ATOM     27  C   UNL     1      -2.000  12.968  19.769  0.00  0.00    +0.000 C 
ATOM     28  C   UNL     1      -1.923  12.045  18.553  0.00  0.00    +0.000 C 
ENDBRANCH  24  27
ENDBRANCH  23  24
ENDBRANCH   1  23
TORSDOF 5
ENDMDL
MODEL 2
REMARK VINA RESULT:      -6.5      0.783      1.289
REMARK  Name = 
REMARK  7 active torsions:
REMARK  status: ('A' for Active; 'I' for Inactive)
REMARK    1  A    between atoms: C_1  and  C_2
REMARK    2  A    between atoms: C_2  and  N_3
REMARK    3  A    between atoms: N_3  and  C_4
REMARK    4  A    between atoms: N_3  and  C_6
REMARK    5  A    between atoms: C_4  and  C_5
REMARK    6  A    between atoms: C_6  and  C_7
REMARK    7  A    between atoms: C_18  and  C_20
REMARK                            x       y       z     vdW  Elec       q    Type
REMARK                         _______ _______ _______ _____ _____    ______ ____
ROOT
ATOM      1  C   UNL     1      -0.439  12.695  22.073  0.00  0.00    +0.000 C 
ATOM      2  O   UNL     1      -0.955  13.380  22.957  0.00  0.00    +0.000 OA
ATOM      3  N   UNL     1      -0.553  11.337  22.201  0.00  0.00    +0.000 N 
ATOM      4  C   UNL     1      -0.009  10.393  21.379  0.00  0.00    +0.000 A 
ATOM      5  N   UNL     1       0.563  10.508  20.205  0.00  0.00    +0.000 NA
ATOM      6  C   UNL     1       1.154   9.293  19.855  0.00  0.00    +0.000 A 
ATOM      7  C   UNL     1       1.917   8.994  18.708  0.00  0.00    +0.000 A 
ATOM      8  C   UNL     1       2.575   7.753  18.572  0.00  0.00    +0.000 A 
ATOM      9  N   UNL     1       3.404   7.314  17.532  0.00  0.00    +0.000 NA
ATOM     10  C   UNL     1       3.847   6.110  17.808  0.00  0.00    +0.000 A 
ATOM     11  N   UNL     1       4.654   5.239  17.151  0.00  0.00    +0.000 N 
ATOM     12  C   UNL     1       5.259   5.427  15.940  0.00  0.00    +0.000 C 
ATOM     13  O   UNL     1       5.213   6.454  15.268  0.00  0.00    +0.000 OA
ATOM     14  S   UNL     1       3.338   5.423  19.282  0.00  0.00    +0.000 S 
ATOM     15  C   UNL     1       2.416   6.821  19.599  0.00  0.00    +0.000 A 
ATOM     16  C   UNL     1       1.610   7.068  20.697  0.00  0.00    +0.000 A 
ATOM     17  C   UNL     1       0.983   8.296  20.817  0.00  0.00    +0.000 A 
ATOM     18  S   UNL     1      -0.044   8.845  22.072  0.00  0.00    +0.000 S 
ATOM     19  H   UNL     1      -0.991  11.020  23.053  0.00  0.00    +0.000 HD
ATOM     20  H   UNL     1       4.790   4.343  17.611  0.00  0.00    +0.000 HD
ENDROOT
BRANCH  12  21
ATOM     21  C   UNL     1       6.072   4.226  15.455  0.00  0.00    +0.000 C 
ATOM     22 CL   UNL     1       5.996   3.995  13.683  0.00  0.00    +0.000 Cl
ENDBRANCH  12  21
BRANCH   1  23
ATOM     23  C   UNL     1       0.372  13.239  20.892  0.00  0.00    +0.000 C 
BRANCH  23  24
ATOM     24  N   UNL     1      -0.397  14.085  19.949  0.00  0.00    +0.000 NA
BRANCH  24  26
ATOM     25  C   UNL     1      -1.550  16.304  20.097  0.00  0.00    +0.000 C 
ATOM     26  C   UNL     1      -0.248  15.520  20.241  0.00  0.00    +0.000 C 
ENDBRANCH  24  26
BRANCH  24  27
ATOM     27  C   UNL     1      -0.047  13.721  18.563  0.00  0.00    +0.000 C 
ATOM     28  C   UNL     1       1.425  13.409  18.294  0.00  0.00    +0.000 C 
ENDBRANCH  24  27
ENDBRANCH  23  24
ENDBRANCH   1  23
TORSDOF 5
ENDMDL
MODEL 3
REMARK VINA RESULT:      -6.5      3.682      8.900
REMARK  Name = 
REMARK  7 active torsions:
REMARK  status: ('A' for Active; 'I' for Inactive)
REMARK    1  A    between atoms: C_1  and  C_2
REMARK    2  A    between atoms: C_2  and  N_3
REMARK    3  A    between atoms: N_3  and  C_4
REMARK    4  A    between atoms: N_3  and  C_6
REMARK    5  A    between atoms: C_4  and  C_5
REMARK    6  A    between atoms: C_6  and  C_7
REMARK    7  A    between atoms: C_18  and  C_20
REMARK                            x       y       z     vdW  Elec       q    Type
REMARK                         _______ _______ _______ _____ _____    ______ ____
ROOT
ATOM      1  C   UNL     1       3.670   2.910  18.043  0.00  0.00    +0.000 C 
ATOM      2  O   UNL     1       3.830   1.689  18.015  0.00  0.00    +0.000 OA
ATOM      3  N   UNL     1       3.240   3.447  19.226  0.00  0.00    +0.000 N 
ATOM      4  C   UNL     1       2.940   4.756  19.464  0.00  0.00    +0.000 A 
ATOM      5  N   UNL     1       3.155   5.829  18.742  0.00  0.00    +0.000 NA
ATOM      6  C   UNL     1       2.478   6.912  19.304  0.00  0.00    +0.000 A 
ATOM      7  C   UNL     1       2.393   8.233  18.819  0.00  0.00    +0.000 A 
ATOM      8  C   UNL     1       1.539   9.180  19.426  0.00  0.00    +0.000 A 
ATOM      9  N   UNL     1       1.299  10.507  19.048  0.00  0.00    +0.000 NA
ATOM     10  C   UNL     1       0.408  11.034  19.854  0.00  0.00    +0.000 A 
ATOM     11  N   UNL     1      -0.161  12.263  19.941  0.00  0.00    +0.000 N 
ATOM     12  C   UNL     1       0.072  13.340  19.132  0.00  0.00    +0.000 C 
ATOM     13  O   UNL     1       0.806  13.349  18.146  0.00  0.00    +0.000 OA
ATOM     14  S   UNL     1      -0.206  10.028  21.085  0.00  0.00    +0.000 S 
ATOM     15  C   UNL     1       0.809   8.769  20.543  0.00  0.00    +0.000 A 
ATOM     16  C   UNL     1       0.936   7.500  21.078  0.00  0.00    +0.000 A 
ATOM     17  C   UNL     1       1.769   6.582  20.462  0.00  0.00    +0.000 A 
ATOM     18  S   UNL     1       2.085   4.962  20.916  0.00  0.00    +0.000 S 
ATOM     19  H   UNL     1       3.024   2.777  19.950  0.00  0.00    +0.000 HD
ATOM     20  H   UNL     1      -0.809  12.386  20.714  0.00  0.00    +0.000 HD
ENDROOT
BRANCH  12  21
ATOM     21  C   UNL     1      -0.702  14.597  19.527  0.00  0.00    +0.000 C 
ATOM     22 CL   UNL     1      -1.894  14.307  20.829  0.00  0.00    +0.000 Cl
ENDBRANCH  12  21
BRANCH   1  23
ATOM     23  C   UNL     1       3.846   3.854  16.848  0.00  0.00    +0.000 C 
BRANCH  23  24
ATOM     24  N   UNL     1       5.245   4.018  16.388  0.00  0.00    +0.000 NA
BRANCH  24  26
ATOM     25  C   UNL     1       6.008   3.949  14.003  0.00  0.00    +0.000 C 
ATOM     26  C   UNL     1       5.329   4.748  15.112  0.00  0.00    +0.000 C 
ENDBRANCH  24  26
BRANCH  24  27
ATOM     27  C   UNL     1       6.051   4.616  17.468  0.00  0.00    +0.000 C 
ATOM     28  C   UNL     1       7.568   4.551  17.300  0.00  0.00    +0.000 C 
ENDBRANCH  24  27
ENDBRANCH  23  24
ENDBRANCH   1  23
TORSDOF 5
ENDMDL
MODEL 4
REMARK VINA RESULT:      -6.5      1.104      1.581
REMARK  Name = 
REMARK  7 active torsions:
REMARK  status: ('A' for Active; 'I' for Inactive)
REMARK    1  A    between atoms: C_1  and  C_2
REMARK    2  A    between atoms: C_2  and  N_3
REMARK    3  A    between atoms: N_3  and  C_4
REMARK    4  A    between atoms: N_3  and  C_6
REMARK    5  A    between atoms: C_4  and  C_5
REMARK    6  A    between atoms: C_6  and  C_7
REMARK    7  A    between atoms: C_18  and  C_20
REMARK                            x       y       z     vdW  Elec       q    Type
REMARK                         _______ _______ _______ _____ _____    ______ ____
ROOT
ATOM      1  C   UNL     1      -0.577  12.718  21.765  0.00  0.00    +0.000 C 
ATOM      2  O   UNL     1      -1.112  13.427  22.617  0.00  0.00    +0.000 OA
ATOM      3  N   UNL     1      -0.636  11.365  21.964  0.00  0.00    +0.000 N 
ATOM      4  C   UNL     1      -0.062  10.402  21.186  0.00  0.00    +0.000 A 
ATOM      5  N   UNL     1       0.496  10.477  20.003  0.00  0.00    +0.000 NA
ATOM      6  C   UNL     1       1.132   9.270  19.709  0.00  0.00    +0.000 A 
ATOM      7  C   UNL     1       1.897   8.942  18.572  0.00  0.00    +0.000 A 
ATOM      8  C   UNL     1       2.603   7.721  18.494  0.00  0.00    +0.000 A 
ATOM      9  N   UNL     1       3.440   7.262  17.470  0.00  0.00    +0.000 NA
ATOM     10  C   UNL     1       3.932   6.092  17.804  0.00  0.00    +0.000 A 
ATOM     11  N   UNL     1       4.768   5.220  17.185  0.00  0.00    +0.000 N 
ATOM     12  C   UNL     1       5.356   5.368  15.959  0.00  0.00    +0.000 C 
ATOM     13  O   UNL     1       5.264   6.357  15.236  0.00  0.00    +0.000 OA
ATOM     14  S   UNL     1       3.462   5.463  19.316  0.00  0.00    +0.000 S 
ATOM     15  C   UNL     1       2.488   6.839  19.570  0.00  0.00    +0.000 A 
ATOM     16  C   UNL     1       1.682   7.111  20.661  0.00  0.00    +0.000 A 
ATOM     17  C   UNL     1       1.007   8.318  20.724  0.00  0.00    +0.000 A 
ATOM     18  S   UNL     1      -0.030   8.891  21.959  0.00  0.00    +0.000 S 
ATOM     19  H   UNL     1      -1.055  11.076  22.835  0.00  0.00    +0.000 HD
ATOM     20  H   UNL     1       4.943   4.356  17.689  0.00  0.00    +0.000 HD
ENDROOT
BRANCH  12  21
ATOM     21  C   UNL     1       6.211   4.177  15.530  0.00  0.00    +0.000 C 
ATOM     22 CL   UNL     1       6.208   3.910  13.761  0.00  0.00    +0.000 Cl
ENDBRANCH  12  21
BRANCH   1  23
ATOM     23  C   UNL     1       0.203  13.231  20.549  0.00  0.00    +0.000 C 
BRANCH  23  24
ATOM     24  N   UNL     1       1.358  14.099  20.875  0.00  0.00    +0.000 NA
BRANCH  24  26
ATOM     25  C   UNL     1       3.811  14.507  20.565  0.00  0.00    +0.000 C 
ATOM     26  C   UNL     1       2.609  13.614  20.267  0.00  0.00    +0.000 C 
ENDBRANCH  24  26
BRANCH  24  27
ATOM     27  C   UNL     1       1.035  15.497  20.532  0.00  0.00    +0.000 C 
ATOM     28  C   UNL     1       0.535  15.750  19.111  0.00  0.00    +0.000 C 
ENDBRANCH  24  27
ENDBRANCH  23  24
ENDBRANCH   1  23
TORSDOF 5
ENDMDL
MODEL 5
REMARK VINA RESULT:      -6.5      0.710      1.438
REMARK  Name = 
REMARK  7 active torsions:
REMARK  status: ('A' for Active; 'I' for Inactive)
REMARK    1  A    between atoms: C_1  and  C_2
REMARK    2  A    between atoms: C_2  and  N_3
REMARK    3  A    between atoms: N_3  and  C_4
REMARK    4  A    between atoms: N_3  and  C_6
REMARK    5  A    between atoms: C_4  and  C_5
REMARK    6  A    between atoms: C_6  and  C_7
REMARK    7  A    between atoms: C_18  and  C_20
REMARK                            x       y       z     vdW  Elec       q    Type
REMARK                         _______ _______ _______ _____ _____    ______ ____
ROOT
ATOM      1  C   UNL     1      -0.261  12.636  21.680  0.00  0.00    +0.000 C 
ATOM      2  O   UNL     1      -0.769  13.352  22.543  0.00  0.00    +0.000 OA
ATOM      3  N   UNL     1      -0.341  11.284  21.877  0.00  0.00    +0.000 N 
ATOM      4  C   UNL     1       0.202  10.313  21.087  0.00  0.00    +0.000 A 
ATOM      5  N   UNL     1       0.741  10.381  19.894  0.00  0.00    +0.000 NA
ATOM      6  C   UNL     1       1.349   9.163  19.587  0.00  0.00    +0.000 A 
ATOM      7  C   UNL     1       2.089   8.824  18.436  0.00  0.00    +0.000 A 
ATOM      8  C   UNL     1       2.771   7.592  18.343  0.00  0.00    +0.000 A 
ATOM      9  N   UNL     1       3.582   7.120  17.304  0.00  0.00    +0.000 NA
ATOM     10  C   UNL     1       4.058   5.940  17.626  0.00  0.00    +0.000 A 
ATOM     11  N   UNL     1       4.867   5.055  16.991  0.00  0.00    +0.000 N 
ATOM     12  C   UNL     1       5.437   5.196  15.756  0.00  0.00    +0.000 C 
ATOM     13  O   UNL     1       5.351   6.188  15.037  0.00  0.00    +0.000 OA
ATOM     14  S   UNL     1       3.603   5.316  19.145  0.00  0.00    +0.000 S 
ATOM     15  C   UNL     1       2.658   6.709  19.419  0.00  0.00    +0.000 A 
ATOM     16  C   UNL     1       1.876   6.992  20.524  0.00  0.00    +0.000 A 
ATOM     17  C   UNL     1       1.225   8.211  20.601  0.00  0.00    +0.000 A 
ATOM     18  S   UNL     1       0.219   8.800  21.856  0.00  0.00    +0.000 S 
ATOM     19  H   UNL     1      -0.750  11.000  22.755  0.00  0.00    +0.000 HD
ATOM     20  H   UNL     1       5.035   4.186  17.490  0.00  0.00    +0.000 HD
ENDROOT
BRANCH  12  21
ATOM     21  C   UNL     1       6.263   3.990  15.309  0.00  0.00    +0.000 C 
ATOM     22 CL   UNL     1       6.279   3.769  13.534  0.00  0.00    +0.000 Cl
ENDBRANCH  12  21
BRANCH   1  23
ATOM     23  C   UNL     1       0.507  13.138  20.452  0.00  0.00    +0.000 C 
BRANCH  23  24
ATOM     24  N   UNL     1      -0.345  13.657  19.357  0.00  0.00    +0.000 NA
BRANCH  24  26
ATOM     25  C   UNL     1      -1.747  12.028  18.069  0.00  0.00    +0.000 C 
ATOM     26  C   UNL     1      -1.637  12.954  19.278  0.00  0.00    +0.000 C 
ENDBRANCH  24  26
BRANCH  24  27
ATOM     27  C   UNL     1      -0.473  15.120  19.483  0.00  0.00    +0.000 C 
ATOM     28  C   UNL     1       0.764  15.944  19.125  0.00  0.00    +0.000 C 
ENDBRANCH  24  27
ENDBRANCH  23  24
ENDBRANCH   1  23
TORSDOF 5
ENDMDL
MODEL 6
REMARK VINA RESULT:      -6.5      1.367      1.913
REMARK  Name = 
REMARK  7 active torsions:
REMARK  status: ('A' for Active; 'I' for Inactive)
REMARK    1  A    between atoms: C_1  and  C_2
REMARK    2  A    between atoms: C_2  and  N_3
REMARK    3  A    between atoms: N_3  and  C_4
REMARK    4  A    between atoms: N_3  and  C_6
REMARK    5  A    between atoms: C_4  and  C_5
REMARK    6  A    between atoms: C_6  and  C_7
REMARK    7  A    between atoms: C_18  and  C_20
REMARK                            x       y       z     vdW  Elec       q    Type
REMARK                         _______ _______ _______ _____ _____    ______ ____
ROOT
ATOM      1  C   UNL     1      -0.544  13.747  20.670  0.00  0.00    +0.000 C 
ATOM      2  O   UNL     1      -1.074  14.583  21.403  0.00  0.00    +0.000 OA
ATOM      3  N   UNL     1      -0.669  12.436  21.041  0.00  0.00    +0.000 N 
ATOM      4  C   UNL     1      -0.114  11.357  20.416  0.00  0.00    +0.000 A 
ATOM      5  N   UNL     1       0.483  11.254  19.254  0.00  0.00    +0.000 NA
ATOM      6  C   UNL     1       1.074   9.995  19.143  0.00  0.00    +0.000 A 
ATOM      7  C   UNL     1       1.858   9.490  18.086  0.00  0.00    +0.000 A 
ATOM      8  C   UNL     1       2.512   8.243  18.193  0.00  0.00    +0.000 A 
ATOM      9  N   UNL     1       3.359   7.621  17.268  0.00  0.00    +0.000 NA
ATOM     10  C   UNL     1       3.789   6.486  17.768  0.00  0.00    +0.000 A 
ATOM     11  N   UNL     1       4.604   5.508  17.298  0.00  0.00    +0.000 N 
ATOM     12  C   UNL     1       5.236   5.471  16.086  0.00  0.00    +0.000 C 
ATOM     13  O   UNL     1       5.210   6.359  15.238  0.00  0.00    +0.000 OA
ATOM     14  S   UNL     1       3.245   6.080  19.331  0.00  0.00    +0.000 S 
ATOM     15  C   UNL     1       2.325   7.515  19.369  0.00  0.00    +0.000 A 
ATOM     16  C   UNL     1       1.499   7.959  20.386  0.00  0.00    +0.000 A 
ATOM     17  C   UNL     1       0.876   9.190  20.267  0.00  0.00    +0.000 A 
ATOM     18  S   UNL     1      -0.173   9.961  21.379  0.00  0.00    +0.000 S 
ATOM     19  H   UNL     1      -1.126  12.280  21.927  0.00  0.00    +0.000 HD
ATOM     20  H   UNL     1       4.725   4.711  17.917  0.00  0.00    +0.000 HD
ENDROOT
BRANCH  12  21
ATOM     21  C   UNL     1       6.050   4.200  15.846  0.00  0.00    +0.000 C 
ATOM     22 CL   UNL     1       6.295   3.840  14.111  0.00  0.00    +0.000 Cl
ENDBRANCH  12  21
BRANCH   1  23
ATOM     23  C   UNL     1       0.295  14.065  19.427  0.00  0.00    +0.000 C 
BRANCH  23  24
ATOM     24  N   UNL     1       1.196  15.232  19.569  0.00  0.00    +0.000 NA
BRANCH  24  26
ATOM     25  C   UNL     1       2.966  13.790  18.538  0.00  0.00    +0.000 C 
ATOM     26  C   UNL     1       2.615  14.840  19.589  0.00  0.00    +0.000 C 
ENDBRANCH  24  26
BRANCH  24  27
ATOM     27  C   UNL     1       0.871  16.233  18.536  0.00  0.00    +0.000 C 
ATOM     28  C   UNL     1      -0.497  16.904  18.645  0.00  0.00    +0.000 C 
ENDBRANCH  24  27
ENDBRANCH  23  24
ENDBRANCH   1  23
TORSDOF 5
ENDMDL
MODEL 7
REMARK VINA RESULT:      -6.3      3.120      4.040
REMARK  Name = 
REMARK  7 active torsions:
REMARK  status: ('A' for Active; 'I' for Inactive)
REMARK    1  A    between atoms: C_1  and  C_2
REMARK    2  A    between atoms: C_2  and  N_3
REMARK    3  A    between atoms: N_3  and  C_4
REMARK    4  A    between atoms: N_3  and  C_6
REMARK    5  A    between atoms: C_4  and  C_5
REMARK    6  A    between atoms: C_6  and  C_7
REMARK    7  A    between atoms: C_18  and  C_20
REMARK                            x       y       z     vdW  Elec       q    Type
REMARK                         _______ _______ _______ _____ _____    ______ ____
ROOT
ATOM      1  C   UNL     1      -2.048  13.540  20.854  0.00  0.00    +0.000 C 
ATOM      2  O   UNL     1      -2.639  14.602  20.655  0.00  0.00    +0.000 OA
ATOM      3  N   UNL     1      -0.962  13.282  20.062  0.00  0.00    +0.000 N 
ATOM      4  C   UNL     1      -0.202  12.149  20.066  0.00  0.00    +0.000 A 
ATOM      5  N   UNL     1      -0.169  11.143  20.905  0.00  0.00    +0.000 NA
ATOM      6  C   UNL     1       0.616  10.119  20.376  0.00  0.00    +0.000 A 
ATOM      7  C   UNL     1       0.871   8.844  20.921  0.00  0.00    +0.000 A 
ATOM      8  C   UNL     1       1.568   7.861  20.186  0.00  0.00    +0.000 A 
ATOM      9  N   UNL     1       1.861   6.542  20.553  0.00  0.00    +0.000 NA
ATOM     10  C   UNL     1       2.494   5.948  19.568  0.00  0.00    +0.000 A 
ATOM     11  N   UNL     1       3.006   4.702  19.406  0.00  0.00    +0.000 N 
ATOM     12  C   UNL     1       2.977   3.673  20.306  0.00  0.00    +0.000 C 
ATOM     13  O   UNL     1       2.424   3.696  21.402  0.00  0.00    +0.000 OA
ATOM     14  S   UNL     1       2.776   6.874  18.167  0.00  0.00    +0.000 S 
ATOM     15  C   UNL     1       2.024   8.209  18.913  0.00  0.00    +0.000 A 
ATOM     16  C   UNL     1       1.850   9.479  18.391  0.00  0.00    +0.000 A 
ATOM     17  C   UNL     1       1.154  10.425  19.123  0.00  0.00    +0.000 A 
ATOM     18  S   UNL     1       0.796  12.044  18.697  0.00  0.00    +0.000 S 
ATOM     19  H   UNL     1      -0.790  13.960  19.334  0.00  0.00    +0.000 HD
ATOM     20  H   UNL     1       3.484   4.542  18.524  0.00  0.00    +0.000 HD
ENDROOT
BRANCH  12  21
ATOM     21  C   UNL     1       3.687   2.407  19.828  0.00  0.00    +0.000 C 
ATOM     22 CL   UNL     1       3.244   1.939  18.159  0.00  0.00    +0.000 Cl
ENDBRANCH  12  21
BRANCH   1  23
ATOM     23  C   UNL     1      -2.472  12.466  21.862  0.00  0.00    +0.000 C 
BRANCH  23  24
ATOM     24  N   UNL     1      -2.312  12.853  23.284  0.00  0.00    +0.000 NA
BRANCH  24  26
ATOM     25  C   UNL     1      -1.490  14.908  24.457  0.00  0.00    +0.000 C 
ATOM     26  C   UNL     1      -1.179  13.771  23.487  0.00  0.00    +0.000 C 
ENDBRANCH  24  26
BRANCH  24  27
ATOM     27  C   UNL     1      -3.594  13.368  23.800  0.00  0.00    +0.000 C 
ATOM     28  C   UNL     1      -4.389  12.429  24.705  0.00  0.00    +0.000 C 
ENDBRANCH  24  27
ENDBRANCH  23  24
ENDBRANCH   1  23
TORSDOF 5
ENDMDL
MODEL 8
REMARK VINA RESULT:      -6.2      1.126      1.537
REMARK  Name = 
REMARK  7 active torsions:
REMARK  status: ('A' for Active; 'I' for Inactive)
REMARK    1  A    between atoms: C_1  and  C_2
REMARK    2  A    between atoms: C_2  and  N_3
REMARK    3  A    between atoms: N_3  and  C_4
REMARK    4  A    between atoms: N_3  and  C_6
REMARK    5  A    between atoms: C_4  and  C_5
REMARK    6  A    between atoms: C_6  and  C_7
REMARK    7  A    between atoms: C_18  and  C_20
REMARK                            x       y       z     vdW  Elec       q    Type
REMARK                         _______ _______ _______ _____ _____    ______ ____
ROOT
ATOM      1  C   UNL     1      -1.237  12.682  21.847  0.00  0.00    +0.000 C 
ATOM      2  O   UNL     1      -1.825  13.337  22.708  0.00  0.00    +0.000 OA
ATOM      3  N   UNL     1      -1.135  11.334  22.062  0.00  0.00    +0.000 N 
ATOM      4  C   UNL     1      -0.477  10.432  21.277  0.00  0.00    +0.000 A 
ATOM      5  N   UNL     1       0.034  10.555  20.076  0.00  0.00    +0.000 NA
ATOM      6  C   UNL     1       0.794   9.424  19.776  0.00  0.00    +0.000 A 
ATOM      7  C   UNL     1       1.559   9.170  18.619  0.00  0.00    +0.000 A 
ATOM      8  C   UNL     1       2.397   8.037  18.532  0.00  0.00    +0.000 A 
ATOM      9  N   UNL     1       3.251   7.663  17.488  0.00  0.00    +0.000 NA
ATOM     10  C   UNL     1       3.884   6.561  17.818  0.00  0.00    +0.000 A 
ATOM     11  N   UNL     1       4.795   5.782  17.183  0.00  0.00    +0.000 N 
ATOM     12  C   UNL     1       5.327   5.980  15.939  0.00  0.00    +0.000 C 
ATOM     13  O   UNL     1       5.101   6.941  15.208  0.00  0.00    +0.000 OA
ATOM     14  S   UNL     1       3.533   5.904  19.350  0.00  0.00    +0.000 S 
ATOM     15  C   UNL     1       2.415   7.163  19.620  0.00  0.00    +0.000 A 
ATOM     16  C   UNL     1       1.616   7.355  20.732  0.00  0.00    +0.000 A 
ATOM     17  C   UNL     1       0.809   8.478  20.803  0.00  0.00    +0.000 A 
ATOM     18  S   UNL     1      -0.250   8.946  22.064  0.00  0.00    +0.000 S 
ATOM     19  H   UNL     1      -1.492  11.011  22.948  0.00  0.00    +0.000 HD
ATOM     20  H   UNL     1       5.083   4.950  17.690  0.00  0.00    +0.000 HD
ENDROOT
BRANCH  12  21
ATOM     21  C   UNL     1       6.299   4.888  15.495  0.00  0.00    +0.000 C 
ATOM     22 CL   UNL     1       7.364   4.316  16.814  0.00  0.00    +0.000 Cl
ENDBRANCH  12  21
BRANCH   1  23
ATOM     23  C   UNL     1      -0.557  13.264  20.603  0.00  0.00    +0.000 C 
BRANCH  23  24
ATOM     24  N   UNL     1       0.164  14.538  20.829  0.00  0.00    +0.000 NA
BRANCH  24  26
ATOM     25  C   UNL     1       2.266  13.205  20.541  0.00  0.00    +0.000 C 
ATOM     26  C   UNL     1       1.545  14.321  21.293  0.00  0.00    +0.000 C 
ENDBRANCH  24  26
BRANCH  24  27
ATOM     27  C   UNL     1       0.069  15.379  19.621  0.00  0.00    +0.000 C 
ATOM     28  C   UNL     1      -0.917  16.545  19.681  0.00  0.00    +0.000 C 
ENDBRANCH  24  27
ENDBRANCH  23  24
ENDBRANCH   1  23
TORSDOF 5
ENDMDL
MODEL 9
REMARK VINA RESULT:      -6.2      1.308      1.891
REMARK  Name = 
REMARK  7 active torsions:
REMARK  status: ('A' for Active; 'I' for Inactive)
REMARK    1  A    between atoms: C_1  and  C_2
REMARK    2  A    between atoms: C_2  and  N_3
REMARK    3  A    between atoms: N_3  and  C_4
REMARK    4  A    between atoms: N_3  and  C_6
REMARK    5  A    between atoms: C_4  and  C_5
REMARK    6  A    between atoms: C_6  and  C_7
REMARK    7  A    between atoms: C_18  and  C_20
REMARK                            x       y       z     vdW  Elec       q    Type
REMARK                         _______ _______ _______ _____ _____    ______ ____
ROOT
ATOM      1  C   UNL     1      -0.794  13.126  21.073  0.00  0.00    +0.000 C 
ATOM      2  O   UNL     1      -1.351  13.897  21.855  0.00  0.00    +0.000 OA
ATOM      3  N   UNL     1      -0.799  11.799  21.408  0.00  0.00    +0.000 N 
ATOM      4  C   UNL     1      -0.193  10.785  20.726  0.00  0.00    +0.000 A 
ATOM      5  N   UNL     1       0.355  10.761  19.536  0.00  0.00    +0.000 NA
ATOM      6  C   UNL     1       1.035   9.555  19.359  0.00  0.00    +0.000 A 
ATOM      7  C   UNL     1       1.805   9.143  18.253  0.00  0.00    +0.000 A 
ATOM      8  C   UNL     1       2.557   7.949  18.292  0.00  0.00    +0.000 A 
ATOM      9  N   UNL     1       3.406   7.420  17.312  0.00  0.00    +0.000 NA
ATOM     10  C   UNL     1       3.945   6.309  17.757  0.00  0.00    +0.000 A 
ATOM     11  N   UNL     1       4.810   5.411  17.220  0.00  0.00    +0.000 N 
ATOM     12  C   UNL     1       5.385   5.457  15.981  0.00  0.00    +0.000 C 
ATOM     13  O   UNL     1       5.250   6.363  15.163  0.00  0.00    +0.000 OA
ATOM     14  S   UNL     1       3.508   5.820  19.329  0.00  0.00    +0.000 S 
ATOM     15  C   UNL     1       2.483   7.176  19.452  0.00  0.00    +0.000 A 
ATOM     16  C   UNL     1       1.674   7.526  20.518  0.00  0.00    +0.000 A 
ATOM     17  C   UNL     1       0.953   8.707  20.466  0.00  0.00    +0.000 A 
ATOM     18  S   UNL     1      -0.098   9.362  21.647  0.00  0.00    +0.000 S 
ATOM     19  H   UNL     1      -1.201  11.584  22.308  0.00  0.00    +0.000 HD
ATOM     20  H   UNL     1       5.021   4.610  17.808  0.00  0.00    +0.000 HD
ENDROOT
BRANCH  12  21
ATOM     21  C   UNL     1       6.282   4.261  15.665  0.00  0.00    +0.000 C 
ATOM     22 CL   UNL     1       6.314   3.846  13.926  0.00  0.00    +0.000 Cl
ENDBRANCH  12  21
BRANCH   1  23
ATOM     23  C   UNL     1      -0.041  13.543  19.804  0.00  0.00    +0.000 C 
BRANCH  23  24
ATOM     24  N   UNL     1       1.106  14.452  20.034  0.00  0.00    +0.000 NA
BRANCH  24  26
ATOM     25  C   UNL     1       0.657  16.661  18.941  0.00  0.00    +0.000 C 
ATOM     26  C   UNL     1       0.678  15.847  20.232  0.00  0.00    +0.000 C 
ENDBRANCH  24  26
BRANCH  24  27
ATOM     27  C   UNL     1       1.940  13.925  21.130  0.00  0.00    +0.000 C 
ATOM     28  C   UNL     1       3.193  14.727  21.476  0.00  0.00    +0.000 C 
ENDBRANCH  24  27
ENDBRANCH  23  24
ENDBRANCH   1  23
TORSDOF 5
ENDMDL
