MODEL 1
REMARK VINA RESULT:      -7.7      0.000      0.000
REMARK  Name = 
REMARK  7 active torsions:
REMARK  status: ('A' for Active; 'I' for Inactive)
REMARK    1  A    between atoms: N_1  and  C_2
REMARK    2  A    between atoms: C_2  and  C_3
REMARK    3  A    between atoms: C_2  and  C_18
REMARK    4  A    between atoms: C_3  and  C_4
REMARK    5  A    between atoms: C_11  and  C_12
REMARK    6  A    between atoms: C_12  and  C_13
REMARK    7  A    between atoms: C_18  and  C_19
REMARK                            x       y       z     vdW  Elec       q    Type
REMARK                         _______ _______ _______ _____ _____    ______ ____
ROOT
ATOM      1  C   UNL     1       4.072   3.519  17.778  0.00  0.00    +0.000 C 
ATOM      2  O   UNL     1       4.261   2.476  17.153  0.00  0.00    +0.000 OA
ATOM      3  N   UNL     1       3.020   3.643  18.702  0.00  0.00    +0.000 N 
ATOM      4  C   UNL     1       2.169   2.440  18.788  0.00  0.00    +0.000 C 
ATOM      5  C   UNL     1       1.516   2.287  20.162  0.00  0.00    +0.000 C 
ATOM      6  N   UNL     1       0.617   3.412  20.436  0.00  0.00    +0.000 NA
ATOM      7  C   UNL     1       1.376   4.666  20.390  0.00  0.00    +0.000 C 
ATOM      8  C   UNL     1       2.294   4.895  19.127  0.00  0.00    +0.000 C 
ATOM      9  H   UNL     1       0.223   3.299  21.371  0.00  0.00    +0.000 HD
ENDROOT
BRANCH   1  10
ATOM     10  C   UNL     1       5.037   4.678  17.610  0.00  0.00    +0.000 C 
BRANCH  10  11
ATOM     11  C   UNL     1       6.380   4.355  16.928  0.00  0.00    +0.000 C 
BRANCH  11  12
ATOM     12  N   UNL     1       7.446   4.454  17.956  0.00  0.00    +0.000 NA
ATOM     13  H   UNL     1       8.157   5.118  17.653  0.00  0.00    +0.000 HD
ATOM     14  H   UNL     1       7.913   3.557  18.066  0.00  0.00    +0.000 HD
ENDBRANCH  11  12
BRANCH  11  15
ATOM     15  C   UNL     1       6.696   5.320  15.760  0.00  0.00    +0.000 C 
BRANCH  15  16
ATOM     16  C   UNL     1       6.546   4.707  14.383  0.00  0.00    +0.000 A 
ATOM     17  C   UNL     1       5.461   3.867  14.086  0.00  0.00    +0.000 A 
ATOM     18  C   UNL     1       5.324   3.310  12.810  0.00  0.00    +0.000 A 
ATOM     19  C   UNL     1       6.265   3.584  11.818  0.00  0.00    +0.000 A 
ATOM     20  C   UNL     1       7.352   4.406  12.105  0.00  0.00    +0.000 A 
ATOM     21  C   UNL     1       7.488   4.953  13.380  0.00  0.00    +0.000 A 
ATOM     22  F   UNL     1       8.554   5.724  13.631  0.00  0.00    +0.000 F 
ENDBRANCH  15  16
ENDBRANCH  11  15
ENDBRANCH  10  11
ENDBRANCH   1  10
BRANCH   8  23
ATOM     23  C   UNL     1       3.081   6.194  19.400  0.00  0.00    +0.000 C 
BRANCH  23  24
ATOM     24  C   UNL     1       2.362   7.493  19.179  0.00  0.00    +0.000 A 
ATOM     25  C   UNL     1       1.641   8.257  20.084  0.00  0.00    +0.000 A 
ATOM     26  S   UNL     1       1.037   9.669  19.335  0.00  0.00    +0.000 S 
ATOM     27  C   UNL     1       1.768   9.174  17.868  0.00  0.00    +0.000 A 
ATOM     28  N   UNL     1       2.426   8.042  17.906  0.00  0.00    +0.000 NA
ENDBRANCH  23  24
ENDBRANCH   8  23
TORSDOF 7
ENDMDL
MODEL 2
REMARK VINA RESULT:      -7.6      1.847      2.288
REMARK  Name = 
REMARK  7 active torsions:
REMARK  status: ('A' for Active; 'I' for Inactive)
REMARK    1  A    between atoms: N_1  and  C_2
REMARK    2  A    between atoms: C_2  and  C_3
REMARK    3  A    between atoms: C_2  and  C_18
REMARK    4  A    between atoms: C_3  and  C_4
REMARK    5  A    between atoms: C_11  and  C_12
REMARK    6  A    between atoms: C_12  and  C_13
REMARK    7  A    between atoms: C_18  and  C_19
REMARK                            x       y       z     vdW  Elec       q    Type
REMARK                         _______ _______ _______ _____ _____    ______ ____
ROOT
ATOM      1  C   UNL     1       4.760   3.912  19.337  0.00  0.00    +0.000 C 
ATOM      2  O   UNL     1       5.328   2.897  18.934  0.00  0.00    +0.000 OA
ATOM      3  N   UNL     1       3.401   3.901  19.700  0.00  0.00    +0.000 N 
ATOM      4  C   UNL     1       2.748   2.593  19.493  0.00  0.00    +0.000 C 
ATOM      5  C   UNL     1       1.580   2.370  20.451  0.00  0.00    +0.000 C 
ATOM      6  N   UNL     1       0.526   3.363  20.224  0.00  0.00    +0.000 NA
ATOM      7  C   UNL     1       1.073   4.708  20.424  0.00  0.00    +0.000 C 
ATOM      8  C   UNL     1       2.420   5.046  19.675  0.00  0.00    +0.000 C 
ATOM      9  H   UNL     1      -0.224   3.209  20.900  0.00  0.00    +0.000 HD
ENDROOT
BRANCH   1  10
ATOM     10  C   UNL     1       5.556   5.190  19.524  0.00  0.00    +0.000 C 
BRANCH  10  11
ATOM     11  C   UNL     1       7.063   5.107  19.220  0.00  0.00    +0.000 C 
BRANCH  11  12
ATOM     12  N   UNL     1       7.794   5.605  20.411  0.00  0.00    +0.000 NA
ATOM     13  H   UNL     1       8.789   5.411  20.313  0.00  0.00    +0.000 HD
ATOM     14  H   UNL     1       7.483   5.113  21.247  0.00  0.00    +0.000 HD
ENDBRANCH  11  12
BRANCH  11  15
ATOM     15  C   UNL     1       7.462   5.945  17.981  0.00  0.00    +0.000 C 
BRANCH  15  16
ATOM     16  C   UNL     1       6.790   5.517  16.693  0.00  0.00    +0.000 A 
ATOM     17  C   UNL     1       7.251   4.399  15.980  0.00  0.00    +0.000 A 
ATOM     18  C   UNL     1       6.622   4.004  14.795  0.00  0.00    +0.000 A 
ATOM     19  C   UNL     1       5.526   4.717  14.309  0.00  0.00    +0.000 A 
ATOM     20  C   UNL     1       5.068   5.835  15.002  0.00  0.00    +0.000 A 
ATOM     21  C   UNL     1       5.703   6.229  16.178  0.00  0.00    +0.000 A 
ATOM     22  F   UNL     1       5.251   7.319  16.811  0.00  0.00    +0.000 F 
ENDBRANCH  15  16
ENDBRANCH  11  15
ENDBRANCH  10  11
ENDBRANCH   1  10
BRANCH   8  23
ATOM     23  C   UNL     1       2.846   6.444  20.168  0.00  0.00    +0.000 C 
BRANCH  23  24
ATOM     24  C   UNL     1       2.209   7.632  19.507  0.00  0.00    +0.000 A 
ATOM     25  C   UNL     1       2.255   8.020  18.176  0.00  0.00    +0.000 A 
ATOM     26  S   UNL     1       1.338   9.441  17.929  0.00  0.00    +0.000 S 
ATOM     27  C   UNL     1       0.945   9.446  19.596  0.00  0.00    +0.000 A 
ATOM     28  N   UNL     1       1.444   8.467  20.309  0.00  0.00    +0.000 NA
ENDBRANCH  23  24
ENDBRANCH   8  23
TORSDOF 7
ENDMDL
MODEL 3
REMARK VINA RESULT:      -7.5      1.989      2.350
REMARK  Name = 
REMARK  7 active torsions:
REMARK  status: ('A' for Active; 'I' for Inactive)
REMARK    1  A    between atoms: N_1  and  C_2
REMARK    2  A    between atoms: C_2  and  C_3
REMARK    3  A    between atoms: C_2  and  C_18
REMARK    4  A    between atoms: C_3  and  C_4
REMARK    5  A    between atoms: C_11  and  C_12
REMARK    6  A    between atoms: C_12  and  C_13
REMARK    7  A    between atoms: C_18  and  C_19
REMARK                            x       y       z     vdW  Elec       q    Type
REMARK                         _______ _______ _______ _____ _____    ______ ____
ROOT
ATOM      1  C   UNL     1       4.806   3.823  19.422  0.00  0.00    +0.000 C 
ATOM      2  O   UNL     1       5.308   2.793  19.870  0.00  0.00    +0.000 OA
ATOM      3  N   UNL     1       3.498   3.842  18.907  0.00  0.00    +0.000 N 
ATOM      4  C   UNL     1       2.844   2.518  18.915  0.00  0.00    +0.000 C 
ATOM      5  C   UNL     1       1.323   2.623  19.021  0.00  0.00    +0.000 C 
ATOM      6  N   UNL     1       0.769   3.315  17.853  0.00  0.00    +0.000 NA
ATOM      7  C   UNL     1       1.348   4.659  17.764  0.00  0.00    +0.000 C 
ATOM      8  C   UNL     1       2.919   4.765  17.864  0.00  0.00    +0.000 C 
ATOM      9  H   UNL     1      -0.242   3.399  17.968  0.00  0.00    +0.000 HD
ENDROOT
BRANCH   1  10
ATOM     10  C   UNL     1       5.582   5.125  19.493  0.00  0.00    +0.000 C 
BRANCH  10  11
ATOM     11  C   UNL     1       7.101   5.029  19.254  0.00  0.00    +0.000 C 
BRANCH  11  12
ATOM     12  N   UNL     1       7.783   5.577  20.452  0.00  0.00    +0.000 NA
ATOM     13  H   UNL     1       7.910   6.582  20.349  0.00  0.00    +0.000 HD
ATOM     14  H   UNL     1       8.714   5.174  20.542  0.00  0.00    +0.000 HD
ENDBRANCH  11  12
BRANCH  11  15
ATOM     15  C   UNL     1       7.551   5.814  17.998  0.00  0.00    +0.000 C 
BRANCH  15  16
ATOM     16  C   UNL     1       6.845   5.410  16.720  0.00  0.00    +0.000 A 
ATOM     17  C   UNL     1       7.040   4.135  16.166  0.00  0.00    +0.000 A 
ATOM     18  C   UNL     1       6.380   3.764  14.990  0.00  0.00    +0.000 A 
ATOM     19  C   UNL     1       5.519   4.658  14.355  0.00  0.00    +0.000 A 
ATOM     20  C   UNL     1       5.327   5.930  14.889  0.00  0.00    +0.000 A 
ATOM     21  C   UNL     1       5.993   6.297  16.058  0.00  0.00    +0.000 A 
ATOM     22  F   UNL     1       5.804   7.534  16.536  0.00  0.00    +0.000 F 
ENDBRANCH  15  16
ENDBRANCH  11  15
ENDBRANCH  10  11
ENDBRANCH   1  10
BRANCH   8  23
ATOM     23  C   UNL     1       3.246   6.272  17.893  0.00  0.00    +0.000 C 
BRANCH  23  24
ATOM     24  C   UNL     1       2.487   7.123  18.870  0.00  0.00    +0.000 A 
ATOM     25  C   UNL     1       2.180   6.866  20.197  0.00  0.00    +0.000 A 
ATOM     26  S   UNL     1       1.314   8.171  20.880  0.00  0.00    +0.000 S 
ATOM     27  C   UNL     1       1.404   8.985  19.376  0.00  0.00    +0.000 A 
ATOM     28  N   UNL     1       2.033   8.353  18.416  0.00  0.00    +0.000 NA
ENDBRANCH  23  24
ENDBRANCH   8  23
TORSDOF 7
ENDMDL
MODEL 4
REMARK VINA RESULT:      -7.4      1.170      1.591
REMARK  Name = 
REMARK  7 active torsions:
REMARK  status: ('A' for Active; 'I' for Inactive)
REMARK    1  A    between atoms: N_1  and  C_2
REMARK    2  A    between atoms: C_2  and  C_3
REMARK    3  A    between atoms: C_2  and  C_18
REMARK    4  A    between atoms: C_3  and  C_4
REMARK    5  A    between atoms: C_11  and  C_12
REMARK    6  A    between atoms: C_12  and  C_13
REMARK    7  A    between atoms: C_18  and  C_19
REMARK                            x       y       z     vdW  Elec       q    Type
REMARK                         _______ _______ _______ _____ _____    ______ ____
ROOT
ATOM      1  C   UNL     1       4.192   3.469  18.143  0.00  0.00    +0.000 C 
ATOM      2  O   UNL     1       4.443   2.409  17.570  0.00  0.00    +0.000 OA
ATOM      3  N   UNL     1       3.051   3.617  18.952  0.00  0.00    +0.000 N 
ATOM      4  C   UNL     1       2.194   2.416  18.985  0.00  0.00    +0.000 C 
ATOM      5  C   UNL     1       1.405   2.301  20.288  0.00  0.00    +0.000 C 
ATOM      6  N   UNL     1       0.484   3.432  20.437  0.00  0.00    +0.000 NA
ATOM      7  C   UNL     1       1.245   4.685  20.433  0.00  0.00    +0.000 C 
ATOM      8  C   UNL     1       2.288   4.880  19.265  0.00  0.00    +0.000 C 
ATOM      9  H   UNL     1      -0.003   3.345  21.330  0.00  0.00    +0.000 HD
ENDROOT
BRANCH   1  10
ATOM     10  C   UNL     1       5.171   4.624  18.042  0.00  0.00    +0.000 C 
BRANCH  10  11
ATOM     11  C   UNL     1       6.393   4.406  17.129  0.00  0.00    +0.000 C 
BRANCH  11  12
ATOM     12  N   UNL     1       7.605   4.419  17.984  0.00  0.00    +0.000 NA
ATOM     13  H   UNL     1       8.019   5.350  17.984  0.00  0.00    +0.000 HD
ATOM     14  H   UNL     1       8.309   3.788  17.605  0.00  0.00    +0.000 HD
ENDBRANCH  11  12
BRANCH  11  15
ATOM     15  C   UNL     1       6.516   5.498  16.039  0.00  0.00    +0.000 C 
BRANCH  15  16
ATOM     16  C   UNL     1       6.613   4.964  14.625  0.00  0.00    +0.000 A 
ATOM     17  C   UNL     1       7.687   5.324  13.794  0.00  0.00    +0.000 A 
ATOM     18  C   UNL     1       7.776   4.821  12.492  0.00  0.00    +0.000 A 
ATOM     19  C   UNL     1       6.797   3.955  12.004  0.00  0.00    +0.000 A 
ATOM     20  C   UNL     1       5.722   3.601  12.815  0.00  0.00    +0.000 A 
ATOM     21  C   UNL     1       5.634   4.110  14.110  0.00  0.00    +0.000 A 
ATOM     22  F   UNL     1       4.578   3.767  14.858  0.00  0.00    +0.000 F 
ENDBRANCH  15  16
ENDBRANCH  11  15
ENDBRANCH  10  11
ENDBRANCH   1  10
BRANCH   8  23
ATOM     23  C   UNL     1       3.044   6.187  19.579  0.00  0.00    +0.000 C 
BRANCH  23  24
ATOM     24  C   UNL     1       2.366   7.478  19.221  0.00  0.00    +0.000 A 
ATOM     25  C   UNL     1       2.317   8.129  17.998  0.00  0.00    +0.000 A 
ATOM     26  S   UNL     1       1.391   9.561  18.113  0.00  0.00    +0.000 S 
ATOM     27  C   UNL     1       1.121   9.223  19.770  0.00  0.00    +0.000 A 
ATOM     28  N   UNL     1       1.666   8.125  20.230  0.00  0.00    +0.000 NA
ENDBRANCH  23  24
ENDBRANCH   8  23
TORSDOF 7
ENDMDL
MODEL 5
REMARK VINA RESULT:      -7.2      0.968      1.093
REMARK  Name = 
REMARK  7 active torsions:
REMARK  status: ('A' for Active; 'I' for Inactive)
REMARK    1  A    between atoms: N_1  and  C_2
REMARK    2  A    between atoms: C_2  and  C_3
REMARK    3  A    between atoms: C_2  and  C_18
REMARK    4  A    between atoms: C_3  and  C_4
REMARK    5  A    between atoms: C_11  and  C_12
REMARK    6  A    between atoms: C_12  and  C_13
REMARK    7  A    between atoms: C_18  and  C_19
REMARK                            x       y       z     vdW  Elec       q    Type
REMARK                         _______ _______ _______ _____ _____    ______ ____
ROOT
ATOM      1  C   UNL     1       3.199   3.363  17.662  0.00  0.00    +0.000 C 
ATOM      2  O   UNL     1       3.037   2.308  17.048  0.00  0.00    +0.000 OA
ATOM      3  N   UNL     1       2.716   3.535  18.971  0.00  0.00    +0.000 N 
ATOM      4  C   UNL     1       1.971   2.366  19.480  0.00  0.00    +0.000 C 
ATOM      5  C   UNL     1       2.044   2.250  21.002  0.00  0.00    +0.000 C 
ATOM      6  N   UNL     1       1.417   3.411  21.641  0.00  0.00    +0.000 NA
ATOM      7  C   UNL     1       2.102   4.633  21.210  0.00  0.00    +0.000 C 
ATOM      8  C   UNL     1       2.317   4.817  19.657  0.00  0.00    +0.000 C 
ATOM      9  H   UNL     1       1.511   3.321  22.654  0.00  0.00    +0.000 HD
ENDROOT
BRANCH   1  10
ATOM     10  C   UNL     1       4.004   4.482  17.028  0.00  0.00    +0.000 C 
BRANCH  10  11
ATOM     11  C   UNL     1       5.434   4.125  16.578  0.00  0.00    +0.000 C 
BRANCH  11  12
ATOM     12  N   UNL     1       6.301   4.126  17.782  0.00  0.00    +0.000 NA
ATOM     13  H   UNL     1       6.692   5.055  17.926  0.00  0.00    +0.000 HD
ATOM     14  H   UNL     1       7.090   3.496  17.648  0.00  0.00    +0.000 HD
ENDBRANCH  11  12
BRANCH  11  15
ATOM     15  C   UNL     1       5.992   5.125  15.537  0.00  0.00    +0.000 C 
BRANCH  15  16
ATOM     16  C   UNL     1       6.175   4.549  14.149  0.00  0.00    +0.000 A 
ATOM     17  C   UNL     1       5.213   3.687  13.597  0.00  0.00    +0.000 A 
ATOM     18  C   UNL     1       5.383   3.163  12.312  0.00  0.00    +0.000 A 
ATOM     19  C   UNL     1       6.513   3.493  11.562  0.00  0.00    +0.000 A 
ATOM     20  C   UNL     1       7.480   4.336  12.104  0.00  0.00    +0.000 A 
ATOM     21  C   UNL     1       7.309   4.850  13.389  0.00  0.00    +0.000 A 
ATOM     22  F   UNL     1       8.265   5.642  13.890  0.00  0.00    +0.000 F 
ENDBRANCH  15  16
ENDBRANCH  11  15
ENDBRANCH  10  11
ENDBRANCH   1  10
BRANCH   8  23
ATOM     23  C   UNL     1       3.178   6.087  19.492  0.00  0.00    +0.000 C 
BRANCH  23  24
ATOM     24  C   UNL     1       2.463   7.367  19.170  0.00  0.00    +0.000 A 
ATOM     25  C   UNL     1       2.370   8.035  17.958  0.00  0.00    +0.000 A 
ATOM     26  S   UNL     1       1.415   9.443  18.116  0.00  0.00    +0.000 S 
ATOM     27  C   UNL     1       1.192   9.074  19.774  0.00  0.00    +0.000 A 
ATOM     28  N   UNL     1       1.773   7.982  20.205  0.00  0.00    +0.000 NA
ENDBRANCH  23  24
ENDBRANCH   8  23
TORSDOF 7
ENDMDL
MODEL 6
REMARK VINA RESULT:      -7.2      3.454      6.919
REMARK  Name = 
REMARK  7 active torsions:
REMARK  status: ('A' for Active; 'I' for Inactive)
REMARK    1  A    between atoms: N_1  and  C_2
REMARK    2  A    between atoms: C_2  and  C_3
REMARK    3  A    between atoms: C_2  and  C_18
REMARK    4  A    between atoms: C_3  and  C_4
REMARK    5  A    between atoms: C_11  and  C_12
REMARK    6  A    between atoms: C_12  and  C_13
REMARK    7  A    between atoms: C_18  and  C_19
REMARK                            x       y       z     vdW  Elec       q    Type
REMARK                         _______ _______ _______ _____ _____    ______ ____
ROOT
ATOM      1  C   UNL     1       5.126   3.952  18.659  0.00  0.00    +0.000 C 
ATOM      2  O   UNL     1       5.219   3.301  19.700  0.00  0.00    +0.000 OA
ATOM      3  N   UNL     1       5.977   5.039  18.390  0.00  0.00    +0.000 N 
ATOM      4  C   UNL     1       6.920   5.331  19.488  0.00  0.00    +0.000 C 
ATOM      5  C   UNL     1       8.210   5.980  18.987  0.00  0.00    +0.000 C 
ATOM      6  N   UNL     1       7.929   7.279  18.368  0.00  0.00    +0.000 NA
ATOM      7  C   UNL     1       7.005   7.095  17.245  0.00  0.00    +0.000 C 
ATOM      8  C   UNL     1       5.706   6.244  17.526  0.00  0.00    +0.000 C 
ATOM      9  H   UNL     1       8.803   7.672  18.015  0.00  0.00    +0.000 HD
ENDROOT
BRANCH   1  10
ATOM     10  C   UNL     1       4.123   3.531  17.600  0.00  0.00    +0.000 C 
BRANCH  10  11
ATOM     11  C   UNL     1       2.720   3.143  18.104  0.00  0.00    +0.000 C 
BRANCH  11  12
ATOM     12  N   UNL     1       2.334   1.875  17.439  0.00  0.00    +0.000 NA
ATOM     13  H   UNL     1       1.333   1.874  17.249  0.00  0.00    +0.000 HD
ATOM     14  H   UNL     1       2.514   1.084  18.055  0.00  0.00    +0.000 HD
ENDBRANCH  11  12
BRANCH  11  15
ATOM     15  C   UNL     1       1.663   4.231  17.799  0.00  0.00    +0.000 C 
BRANCH  15  16
ATOM     16  C   UNL     1       1.770   5.470  18.664  0.00  0.00    +0.000 A 
ATOM     17  C   UNL     1       2.138   6.705  18.105  0.00  0.00    +0.000 A 
ATOM     18  C   UNL     1       2.228   7.847  18.906  0.00  0.00    +0.000 A 
ATOM     19  C   UNL     1       1.953   7.772  20.272  0.00  0.00    +0.000 A 
ATOM     20  C   UNL     1       1.599   6.550  20.839  0.00  0.00    +0.000 A 
ATOM     21  C   UNL     1       1.517   5.413  20.037  0.00  0.00    +0.000 A 
ATOM     22  F   UNL     1       1.194   4.249  20.615  0.00  0.00    +0.000 F 
ENDBRANCH  15  16
ENDBRANCH  11  15
ENDBRANCH  10  11
ENDBRANCH   1  10
BRANCH   8  23
ATOM     23  C   UNL     1       4.999   6.081  16.165  0.00  0.00    +0.000 C 
BRANCH  23  24
ATOM     24  C   UNL     1       5.721   5.305  15.102  0.00  0.00    +0.000 A 
ATOM     25  C   UNL     1       5.237   4.312  14.264  0.00  0.00    +0.000 A 
ATOM     26  S   UNL     1       6.463   3.761  13.209  0.00  0.00    +0.000 S 
ATOM     27  C   UNL     1       7.549   4.870  13.933  0.00  0.00    +0.000 A 
ATOM     28  N   UNL     1       7.058   5.614  14.893  0.00  0.00    +0.000 NA
ENDBRANCH  23  24
ENDBRANCH   8  23
TORSDOF 7
ENDMDL
MODEL 7
REMARK VINA RESULT:      -7.0      4.103      7.137
REMARK  Name = 
REMARK  7 active torsions:
REMARK  status: ('A' for Active; 'I' for Inactive)
REMARK    1  A    between atoms: N_1  and  C_2
REMARK    2  A    between atoms: C_2  and  C_3
REMARK    3  A    between atoms: C_2  and  C_18
REMARK    4  A    between atoms: C_3  and  C_4
REMARK    5  A    between atoms: C_11  and  C_12
REMARK    6  A    between atoms: C_12  and  C_13
REMARK    7  A    between atoms: C_18  and  C_19
REMARK                            x       y       z     vdW  Elec       q    Type
REMARK                         _______ _______ _______ _____ _____    ______ ____
ROOT
ATOM      1  C   UNL     1       2.015   5.981  19.877  0.00  0.00    +0.000 C 
ATOM      2  O   UNL     1       1.352   6.126  20.904  0.00  0.00    +0.000 OA
ATOM      3  N   UNL     1       2.070   4.748  19.203  0.00  0.00    +0.000 N 
ATOM      4  C   UNL     1       1.314   3.676  19.878  0.00  0.00    +0.000 C 
ATOM      5  C   UNL     1       0.809   2.617  18.899  0.00  0.00    +0.000 C 
ATOM      6  N   UNL     1       1.931   1.939  18.244  0.00  0.00    +0.000 NA
ATOM      7  C   UNL     1       2.743   2.925  17.524  0.00  0.00    +0.000 C 
ATOM      8  C   UNL     1       3.176   4.213  18.327  0.00  0.00    +0.000 C 
ATOM      9  H   UNL     1       1.563   1.263  17.573  0.00  0.00    +0.000 HD
ENDROOT
BRANCH   1  10
ATOM     10  C   UNL     1       2.732   7.176  19.275  0.00  0.00    +0.000 C 
BRANCH  10  11
ATOM     11  C   UNL     1       1.866   8.148  18.452  0.00  0.00    +0.000 C 
BRANCH  11  12
ATOM     12  N   UNL     1       2.679   8.619  17.304  0.00  0.00    +0.000 NA
ATOM     13  H   UNL     1       2.302   9.496  16.949  0.00  0.00    +0.000 HD
ATOM     14  H   UNL     1       2.628   7.949  16.538  0.00  0.00    +0.000 HD
ENDBRANCH  11  12
BRANCH  11  15
ATOM     15  C   UNL     1       1.392   9.365  19.284  0.00  0.00    +0.000 C 
BRANCH  15  16
ATOM     16  C   UNL     1       0.227  10.121  18.681  0.00  0.00    +0.000 A 
ATOM     17  C   UNL     1      -0.677   9.478  17.820  0.00  0.00    +0.000 A 
ATOM     18  C   UNL     1      -1.756  10.179  17.271  0.00  0.00    +0.000 A 
ATOM     19  C   UNL     1      -1.945  11.528  17.575  0.00  0.00    +0.000 A 
ATOM     20  C   UNL     1      -1.048  12.179  18.418  0.00  0.00    +0.000 A 
ATOM     21  C   UNL     1       0.030  11.477  18.956  0.00  0.00    +0.000 A 
ATOM     22  F   UNL     1       0.886  12.135  19.747  0.00  0.00    +0.000 F 
ENDBRANCH  15  16
ENDBRANCH  11  15
ENDBRANCH  10  11
ENDBRANCH   1  10
BRANCH   8  23
ATOM     23  C   UNL     1       3.878   5.136  17.311  0.00  0.00    +0.000 C 
BRANCH  23  24
ATOM     24  C   UNL     1       5.246   5.640  17.669  0.00  0.00    +0.000 A 
ATOM     25  C   UNL     1       6.183   5.088  18.529  0.00  0.00    +0.000 A 
ATOM     26  S   UNL     1       7.600   6.041  18.571  0.00  0.00    +0.000 S 
ATOM     27  C   UNL     1       6.879   7.118  17.451  0.00  0.00    +0.000 A 
ATOM     28  N   UNL     1       5.669   6.810  17.054  0.00  0.00    +0.000 NA
ENDBRANCH  23  24
ENDBRANCH   8  23
TORSDOF 7
ENDMDL
MODEL 8
REMARK VINA RESULT:      -7.0      2.534      3.501
REMARK  Name = 
REMARK  7 active torsions:
REMARK  status: ('A' for Active; 'I' for Inactive)
REMARK    1  A    between atoms: N_1  and  C_2
REMARK    2  A    between atoms: C_2  and  C_3
REMARK    3  A    between atoms: C_2  and  C_18
REMARK    4  A    between atoms: C_3  and  C_4
REMARK    5  A    between atoms: C_11  and  C_12
REMARK    6  A    between atoms: C_12  and  C_13
REMARK    7  A    between atoms: C_18  and  C_19
REMARK                            x       y       z     vdW  Elec       q    Type
REMARK                         _______ _______ _______ _____ _____    ______ ____
ROOT
ATOM      1  C   UNL     1       2.958   3.583  17.486  0.00  0.00    +0.000 C 
ATOM      2  O   UNL     1       2.761   2.603  16.769  0.00  0.00    +0.000 OA
ATOM      3  N   UNL     1       2.478   3.638  18.807  0.00  0.00    +0.000 N 
ATOM      4  C   UNL     1       1.691   2.452  19.196  0.00  0.00    +0.000 C 
ATOM      5  C   UNL     1       1.756   2.179  20.698  0.00  0.00    +0.000 C 
ATOM      6  N   UNL     1       1.169   3.290  21.452  0.00  0.00    +0.000 NA
ATOM      7  C   UNL     1       1.898   4.525  21.147  0.00  0.00    +0.000 C 
ATOM      8  C   UNL     1       2.124   4.858  19.621  0.00  0.00    +0.000 C 
ATOM      9  H   UNL     1       1.257   3.094  22.450  0.00  0.00    +0.000 HD
ENDROOT
BRANCH   1  10
ATOM     10  C   UNL     1       3.804   4.732  16.968  0.00  0.00    +0.000 C 
BRANCH  10  11
ATOM     11  C   UNL     1       5.298   4.431  16.742  0.00  0.00    +0.000 C 
BRANCH  11  12
ATOM     12  N   UNL     1       5.417   3.014  16.322  0.00  0.00    +0.000 NA
ATOM     13  H   UNL     1       4.717   2.803  15.613  0.00  0.00    +0.000 HD
ATOM     14  H   UNL     1       5.229   2.396  17.109  0.00  0.00    +0.000 HD
ENDBRANCH  11  12
BRANCH  11  15
ATOM     15  C   UNL     1       6.147   4.667  18.015  0.00  0.00    +0.000 C 
BRANCH  15  16
ATOM     16  C   UNL     1       6.869   5.998  18.049  0.00  0.00    +0.000 A 
ATOM     17  C   UNL     1       6.553   7.010  17.128  0.00  0.00    +0.000 A 
ATOM     18  C   UNL     1       7.217   8.240  17.168  0.00  0.00    +0.000 A 
ATOM     19  C   UNL     1       8.203   8.475  18.127  0.00  0.00    +0.000 A 
ATOM     20  C   UNL     1       8.534   7.474  19.037  0.00  0.00    +0.000 A 
ATOM     21  C   UNL     1       7.873   6.247  18.988  0.00  0.00    +0.000 A 
ATOM     22  F   UNL     1       8.227   5.299  19.864  0.00  0.00    +0.000 F 
ENDBRANCH  15  16
ENDBRANCH  11  15
ENDBRANCH  10  11
ENDBRANCH   1  10
BRANCH   8  23
ATOM     23  C   UNL     1       3.029   6.106  19.584  0.00  0.00    +0.000 C 
BRANCH  23  24
ATOM     24  C   UNL     1       2.380   7.419  19.257  0.00  0.00    +0.000 A 
ATOM     25  C   UNL     1       1.623   8.246  20.073  0.00  0.00    +0.000 A 
ATOM     26  S   UNL     1       1.130   9.646  19.225  0.00  0.00    +0.000 S 
ATOM     27  C   UNL     1       1.949   9.062  17.838  0.00  0.00    +0.000 A 
ATOM     28  N   UNL     1       2.558   7.910  17.971  0.00  0.00    +0.000 NA
ENDBRANCH  23  24
ENDBRANCH   8  23
TORSDOF 7
ENDMDL
MODEL 9
REMARK VINA RESULT:      -7.0      1.498      1.892
REMARK  Name = 
REMARK  7 active torsions:
REMARK  status: ('A' for Active; 'I' for Inactive)
REMARK    1  A    between atoms: N_1  and  C_2
REMARK    2  A    between atoms: C_2  and  C_3
REMARK    3  A    between atoms: C_2  and  C_18
REMARK    4  A    between atoms: C_3  and  C_4
REMARK    5  A    between atoms: C_11  and  C_12
REMARK    6  A    between atoms: C_12  and  C_13
REMARK    7  A    between atoms: C_18  and  C_19
REMARK                            x       y       z     vdW  Elec       q    Type
REMARK                         _______ _______ _______ _____ _____    ______ ____
ROOT
ATOM      1  C   UNL     1       4.707   3.799  19.324  0.00  0.00    +0.000 C 
ATOM      2  O   UNL     1       5.208   2.727  18.987  0.00  0.00    +0.000 OA
ATOM      3  N   UNL     1       3.362   3.889  19.725  0.00  0.00    +0.000 N 
ATOM      4  C   UNL     1       2.636   2.607  19.641  0.00  0.00    +0.000 C 
ATOM      5  C   UNL     1       1.490   2.521  20.647  0.00  0.00    +0.000 C 
ATOM      6  N   UNL     1       0.481   3.549  20.373  0.00  0.00    +0.000 NA
ATOM      7  C   UNL     1       1.103   4.875  20.450  0.00  0.00    +0.000 C 
ATOM      8  C   UNL     1       2.440   5.081  19.638  0.00  0.00    +0.000 C 
ATOM      9  H   UNL     1      -0.253   3.488  21.079  0.00  0.00    +0.000 HD
ENDROOT
BRANCH   1  10
ATOM     10  C   UNL     1       5.573   5.044  19.387  0.00  0.00    +0.000 C 
BRANCH  10  11
ATOM     11  C   UNL     1       6.756   5.103  18.403  0.00  0.00    +0.000 C 
BRANCH  11  12
ATOM     12  N   UNL     1       7.941   5.593  19.148  0.00  0.00    +0.000 NA
ATOM     13  H   UNL     1       8.713   4.935  19.043  0.00  0.00    +0.000 HD
ATOM     14  H   UNL     1       7.735   5.643  20.144  0.00  0.00    +0.000 HD
ENDBRANCH  11  12
BRANCH  11  15
ATOM     15  C   UNL     1       6.478   6.037  17.200  0.00  0.00    +0.000 C 
BRANCH  15  16
ATOM     16  C   UNL     1       6.406   5.332  15.862  0.00  0.00    +0.000 A 
ATOM     17  C   UNL     1       7.470   5.415  14.950  0.00  0.00    +0.000 A 
ATOM     18  C   UNL     1       7.403   4.756  13.718  0.00  0.00    +0.000 A 
ATOM     19  C   UNL     1       6.275   4.006  13.383  0.00  0.00    +0.000 A 
ATOM     20  C   UNL     1       5.208   3.927  14.275  0.00  0.00    +0.000 A 
ATOM     21  C   UNL     1       5.278   4.592  15.498  0.00  0.00    +0.000 A 
ATOM     22  F   UNL     1       4.229   4.513  16.327  0.00  0.00    +0.000 F 
ENDBRANCH  15  16
ENDBRANCH  11  15
ENDBRANCH  10  11
ENDBRANCH   1  10
BRANCH   8  23
ATOM     23  C   UNL     1       2.953   6.488  20.007  0.00  0.00    +0.000 C 
BRANCH  23  24
ATOM     24  C   UNL     1       2.176   7.662  19.487  0.00  0.00    +0.000 A 
ATOM     25  C   UNL     1       1.372   8.553  20.180  0.00  0.00    +0.000 A 
ATOM     26  S   UNL     1       0.728   9.733  19.125  0.00  0.00    +0.000 S 
ATOM     27  C   UNL     1       1.555   8.985  17.825  0.00  0.00    +0.000 A 
ATOM     28  N   UNL     1       2.271   7.931  18.128  0.00  0.00    +0.000 NA
ENDBRANCH  23  24
ENDBRANCH   8  23
TORSDOF 7
ENDMDL
