MODEL 1
REMARK VINA RESULT:      -7.4      0.000      0.000
REMARK  Name = 
REMARK  15 active torsions:
REMARK  status: ('A' for Active; 'I' for Inactive)
REMARK    1  A    between atoms: C_1  and  C_2
REMARK    2  A    between atoms: C_2  and  C_3
REMARK    3  A    between atoms: C_3  and  N_4
REMARK    4  A    between atoms: N_4  and  C_5
REMARK    5  A    between atoms: N_4  and  C_8
REMARK    6  A    between atoms: C_5  and  C_6
REMARK    7  A    between atoms: C_6  and  C_7
REMARK    8  A    between atoms: C_9  and  C_10
REMARK    9  A    between atoms: C_12  and  C_13
REMARK   10  A    between atoms: C_14  and  C_15
REMARK   11  A    between atoms: C_17  and  C_18
REMARK   12  A    between atoms: C_20  and  O_21
REMARK   13  A    between atoms: O_21  and  C_22
REMARK   14  A    between atoms: C_22  and  C_23
REMARK   15  A    between atoms: C_23  and  N_24
REMARK                            x       y       z     vdW  Elec       q    Type
REMARK                         _______ _______ _______ _____ _____    ______ ____
ROOT
ATOM      1  C   UNL     1       4.940   5.319  16.877  0.00  0.00    +0.000 A 
ATOM      2  C   UNL     1       4.940   6.680  17.221  0.00  0.00    +0.000 A 
ATOM      3  C   UNL     1       5.814   7.739  16.616  0.00  0.00    +0.000 C 
ATOM      4  N   UNL     1       4.068   7.210  18.099  0.00  0.00    +0.000 NA
ATOM      5  C   UNL     1       2.930   6.559  18.421  0.00  0.00    +0.000 A 
ATOM      6  C   UNL     1       2.687   5.259  17.932  0.00  0.00    +0.000 A 
ATOM      7  C   UNL     1       1.457   4.567  18.108  0.00  0.00    +0.000 A 
ATOM      8  C   UNL     1       1.347   3.191  17.927  0.00  0.00    +0.000 A 
ATOM      9  C   UNL     1       2.469   2.477  17.558  0.00  0.00    +0.000 A 
ATOM     10  C   UNL     1       3.654   3.162  17.274  0.00  0.00    +0.000 A 
ATOM     11  C   UNL     1       3.780   4.581  17.340  0.00  0.00    +0.000 A 
ENDROOT
BRANCH   5  12
ATOM     12  C   UNL     1       2.093   7.331  19.402  0.00  0.00    +0.000 A 
ATOM     13  C   UNL     1       1.686   6.720  20.637  0.00  0.00    +0.000 A 
ATOM     14  C   UNL     1       1.913   5.268  20.997  0.00  0.00    +0.000 C 
ATOM     15  C   UNL     1       0.943   7.440  21.598  0.00  0.00    +0.000 A 
ATOM     16  C   UNL     1       0.596   8.769  21.406  0.00  0.00    +0.000 A 
ATOM     17  C   UNL     1      -0.119   9.536  22.474  0.00  0.00    +0.000 C 
ATOM     18  C   UNL     1       0.943   9.368  20.198  0.00  0.00    +0.000 A 
ATOM     19  C   UNL     1       1.630   8.659  19.186  0.00  0.00    +0.000 A 
BRANCH  19  20
ATOM     20  O   UNL     1       1.803   9.455  18.077  0.00  0.00    +0.000 OA
BRANCH  20  21
ATOM     21  C   UNL     1       1.233  10.761  18.051  0.00  0.00    +0.000 C 
BRANCH  21  22
ATOM     22  C   UNL     1       2.242  11.887  18.235  0.00  0.00    +0.000 C 
BRANCH  22  23
ATOM     23  N   UNL     1       1.716  13.248  18.422  0.00  0.00    +0.000 NA
ATOM     24  C   UNL     1       2.748  14.234  18.027  0.00  0.00    +0.000 C 
ATOM     25  C   UNL     1       3.892  14.366  19.047  0.00  0.00    +0.000 C 
ATOM     26  O   UNL     1       3.399  14.688  20.351  0.00  0.00    +0.000 OA
ATOM     27  C   UNL     1       2.451  13.708  20.800  0.00  0.00    +0.000 C 
ATOM     28  C   UNL     1       1.291  13.553  19.803  0.00  0.00    +0.000 C 
ENDBRANCH  22  23
ENDBRANCH  21  22
ENDBRANCH  20  21
ENDBRANCH  19  20
ENDBRANCH   5  12
BRANCH   1  29
ATOM     29  N   UNL     1       5.949   4.719  16.098  0.00  0.00    +0.000 N 
BRANCH  29  30
ATOM     30  C   UNL     1       7.363   4.620  16.512  0.00  0.00    +0.000 C 
BRANCH  30  32
ATOM     31  C   UNL     1       7.996   5.743  18.729  0.00  0.00    +0.000 C 
ATOM     32  C   UNL     1       7.648   4.456  18.011  0.00  0.00    +0.000 C 
ENDBRANCH  30  32
ENDBRANCH  29  30
BRANCH  29  33
ATOM     33  C   UNL     1       5.591   4.287  14.726  0.00  0.00    +0.000 C 
BRANCH  33  34
ATOM     34  C   UNL     1       6.722   4.195  13.701  0.00  0.00    +0.000 C 
ATOM     35  C   UNL     1       6.341   3.493  12.411  0.00  0.00    +0.000 C 
ENDBRANCH  33  34
ENDBRANCH  29  33
ENDBRANCH   1  29
TORSDOF 10
ENDMDL
MODEL 2
REMARK VINA RESULT:      -7.4      0.687      2.343
REMARK  Name = 
REMARK  15 active torsions:
REMARK  status: ('A' for Active; 'I' for Inactive)
REMARK    1  A    between atoms: C_1  and  C_2
REMARK    2  A    between atoms: C_2  and  C_3
REMARK    3  A    between atoms: C_3  and  N_4
REMARK    4  A    between atoms: N_4  and  C_5
REMARK    5  A    between atoms: N_4  and  C_8
REMARK    6  A    between atoms: C_5  and  C_6
REMARK    7  A    between atoms: C_6  and  C_7
REMARK    8  A    between atoms: C_9  and  C_10
REMARK    9  A    between atoms: C_12  and  C_13
REMARK   10  A    between atoms: C_14  and  C_15
REMARK   11  A    between atoms: C_17  and  C_18
REMARK   12  A    between atoms: C_20  and  O_21
REMARK   13  A    between atoms: O_21  and  C_22
REMARK   14  A    between atoms: C_22  and  C_23
REMARK   15  A    between atoms: C_23  and  N_24
REMARK                            x       y       z     vdW  Elec       q    Type
REMARK                         _______ _______ _______ _____ _____    ______ ____
ROOT
ATOM      1  C   UNL     1       4.872   5.240  16.800  0.00  0.00    +0.000 A 
ATOM      2  C   UNL     1       4.856   6.609  17.109  0.00  0.00    +0.000 A 
ATOM      3  C   UNL     1       5.685   7.669  16.448  0.00  0.00    +0.000 C 
ATOM      4  N   UNL     1       4.003   7.144  18.004  0.00  0.00    +0.000 NA
ATOM      5  C   UNL     1       2.892   6.478  18.381  0.00  0.00    +0.000 A 
ATOM      6  C   UNL     1       2.658   5.161  17.935  0.00  0.00    +0.000 A 
ATOM      7  C   UNL     1       1.450   4.450  18.171  0.00  0.00    +0.000 A 
ATOM      8  C   UNL     1       1.363   3.068  18.028  0.00  0.00    +0.000 A 
ATOM      9  C   UNL     1       2.486   2.367  17.638  0.00  0.00    +0.000 A 
ATOM     10  C   UNL     1       3.646   3.068  17.296  0.00  0.00    +0.000 A 
ATOM     11  C   UNL     1       3.745   4.491  17.321  0.00  0.00    +0.000 A 
ENDROOT
BRANCH   5  12
ATOM     12  C   UNL     1       2.072   7.258  19.372  0.00  0.00    +0.000 A 
ATOM     13  C   UNL     1       1.706   6.666  20.628  0.00  0.00    +0.000 A 
ATOM     14  C   UNL     1       1.960   5.223  21.007  0.00  0.00    +0.000 C 
ATOM     15  C   UNL     1       0.982   7.394  21.596  0.00  0.00    +0.000 A 
ATOM     16  C   UNL     1       0.614   8.716  21.390  0.00  0.00    +0.000 A 
ATOM     17  C   UNL     1      -0.080   9.494  22.465  0.00  0.00    +0.000 C 
ATOM     18  C   UNL     1       0.922   9.297  20.164  0.00  0.00    +0.000 A 
ATOM     19  C   UNL     1       1.589   8.577  19.145  0.00  0.00    +0.000 A 
BRANCH  19  20
ATOM     20  O   UNL     1       1.723   9.356  18.019  0.00  0.00    +0.000 OA
BRANCH  20  21
ATOM     21  C   UNL     1       1.165  10.667  17.998  0.00  0.00    +0.000 C 
BRANCH  21  22
ATOM     22  C   UNL     1       2.185  11.783  18.190  0.00  0.00    +0.000 C 
BRANCH  22  23
ATOM     23  N   UNL     1       2.084  12.593  19.414  0.00  0.00    +0.000 NA
ATOM     24  C   UNL     1       0.671  12.976  19.635  0.00  0.00    +0.000 C 
ATOM     25  C   UNL     1       0.176  14.074  18.677  0.00  0.00    +0.000 C 
ATOM     26  O   UNL     1       1.003  15.240  18.743  0.00  0.00    +0.000 OA
ATOM     27  C   UNL     1       2.371  14.918  18.457  0.00  0.00    +0.000 C 
ATOM     28  C   UNL     1       2.899  13.824  19.399  0.00  0.00    +0.000 C 
ENDBRANCH  22  23
ENDBRANCH  21  22
ENDBRANCH  20  21
ENDBRANCH  19  20
ENDBRANCH   5  12
BRANCH   1  29
ATOM     29  N   UNL     1       5.866   4.641  16.002  0.00  0.00    +0.000 N 
BRANCH  29  30
ATOM     30  C   UNL     1       5.602   3.988  14.704  0.00  0.00    +0.000 C 
BRANCH  30  32
ATOM     31  C   UNL     1       6.328   3.471  12.299  0.00  0.00    +0.000 C 
ATOM     32  C   UNL     1       6.708   4.056  13.644  0.00  0.00    +0.000 C 
ENDBRANCH  30  32
ENDBRANCH  29  30
BRANCH  29  33
ATOM     33  C   UNL     1       7.233   4.541  16.567  0.00  0.00    +0.000 C 
BRANCH  33  34
ATOM     34  C   UNL     1       7.363   4.482  18.089  0.00  0.00    +0.000 C 
ATOM     35  C   UNL     1       7.839   5.773  18.727  0.00  0.00    +0.000 C 
ENDBRANCH  33  34
ENDBRANCH  29  33
ENDBRANCH   1  29
TORSDOF 10
ENDMDL
MODEL 3
REMARK VINA RESULT:      -7.3      0.498      2.125
REMARK  Name = 
REMARK  15 active torsions:
REMARK  status: ('A' for Active; 'I' for Inactive)
REMARK    1  A    between atoms: C_1  and  C_2
REMARK    2  A    between atoms: C_2  and  C_3
REMARK    3  A    between atoms: C_3  and  N_4
REMARK    4  A    between atoms: N_4  and  C_5
REMARK    5  A    between atoms: N_4  and  C_8
REMARK    6  A    between atoms: C_5  and  C_6
REMARK    7  A    between atoms: C_6  and  C_7
REMARK    8  A    between atoms: C_9  and  C_10
REMARK    9  A    between atoms: C_12  and  C_13
REMARK   10  A    between atoms: C_14  and  C_15
REMARK   11  A    between atoms: C_17  and  C_18
REMARK   12  A    between atoms: C_20  and  O_21
REMARK   13  A    between atoms: O_21  and  C_22
REMARK   14  A    between atoms: C_22  and  C_23
REMARK   15  A    between atoms: C_23  and  N_24
REMARK                            x       y       z     vdW  Elec       q    Type
REMARK                         _______ _______ _______ _____ _____    ______ ____
ROOT
ATOM      1  C   UNL     1       5.238   5.636  16.945  0.00  0.00    +0.000 A 
ATOM      2  C   UNL     1       5.180   6.967  17.386  0.00  0.00    +0.000 A 
ATOM      3  C   UNL     1       6.075   8.082  16.932  0.00  0.00    +0.000 C 
ATOM      4  N   UNL     1       4.230   7.416  18.228  0.00  0.00    +0.000 NA
ATOM      5  C   UNL     1       3.085   6.724  18.408  0.00  0.00    +0.000 A 
ATOM      6  C   UNL     1       2.910   5.460  17.809  0.00  0.00    +0.000 A 
ATOM      7  C   UNL     1       1.686   4.737  17.834  0.00  0.00    +0.000 A 
ATOM      8  C   UNL     1       1.622   3.377  17.546  0.00  0.00    +0.000 A 
ATOM      9  C   UNL     1       2.785   2.710  17.218  0.00  0.00    +0.000 A 
ATOM     10  C   UNL     1       3.973   3.434  17.080  0.00  0.00    +0.000 A 
ATOM     11  C   UNL     1       4.062   4.847  17.259  0.00  0.00    +0.000 A 
ENDROOT
BRANCH   5  12
ATOM     12  C   UNL     1       2.155   7.407  19.373  0.00  0.00    +0.000 A 
ATOM     13  C   UNL     1       1.758   6.742  20.582  0.00  0.00    +0.000 A 
ATOM     14  C   UNL     1       2.089   5.306  20.925  0.00  0.00    +0.000 C 
ATOM     15  C   UNL     1       0.927   7.381  21.528  0.00  0.00    +0.000 A 
ATOM     16  C   UNL     1       0.481   8.682  21.346  0.00  0.00    +0.000 A 
ATOM     17  C   UNL     1      -0.329   9.368  22.402  0.00  0.00    +0.000 C 
ATOM     18  C   UNL     1       0.820   9.330  20.162  0.00  0.00    +0.000 A 
ATOM     19  C   UNL     1       1.595   8.698  19.162  0.00  0.00    +0.000 A 
BRANCH  19  20
ATOM     20  O   UNL     1       1.741   9.527  18.075  0.00  0.00    +0.000 OA
BRANCH  20  21
ATOM     21  C   UNL     1       1.193  10.842  18.112  0.00  0.00    +0.000 C 
BRANCH  21  22
ATOM     22  C   UNL     1       2.207  11.933  18.433  0.00  0.00    +0.000 C 
BRANCH  22  23
ATOM     23  N   UNL     1       1.828  13.323  18.134  0.00  0.00    +0.000 NA
ATOM     24  C   UNL     1       3.039  14.175  18.133  0.00  0.00    +0.000 C 
ATOM     25  C   UNL     1       3.590  14.459  19.542  0.00  0.00    +0.000 C 
ATOM     26  O   UNL     1       2.595  15.047  20.385  0.00  0.00    +0.000 OA
ATOM     27  C   UNL     1       1.433  14.209  20.472  0.00  0.00    +0.000 C 
ATOM     28  C   UNL     1       0.855  13.906  19.080  0.00  0.00    +0.000 C 
ENDBRANCH  22  23
ENDBRANCH  21  22
ENDBRANCH  20  21
ENDBRANCH  19  20
ENDBRANCH   5  12
BRANCH   1  29
ATOM     29  N   UNL     1       6.318   5.112  16.209  0.00  0.00    +0.000 N 
BRANCH  29  30
ATOM     30  C   UNL     1       6.348   5.022  14.736  0.00  0.00    +0.000 C 
BRANCH  30  32
ATOM     31  C   UNL     1       6.325   3.595  12.605  0.00  0.00    +0.000 C 
ATOM     32  C   UNL     1       6.182   3.630  14.112  0.00  0.00    +0.000 C 
ENDBRANCH  30  32
ENDBRANCH  29  30
BRANCH  29  33
ATOM     33  C   UNL     1       7.429   4.490  16.969  0.00  0.00    +0.000 C 
BRANCH  33  34
ATOM     34  C   UNL     1       7.371   4.571  18.495  0.00  0.00    +0.000 C 
ATOM     35  C   UNL     1       8.084   5.771  19.085  0.00  0.00    +0.000 C 
ENDBRANCH  33  34
ENDBRANCH  29  33
ENDBRANCH   1  29
TORSDOF 10
ENDMDL
MODEL 4
REMARK VINA RESULT:      -7.2      2.010      3.405
REMARK  Name = 
REMARK  15 active torsions:
REMARK  status: ('A' for Active; 'I' for Inactive)
REMARK    1  A    between atoms: C_1  and  C_2
REMARK    2  A    between atoms: C_2  and  C_3
REMARK    3  A    between atoms: C_3  and  N_4
REMARK    4  A    between atoms: N_4  and  C_5
REMARK    5  A    between atoms: N_4  and  C_8
REMARK    6  A    between atoms: C_5  and  C_6
REMARK    7  A    between atoms: C_6  and  C_7
REMARK    8  A    between atoms: C_9  and  C_10
REMARK    9  A    between atoms: C_12  and  C_13
REMARK   10  A    between atoms: C_14  and  C_15
REMARK   11  A    between atoms: C_17  and  C_18
REMARK   12  A    between atoms: C_20  and  O_21
REMARK   13  A    between atoms: O_21  and  C_22
REMARK   14  A    between atoms: C_22  and  C_23
REMARK   15  A    between atoms: C_23  and  N_24
REMARK                            x       y       z     vdW  Elec       q    Type
REMARK                         _______ _______ _______ _____ _____    ______ ____
ROOT
ATOM      1  C   UNL     1       4.779   5.299  16.803  0.00  0.00    +0.000 A 
ATOM      2  C   UNL     1       4.759   6.666  17.121  0.00  0.00    +0.000 A 
ATOM      3  C   UNL     1       5.570   7.736  16.452  0.00  0.00    +0.000 C 
ATOM      4  N   UNL     1       3.920   7.191  18.035  0.00  0.00    +0.000 NA
ATOM      5  C   UNL     1       2.820   6.515  18.428  0.00  0.00    +0.000 A 
ATOM      6  C   UNL     1       2.587   5.200  17.978  0.00  0.00    +0.000 A 
ATOM      7  C   UNL     1       1.388   4.480  18.231  0.00  0.00    +0.000 A 
ATOM      8  C   UNL     1       1.306   3.098  18.082  0.00  0.00    +0.000 A 
ATOM      9  C   UNL     1       2.427   2.406  17.667  0.00  0.00    +0.000 A 
ATOM     10  C   UNL     1       3.576   3.117  17.308  0.00  0.00    +0.000 A 
ATOM     11  C   UNL     1       3.666   4.540  17.340  0.00  0.00    +0.000 A 
ENDROOT
BRANCH   5  12
ATOM     12  C   UNL     1       2.014   7.284  19.439  0.00  0.00    +0.000 A 
ATOM     13  C   UNL     1       1.795   6.739  20.749  0.00  0.00    +0.000 A 
ATOM     14  C   UNL     1       2.198   5.347  21.183  0.00  0.00    +0.000 C 
ATOM     15  C   UNL     1       1.086   7.463  21.733  0.00  0.00    +0.000 A 
ATOM     16  C   UNL     1       0.593   8.737  21.487  0.00  0.00    +0.000 A 
ATOM     17  C   UNL     1      -0.082   9.518  22.571  0.00  0.00    +0.000 C 
ATOM     18  C   UNL     1       0.757   9.267  20.211  0.00  0.00    +0.000 A 
ATOM     19  C   UNL     1       1.405   8.544  19.182  0.00  0.00    +0.000 A 
BRANCH  19  20
ATOM     20  O   UNL     1       1.387   9.262  18.009  0.00  0.00    +0.000 OA
BRANCH  20  21
ATOM     21  C   UNL     1       0.639  10.474  17.935  0.00  0.00    +0.000 C 
BRANCH  21  22
ATOM     22  C   UNL     1      -0.860  10.273  17.752  0.00  0.00    +0.000 C 
BRANCH  22  23
ATOM     23  N   UNL     1      -1.643  11.415  17.255  0.00  0.00    +0.000 NA
ATOM     24  C   UNL     1      -1.724  12.453  18.308  0.00  0.00    +0.000 C 
ATOM     25  C   UNL     1      -2.684  12.090  19.454  0.00  0.00    +0.000 C 
ATOM     26  O   UNL     1      -3.997  11.802  18.968  0.00  0.00    +0.000 OA
ATOM     27  C   UNL     1      -3.967  10.743  17.999  0.00  0.00    +0.000 C 
ATOM     28  C   UNL     1      -3.018  11.075  16.836  0.00  0.00    +0.000 C 
ENDBRANCH  22  23
ENDBRANCH  21  22
ENDBRANCH  20  21
ENDBRANCH  19  20
ENDBRANCH   5  12
BRANCH   1  29
ATOM     29  N   UNL     1       5.761   4.711  15.984  0.00  0.00    +0.000 N 
BRANCH  29  30
ATOM     30  C   UNL     1       5.500   4.180  14.631  0.00  0.00    +0.000 C 
BRANCH  30  32
ATOM     31  C   UNL     1       6.385   3.459  12.334  0.00  0.00    +0.000 C 
ATOM     32  C   UNL     1       6.671   4.172  13.640  0.00  0.00    +0.000 C 
ENDBRANCH  30  32
ENDBRANCH  29  30
BRANCH  29  33
ATOM     33  C   UNL     1       7.104   4.490  16.572  0.00  0.00    +0.000 C 
BRANCH  33  34
ATOM     34  C   UNL     1       7.218   4.520  18.096  0.00  0.00    +0.000 C 
ATOM     35  C   UNL     1       7.839   5.786  18.653  0.00  0.00    +0.000 C 
ENDBRANCH  33  34
ENDBRANCH  29  33
ENDBRANCH   1  29
TORSDOF 10
ENDMDL
MODEL 5
REMARK VINA RESULT:      -7.1      0.712      1.123
REMARK  Name = 
REMARK  15 active torsions:
REMARK  status: ('A' for Active; 'I' for Inactive)
REMARK    1  A    between atoms: C_1  and  C_2
REMARK    2  A    between atoms: C_2  and  C_3
REMARK    3  A    between atoms: C_3  and  N_4
REMARK    4  A    between atoms: N_4  and  C_5
REMARK    5  A    between atoms: N_4  and  C_8
REMARK    6  A    between atoms: C_5  and  C_6
REMARK    7  A    between atoms: C_6  and  C_7
REMARK    8  A    between atoms: C_9  and  C_10
REMARK    9  A    between atoms: C_12  and  C_13
REMARK   10  A    between atoms: C_14  and  C_15
REMARK   11  A    between atoms: C_17  and  C_18
REMARK   12  A    between atoms: C_20  and  O_21
REMARK   13  A    between atoms: O_21  and  C_22
REMARK   14  A    between atoms: C_22  and  C_23
REMARK   15  A    between atoms: C_23  and  N_24
REMARK                            x       y       z     vdW  Elec       q    Type
REMARK                         _______ _______ _______ _____ _____    ______ ____
ROOT
ATOM      1  C   UNL     1       4.880   5.543  16.914  0.00  0.00    +0.000 A 
ATOM      2  C   UNL     1       4.853   6.899  17.274  0.00  0.00    +0.000 A 
ATOM      3  C   UNL     1       5.715   7.980  16.691  0.00  0.00    +0.000 C 
ATOM      4  N   UNL     1       3.963   7.405  18.149  0.00  0.00    +0.000 NA
ATOM      5  C   UNL     1       2.833   6.730  18.450  0.00  0.00    +0.000 A 
ATOM      6  C   UNL     1       2.617   5.432  17.944  0.00  0.00    +0.000 A 
ATOM      7  C   UNL     1       1.397   4.718  18.098  0.00  0.00    +0.000 A 
ATOM      8  C   UNL     1       1.313   3.343  17.900  0.00  0.00    +0.000 A 
ATOM      9  C   UNL     1       2.451   2.651  17.535  0.00  0.00    +0.000 A 
ATOM     10  C   UNL     1       3.627   3.360  17.272  0.00  0.00    +0.000 A 
ATOM     11  C   UNL     1       3.728   4.781  17.355  0.00  0.00    +0.000 A 
ENDROOT
BRANCH   5  12
ATOM     12  C   UNL     1       1.972   7.476  19.431  0.00  0.00    +0.000 A 
ATOM     13  C   UNL     1       1.642   6.881  20.695  0.00  0.00    +0.000 A 
ATOM     14  C   UNL     1       1.977   5.461  21.094  0.00  0.00    +0.000 C 
ATOM     15  C   UNL     1       0.878   7.581  21.655  0.00  0.00    +0.000 A 
ATOM     16  C   UNL     1       0.436   8.877  21.432  0.00  0.00    +0.000 A 
ATOM     17  C   UNL     1      -0.300   9.629  22.497  0.00  0.00    +0.000 C 
ATOM     18  C   UNL     1       0.709   9.458  20.197  0.00  0.00    +0.000 A 
ATOM     19  C   UNL     1       1.415   8.763  19.187  0.00  0.00    +0.000 A 
BRANCH  19  20
ATOM     20  O   UNL     1       1.503   9.532  18.050  0.00  0.00    +0.000 OA
BRANCH  20  21
ATOM     21  C   UNL     1       2.147  10.802  18.106  0.00  0.00    +0.000 C 
BRANCH  21  22
ATOM     22  C   UNL     1       1.253  11.934  18.596  0.00  0.00    +0.000 C 
BRANCH  22  23
ATOM     23  N   UNL     1       1.798  12.834  19.624  0.00  0.00    +0.000 NA
ATOM     24  C   UNL     1       0.746  13.784  20.055  0.00  0.00    +0.000 C 
ATOM     25  C   UNL     1       0.453  14.885  19.020  0.00  0.00    +0.000 C 
ATOM     26  O   UNL     1       1.636  15.609  18.674  0.00  0.00    +0.000 OA
ATOM     27  C   UNL     1       2.653  14.727  18.178  0.00  0.00    +0.000 C 
ATOM     28  C   UNL     1       2.974  13.615  19.190  0.00  0.00    +0.000 C 
ENDBRANCH  22  23
ENDBRANCH  21  22
ENDBRANCH  20  21
ENDBRANCH  19  20
ENDBRANCH   5  12
BRANCH   1  29
ATOM     29  N   UNL     1       5.907   4.970  16.140  0.00  0.00    +0.000 N 
BRANCH  29  30
ATOM     30  C   UNL     1       7.252   4.648  16.658  0.00  0.00    +0.000 C 
BRANCH  30  32
ATOM     31  C   UNL     1       8.011   5.875  18.779  0.00  0.00    +0.000 C 
ATOM     32  C   UNL     1       7.429   4.610  18.182  0.00  0.00    +0.000 C 
ENDBRANCH  30  32
ENDBRANCH  29  30
BRANCH  29  33
ATOM     33  C   UNL     1       5.663   4.808  14.687  0.00  0.00    +0.000 C 
BRANCH  33  34
ATOM     34  C   UNL     1       6.374   3.655  13.977  0.00  0.00    +0.000 C 
ATOM     35  C   UNL     1       6.666   3.908  12.511  0.00  0.00    +0.000 C 
ENDBRANCH  33  34
ENDBRANCH  29  33
ENDBRANCH   1  29
TORSDOF 10
ENDMDL
MODEL 6
REMARK VINA RESULT:      -7.1      5.037      8.679
REMARK  Name = 
REMARK  15 active torsions:
REMARK  status: ('A' for Active; 'I' for Inactive)
REMARK    1  A    between atoms: C_1  and  C_2
REMARK    2  A    between atoms: C_2  and  C_3
REMARK    3  A    between atoms: C_3  and  N_4
REMARK    4  A    between atoms: N_4  and  C_5
REMARK    5  A    between atoms: N_4  and  C_8
REMARK    6  A    between atoms: C_5  and  C_6
REMARK    7  A    between atoms: C_6  and  C_7
REMARK    8  A    between atoms: C_9  and  C_10
REMARK    9  A    between atoms: C_12  and  C_13
REMARK   10  A    between atoms: C_14  and  C_15
REMARK   11  A    between atoms: C_17  and  C_18
REMARK   12  A    between atoms: C_20  and  O_21
REMARK   13  A    between atoms: O_21  and  C_22
REMARK   14  A    between atoms: C_22  and  C_23
REMARK   15  A    between atoms: C_23  and  N_24
REMARK                            x       y       z     vdW  Elec       q    Type
REMARK                         _______ _______ _______ _____ _____    ______ ____
ROOT
ATOM      1  C   UNL     1       0.199  11.394  19.534  0.00  0.00    +0.000 A 
ATOM      2  C   UNL     1      -0.743  12.368  19.168  0.00  0.00    +0.000 A 
ATOM      3  C   UNL     1      -1.086  12.777  17.766  0.00  0.00    +0.000 C 
ATOM      4  N   UNL     1      -1.526  12.999  20.065  0.00  0.00    +0.000 NA
ATOM      5  C   UNL     1      -1.710  12.487  21.300  0.00  0.00    +0.000 A 
ATOM      6  C   UNL     1      -0.997  11.344  21.716  0.00  0.00    +0.000 A 
ATOM      7  C   UNL     1      -1.240  10.665  22.941  0.00  0.00    +0.000 A 
ATOM      8  C   UNL     1      -0.325   9.768  23.486  0.00  0.00    +0.000 A 
ATOM      9  C   UNL     1       0.853   9.525  22.810  0.00  0.00    +0.000 A 
ATOM     10  C   UNL     1       1.051  10.101  21.551  0.00  0.00    +0.000 A 
ATOM     11  C   UNL     1       0.091  10.938  20.906  0.00  0.00    +0.000 A 
ENDROOT
BRANCH   5  12
ATOM     12  C   UNL     1      -2.630  13.336  22.134  0.00  0.00    +0.000 A 
ATOM     13  C   UNL     1      -2.095  14.397  22.939  0.00  0.00    +0.000 A 
ATOM     14  C   UNL     1      -0.620  14.666  23.144  0.00  0.00    +0.000 C 
ATOM     15  C   UNL     1      -2.941  15.242  23.691  0.00  0.00    +0.000 A 
ATOM     16  C   UNL     1      -4.321  15.101  23.666  0.00  0.00    +0.000 A 
ATOM     17  C   UNL     1      -5.202  16.060  24.405  0.00  0.00    +0.000 C 
ATOM     18  C   UNL     1      -4.858  14.052  22.925  0.00  0.00    +0.000 A 
ATOM     19  C   UNL     1      -4.038  13.147  22.212  0.00  0.00    +0.000 A 
BRANCH  19  20
ATOM     20  O   UNL     1      -4.805  12.176  21.613  0.00  0.00    +0.000 OA
BRANCH  20  21
ATOM     21  C   UNL     1      -6.201  12.396  21.425  0.00  0.00    +0.000 C 
BRANCH  21  22
ATOM     22  C   UNL     1      -6.565  12.973  20.064  0.00  0.00    +0.000 C 
BRANCH  22  23
ATOM     23  N   UNL     1      -7.174  12.064  19.081  0.00  0.00    +0.000 NA
ATOM     24  C   UNL     1      -6.376  10.819  19.000  0.00  0.00    +0.000 C 
ATOM     25  C   UNL     1      -5.043  10.994  18.251  0.00  0.00    +0.000 C 
ATOM     26  O   UNL     1      -5.245  11.517  16.935  0.00  0.00    +0.000 OA
ATOM     27  C   UNL     1      -5.950  12.765  16.979  0.00  0.00    +0.000 C 
ATOM     28  C   UNL     1      -7.290  12.626  17.720  0.00  0.00    +0.000 C 
ENDBRANCH  22  23
ENDBRANCH  21  22
ENDBRANCH  20  21
ENDBRANCH  19  20
ENDBRANCH   5  12
BRANCH   1  29
ATOM     29  N   UNL     1       1.140  10.854  18.636  0.00  0.00    +0.000 N 
BRANCH  29  30
ATOM     30  C   UNL     1       2.297  11.601  18.104  0.00  0.00    +0.000 C 
BRANCH  30  32
ATOM     31  C   UNL     1       2.396  14.163  18.061  0.00  0.00    +0.000 C 
ATOM     32  C   UNL     1       2.696  12.893  18.829  0.00  0.00    +0.000 C 
ENDBRANCH  30  32
ENDBRANCH  29  30
BRANCH  29  33
ATOM     33  C   UNL     1       0.871   9.503  18.089  0.00  0.00    +0.000 C 
BRANCH  33  34
ATOM     34  C   UNL     1       1.779   8.363  18.552  0.00  0.00    +0.000 C 
ATOM     35  C   UNL     1       2.957   8.090  17.636  0.00  0.00    +0.000 C 
ENDBRANCH  33  34
ENDBRANCH  29  33
ENDBRANCH   1  29
TORSDOF 10
ENDMDL
MODEL 7
REMARK VINA RESULT:      -6.9      1.113      2.520
REMARK  Name = 
REMARK  15 active torsions:
REMARK  status: ('A' for Active; 'I' for Inactive)
REMARK    1  A    between atoms: C_1  and  C_2
REMARK    2  A    between atoms: C_2  and  C_3
REMARK    3  A    between atoms: C_3  and  N_4
REMARK    4  A    between atoms: N_4  and  C_5
REMARK    5  A    between atoms: N_4  and  C_8
REMARK    6  A    between atoms: C_5  and  C_6
REMARK    7  A    between atoms: C_6  and  C_7
REMARK    8  A    between atoms: C_9  and  C_10
REMARK    9  A    between atoms: C_12  and  C_13
REMARK   10  A    between atoms: C_14  and  C_15
REMARK   11  A    between atoms: C_17  and  C_18
REMARK   12  A    between atoms: C_20  and  O_21
REMARK   13  A    between atoms: O_21  and  C_22
REMARK   14  A    between atoms: C_22  and  C_23
REMARK   15  A    between atoms: C_23  and  N_24
REMARK                            x       y       z     vdW  Elec       q    Type
REMARK                         _______ _______ _______ _____ _____    ______ ____
ROOT
ATOM      1  C   UNL     1       5.009   5.211  17.019  0.00  0.00    +0.000 A 
ATOM      2  C   UNL     1       4.993   6.586  17.300  0.00  0.00    +0.000 A 
ATOM      3  C   UNL     1       5.889   7.619  16.684  0.00  0.00    +0.000 C 
ATOM      4  N   UNL     1       4.085   7.153  18.117  0.00  0.00    +0.000 NA
ATOM      5  C   UNL     1       2.936   6.513  18.422  0.00  0.00    +0.000 A 
ATOM      6  C   UNL     1       2.714   5.192  17.984  0.00  0.00    +0.000 A 
ATOM      7  C   UNL     1       1.479   4.505  18.141  0.00  0.00    +0.000 A 
ATOM      8  C   UNL     1       1.379   3.122  18.018  0.00  0.00    +0.000 A 
ATOM      9  C   UNL     1       2.516   2.395  17.729  0.00  0.00    +0.000 A 
ATOM     10  C   UNL     1       3.710   3.070  17.462  0.00  0.00    +0.000 A 
ATOM     11  C   UNL     1       3.832   4.492  17.468  0.00  0.00    +0.000 A 
ENDROOT
BRANCH   5  12
ATOM     12  C   UNL     1       2.058   7.327  19.332  0.00  0.00    +0.000 A 
ATOM     13  C   UNL     1       1.688   6.814  20.621  0.00  0.00    +0.000 A 
ATOM     14  C   UNL     1       1.996   5.417  21.115  0.00  0.00    +0.000 C 
ATOM     15  C   UNL     1       0.907   7.578  21.515  0.00  0.00    +0.000 A 
ATOM     16  C   UNL     1       0.486   8.862  21.201  0.00  0.00    +0.000 A 
ATOM     17  C   UNL     1      -0.269   9.686  22.198  0.00  0.00    +0.000 C 
ATOM     18  C   UNL     1       0.797   9.363  19.940  0.00  0.00    +0.000 A 
ATOM     19  C   UNL     1       1.522   8.601  18.994  0.00  0.00    +0.000 A 
BRANCH  19  20
ATOM     20  O   UNL     1       1.648   9.297  17.815  0.00  0.00    +0.000 OA
BRANCH  20  21
ATOM     21  C   UNL     1       2.245  10.592  17.821  0.00  0.00    +0.000 C 
BRANCH  21  22
ATOM     22  C   UNL     1       1.654  11.547  18.851  0.00  0.00    +0.000 C 
BRANCH  22  23
ATOM     23  N   UNL     1       0.849  12.672  18.351  0.00  0.00    +0.000 NA
ATOM     24  C   UNL     1       1.102  13.869  19.185  0.00  0.00    +0.000 C 
ATOM     25  C   UNL     1       0.438  13.802  20.572  0.00  0.00    +0.000 C 
ATOM     26  O   UNL     1      -0.972  13.583  20.469  0.00  0.00    +0.000 OA
ATOM     27  C   UNL     1      -1.254  12.385  19.730  0.00  0.00    +0.000 C 
ATOM     28  C   UNL     1      -0.606  12.420  18.336  0.00  0.00    +0.000 C 
ENDBRANCH  22  23
ENDBRANCH  21  22
ENDBRANCH  20  21
ENDBRANCH  19  20
ENDBRANCH   5  12
BRANCH   1  29
ATOM     29  N   UNL     1       6.049   4.579  16.311  0.00  0.00    +0.000 N 
BRANCH  29  30
ATOM     30  C   UNL     1       5.837   3.660  15.175  0.00  0.00    +0.000 C 
BRANCH  30  32
ATOM     31  C   UNL     1       6.159   3.463  12.638  0.00  0.00    +0.000 C 
ATOM     32  C   UNL     1       5.627   4.289  13.791  0.00  0.00    +0.000 C 
ENDBRANCH  30  32
ENDBRANCH  29  30
BRANCH  29  33
ATOM     33  C   UNL     1       7.429   4.743  16.827  0.00  0.00    +0.000 C 
BRANCH  33  34
ATOM     34  C   UNL     1       7.639   4.596  18.335  0.00  0.00    +0.000 C 
ATOM     35  C   UNL     1       7.973   5.891  19.049  0.00  0.00    +0.000 C 
ENDBRANCH  33  34
ENDBRANCH  29  33
ENDBRANCH   1  29
TORSDOF 10
ENDMDL
MODEL 8
REMARK VINA RESULT:      -6.9      2.319      3.136
REMARK  Name = 
REMARK  15 active torsions:
REMARK  status: ('A' for Active; 'I' for Inactive)
REMARK    1  A    between atoms: C_1  and  C_2
REMARK    2  A    between atoms: C_2  and  C_3
REMARK    3  A    between atoms: C_3  and  N_4
REMARK    4  A    between atoms: N_4  and  C_5
REMARK    5  A    between atoms: N_4  and  C_8
REMARK    6  A    between atoms: C_5  and  C_6
REMARK    7  A    between atoms: C_6  and  C_7
REMARK    8  A    between atoms: C_9  and  C_10
REMARK    9  A    between atoms: C_12  and  C_13
REMARK   10  A    between atoms: C_14  and  C_15
REMARK   11  A    between atoms: C_17  and  C_18
REMARK   12  A    between atoms: C_20  and  O_21
REMARK   13  A    between atoms: O_21  and  C_22
REMARK   14  A    between atoms: C_22  and  C_23
REMARK   15  A    between atoms: C_23  and  N_24
REMARK                            x       y       z     vdW  Elec       q    Type
REMARK                         _______ _______ _______ _____ _____    ______ ____
ROOT
ATOM      1  C   UNL     1       4.823   5.556  16.872  0.00  0.00    +0.000 A 
ATOM      2  C   UNL     1       4.816   6.904  17.263  0.00  0.00    +0.000 A 
ATOM      3  C   UNL     1       5.676   7.990  16.687  0.00  0.00    +0.000 C 
ATOM      4  N   UNL     1       3.949   7.398  18.167  0.00  0.00    +0.000 NA
ATOM      5  C   UNL     1       2.819   6.727  18.477  0.00  0.00    +0.000 A 
ATOM      6  C   UNL     1       2.580   5.442  17.946  0.00  0.00    +0.000 A 
ATOM      7  C   UNL     1       1.358   4.736  18.110  0.00  0.00    +0.000 A 
ATOM      8  C   UNL     1       1.256   3.366  17.882  0.00  0.00    +0.000 A 
ATOM      9  C   UNL     1       2.379   2.673  17.479  0.00  0.00    +0.000 A 
ATOM     10  C   UNL     1       3.557   3.377  17.207  0.00  0.00    +0.000 A 
ATOM     11  C   UNL     1       3.673   4.794  17.320  0.00  0.00    +0.000 A 
ENDROOT
BRANCH   5  12
ATOM     12  C   UNL     1       1.986   7.458  19.492  0.00  0.00    +0.000 A 
ATOM     13  C   UNL     1       1.743   6.872  20.780  0.00  0.00    +0.000 A 
ATOM     14  C   UNL     1       2.149   5.470  21.180  0.00  0.00    +0.000 C 
ATOM     15  C   UNL     1       1.007   7.560  21.770  0.00  0.00    +0.000 A 
ATOM     16  C   UNL     1       0.510   8.836  21.552  0.00  0.00    +0.000 A 
ATOM     17  C   UNL     1      -0.195   9.580  22.645  0.00  0.00    +0.000 C 
ATOM     18  C   UNL     1       0.696   9.407  20.296  0.00  0.00    +0.000 A 
ATOM     19  C   UNL     1       1.372   8.721  19.260  0.00  0.00    +0.000 A 
BRANCH  19  20
ATOM     20  O   UNL     1       1.373   9.474  18.110  0.00  0.00    +0.000 OA
BRANCH  20  21
ATOM     21  C   UNL     1       0.222   9.479  17.268  0.00  0.00    +0.000 C 
BRANCH  21  22
ATOM     22  C   UNL     1      -0.987  10.186  17.867  0.00  0.00    +0.000 C 
BRANCH  22  23
ATOM     23  N   UNL     1      -2.310   9.589  17.629  0.00  0.00    +0.000 NA
ATOM     24  C   UNL     1      -2.552   9.493  16.171  0.00  0.00    +0.000 C 
ATOM     25  C   UNL     1      -2.867  10.847  15.511  0.00  0.00    +0.000 C 
ATOM     26  O   UNL     1      -3.981  11.490  16.137  0.00  0.00    +0.000 OA
ATOM     27  C   UNL     1      -3.749  11.670  17.541  0.00  0.00    +0.000 C 
ATOM     28  C   UNL     1      -3.433  10.334  18.233  0.00  0.00    +0.000 C 
ENDBRANCH  22  23
ENDBRANCH  21  22
ENDBRANCH  20  21
ENDBRANCH  19  20
ENDBRANCH   5  12
BRANCH   1  29
ATOM     29  N   UNL     1       5.828   4.991  16.064  0.00  0.00    +0.000 N 
BRANCH  29  30
ATOM     30  C   UNL     1       7.242   4.864  16.471  0.00  0.00    +0.000 C 
BRANCH  30  32
ATOM     31  C   UNL     1       7.826   5.724  18.816  0.00  0.00    +0.000 C 
ATOM     32  C   UNL     1       7.523   4.525  17.941  0.00  0.00    +0.000 C 
ENDBRANCH  30  32
ENDBRANCH  29  30
BRANCH  29  33
ATOM     33  C   UNL     1       5.468   4.630  14.672  0.00  0.00    +0.000 C 
BRANCH  33  34
ATOM     34  C   UNL     1       6.510   3.870  13.850  0.00  0.00    +0.000 C 
ATOM     35  C   UNL     1       6.009   3.379  12.506  0.00  0.00    +0.000 C 
ENDBRANCH  33  34
ENDBRANCH  29  33
ENDBRANCH   1  29
TORSDOF 10
ENDMDL
MODEL 9
REMARK VINA RESULT:      -6.9      3.274      9.778
REMARK  Name = 
REMARK  15 active torsions:
REMARK  status: ('A' for Active; 'I' for Inactive)
REMARK    1  A    between atoms: C_1  and  C_2
REMARK    2  A    between atoms: C_2  and  C_3
REMARK    3  A    between atoms: C_3  and  N_4
REMARK    4  A    between atoms: N_4  and  C_5
REMARK    5  A    between atoms: N_4  and  C_8
REMARK    6  A    between atoms: C_5  and  C_6
REMARK    7  A    between atoms: C_6  and  C_7
REMARK    8  A    between atoms: C_9  and  C_10
REMARK    9  A    between atoms: C_12  and  C_13
REMARK   10  A    between atoms: C_14  and  C_15
REMARK   11  A    between atoms: C_17  and  C_18
REMARK   12  A    between atoms: C_20  and  O_21
REMARK   13  A    between atoms: O_21  and  C_22
REMARK   14  A    between atoms: C_22  and  C_23
REMARK   15  A    between atoms: C_23  and  N_24
REMARK                            x       y       z     vdW  Elec       q    Type
REMARK                         _______ _______ _______ _____ _____    ______ ____
ROOT
ATOM      1  C   UNL     1      -0.807  11.145  21.707  0.00  0.00    +0.000 A 
ATOM      2  C   UNL     1       0.078  10.173  22.199  0.00  0.00    +0.000 A 
ATOM      3  C   UNL     1       0.210   9.749  23.632  0.00  0.00    +0.000 C 
ATOM      4  N   UNL     1       0.869   9.433  21.397  0.00  0.00    +0.000 NA
ATOM      5  C   UNL     1       0.604   9.323  20.079  0.00  0.00    +0.000 A 
ATOM      6  C   UNL     1      -0.438  10.071  19.492  0.00  0.00    +0.000 A 
ATOM      7  C   UNL     1      -0.869   9.904  18.147  0.00  0.00    +0.000 A 
ATOM      8  C   UNL     1      -1.643  10.858  17.493  0.00  0.00    +0.000 A 
ATOM      9  C   UNL     1      -2.010  12.000  18.175  0.00  0.00    +0.000 A 
ATOM     10  C   UNL     1      -1.687  12.122  19.530  0.00  0.00    +0.000 A 
ATOM     11  C   UNL     1      -0.990  11.119  20.268  0.00  0.00    +0.000 A 
ENDROOT
BRANCH   5  12
ATOM     12  C   UNL     1       1.596   8.441  19.373  0.00  0.00    +0.000 A 
ATOM     13  C   UNL     1       2.349   8.951  18.262  0.00  0.00    +0.000 A 
ATOM     14  C   UNL     1       2.131  10.305  17.621  0.00  0.00    +0.000 C 
ATOM     15  C   UNL     1       3.324   8.161  17.615  0.00  0.00    +0.000 A 
ATOM     16  C   UNL     1       3.614   6.871  18.036  0.00  0.00    +0.000 A 
ATOM     17  C   UNL     1       4.709   6.082  17.388  0.00  0.00    +0.000 C 
ATOM     18  C   UNL     1       2.866   6.341  19.084  0.00  0.00    +0.000 A 
ATOM     19  C   UNL     1       1.838   7.081  19.713  0.00  0.00    +0.000 A 
BRANCH  19  20
ATOM     20  O   UNL     1       1.219   6.316  20.674  0.00  0.00    +0.000 OA
BRANCH  20  21
ATOM     21  C   UNL     1       1.106   4.907  20.490  0.00  0.00    +0.000 C 
BRANCH  21  22
ATOM     22  C   UNL     1       2.189   4.097  21.192  0.00  0.00    +0.000 C 
BRANCH  22  23
ATOM     23  N   UNL     1       2.315   2.676  20.831  0.00  0.00    +0.000 NA
ATOM     24  C   UNL     1       3.747   2.338  20.654  0.00  0.00    +0.000 C 
ATOM     25  C   UNL     1       4.349   2.888  19.349  0.00  0.00    +0.000 C 
ATOM     26  O   UNL     1       3.611   2.450  18.205  0.00  0.00    +0.000 OA
ATOM     27  C   UNL     1       2.231   2.829  18.306  0.00  0.00    +0.000 C 
ATOM     28  C   UNL     1       1.596   2.293  19.600  0.00  0.00    +0.000 C 
ENDBRANCH  22  23
ENDBRANCH  21  22
ENDBRANCH  20  21
ENDBRANCH  19  20
ENDBRANCH   5  12
BRANCH   1  29
ATOM     29  N   UNL     1      -1.508  12.042  22.536  0.00  0.00    +0.000 N 
BRANCH  29  30
ATOM     30  C   UNL     1      -0.894  13.214  23.191  0.00  0.00    +0.000 C 
BRANCH  30  32
ATOM     31  C   UNL     1      -1.516  15.054  21.516  0.00  0.00    +0.000 C 
ATOM     32  C   UNL     1      -0.414  14.356  22.285  0.00  0.00    +0.000 C 
ENDBRANCH  30  32
ENDBRANCH  29  30
BRANCH  29  33
ATOM     33  C   UNL     1      -2.911  11.707  22.878  0.00  0.00    +0.000 C 
BRANCH  33  34
ATOM     34  C   UNL     1      -3.760  12.804  23.520  0.00  0.00    +0.000 C 
ATOM     35  C   UNL     1      -4.409  12.406  24.832  0.00  0.00    +0.000 C 
ENDBRANCH  33  34
ENDBRANCH  29  33
ENDBRANCH   1  29
TORSDOF 10
ENDMDL
