MODEL 1
REMARK VINA RESULT:      -8.7      0.000      0.000
REMARK  Name = 
REMARK  6 active torsions:
REMARK  status: ('A' for Active; 'I' for Inactive)
REMARK    1  A    between atoms: C_1  and  C_2
REMARK    2  A    between atoms: N_10  and  C_11
REMARK    3  A    between atoms: N_14  and  S_15
REMARK    4  A    between atoms: S_15  and  C_18
REMARK    5  A    between atoms: C_21  and  C_22
REMARK    6  A    between atoms: N_24  and  C_25
REMARK                            x       y       z     vdW  Elec       q    Type
REMARK                         _______ _______ _______ _____ _____    ______ ____
ROOT
ATOM      1  S   UNL     1       0.759   8.933  21.435  0.00  0.00    +0.000 S 
ATOM      2  O   UNL     1       1.734   9.354  22.419  0.00  0.00    +0.000 OA
ATOM      3  O   UNL     1      -0.491   8.333  21.820  0.00  0.00    +0.000 OA
ENDROOT
BRANCH   1   7
ATOM      4  C   UNL     1      -1.097  12.686  19.441  0.00  0.00    +0.000 C 
ATOM      5  C   UNL     1      -1.140  11.327  18.720  0.00  0.00    +0.000 C 
ATOM      6  C   UNL     1      -0.854  10.122  19.616  0.00  0.00    +0.000 C 
ATOM      7  N   UNL     1       0.394  10.308  20.413  0.00  0.00    +0.000 NA
ATOM      8  C   UNL     1       0.369  11.572  21.211  0.00  0.00    +0.000 C 
ATOM      9  C   UNL     1       0.149  12.790  20.319  0.00  0.00    +0.000 C 
BRANCH   4  19
ATOM     10  C   UNL     1      -7.722  11.434  20.262  0.00  0.00    +0.000 C 
ATOM     11  C   UNL     1      -6.285  11.853  20.112  0.00  0.00    +0.000 A 
ATOM     12  C   UNL     1      -5.550  11.507  18.969  0.00  0.00    +0.000 A 
ATOM     13  C   UNL     1      -4.199  11.865  18.817  0.00  0.00    +0.000 A 
ATOM     14  C   UNL     1      -3.609  12.593  19.858  0.00  0.00    +0.000 A 
ATOM     15  C   UNL     1      -4.324  12.986  20.985  0.00  0.00    +0.000 A 
ATOM     16  C   UNL     1      -5.670  12.607  21.128  0.00  0.00    +0.000 A 
ATOM     17  N   UNL     1      -3.510  13.714  21.809  0.00  0.00    +0.000 NA
ATOM     18  N   UNL     1      -2.305  13.774  21.257  0.00  0.00    +0.000 NA
ATOM     19  N   UNL     1      -2.335  13.056  20.118  0.00  0.00    +0.000 N 
ENDBRANCH   4  19
ENDBRANCH   1   7
BRANCH   1  20
ATOM     20  C   UNL     1       1.601   7.806  20.332  0.00  0.00    +0.000 A 
ATOM     21  C   UNL     1       1.752   6.474  20.720  0.00  0.00    +0.000 A 
ATOM     22  C   UNL     1       2.470   5.598  19.901  0.00  0.00    +0.000 A 
ATOM     23  C   UNL     1       3.034   6.042  18.693  0.00  0.00    +0.000 A 
ATOM     24  C   UNL     1       2.794   7.357  18.270  0.00  0.00    +0.000 A 
ATOM     25  C   UNL     1       2.077   8.243  19.089  0.00  0.00    +0.000 A 
BRANCH  23  26
ATOM     26  C   UNL     1       3.872   5.076  17.918  0.00  0.00    +0.000 C 
ATOM     27  O   UNL     1       4.041   3.940  18.347  0.00  0.00    +0.000 OA
ATOM     28  N   UNL     1       4.471   5.548  16.763  0.00  0.00    +0.000 N 
ATOM     29  H   UNL     1       4.469   6.543  16.590  0.00  0.00    +0.000 HD
BRANCH  28  30
ATOM     30  C   UNL     1       5.435   4.740  16.031  0.00  0.00    +0.000 C 
ATOM     31  C   UNL     1       4.996   4.457  14.598  0.00  0.00    +0.000 C 
ATOM     32  C   UNL     1       6.282   4.034  13.899  0.00  0.00    +0.000 C 
ATOM     33  C   UNL     1       7.405   4.790  14.607  0.00  0.00    +0.000 C 
ATOM     34  C   UNL     1       6.779   5.442  15.839  0.00  0.00    +0.000 C 
ENDBRANCH  28  30
ENDBRANCH  23  26
ENDBRANCH   1  20
TORSDOF 5
ENDMDL
MODEL 2
REMARK VINA RESULT:      -8.2      5.059      8.350
REMARK  Name = 
REMARK  6 active torsions:
REMARK  status: ('A' for Active; 'I' for Inactive)
REMARK    1  A    between atoms: C_1  and  C_2
REMARK    2  A    between atoms: N_10  and  C_11
REMARK    3  A    between atoms: N_14  and  S_15
REMARK    4  A    between atoms: S_15  and  C_18
REMARK    5  A    between atoms: C_21  and  C_22
REMARK    6  A    between atoms: N_24  and  C_25
REMARK                            x       y       z     vdW  Elec       q    Type
REMARK                         _______ _______ _______ _____ _____    ______ ____
ROOT
ATOM      1  S   UNL     1       7.058   5.171  16.935  0.00  0.00    +0.000 S 
ATOM      2  O   UNL     1       8.002   4.160  17.362  0.00  0.00    +0.000 OA
ATOM      3  O   UNL     1       6.762   5.386  15.543  0.00  0.00    +0.000 OA
ENDROOT
BRANCH   1   7
ATOM      4  C   UNL     1       2.820   5.469  18.795  0.00  0.00    +0.000 C 
ATOM      5  C   UNL     1       4.060   5.416  19.703  0.00  0.00    +0.000 C 
ATOM      6  C   UNL     1       5.383   5.703  18.993  0.00  0.00    +0.000 C 
ATOM      7  N   UNL     1       5.541   4.877  17.761  0.00  0.00    +0.000 NA
ATOM      8  C   UNL     1       4.386   5.037  16.824  0.00  0.00    +0.000 C 
ATOM      9  C   UNL     1       3.065   4.690  17.504  0.00  0.00    +0.000 C 
BRANCH   4  19
ATOM     10  C   UNL     1       0.302  11.087  21.662  0.00  0.00    +0.000 C 
ATOM     11  C   UNL     1       0.774   9.873  20.910  0.00  0.00    +0.000 A 
ATOM     12  C   UNL     1       0.763   8.606  21.511  0.00  0.00    +0.000 A 
ATOM     13  C   UNL     1       1.223   7.460  20.837  0.00  0.00    +0.000 A 
ATOM     14  C   UNL     1       1.690   7.632  19.528  0.00  0.00    +0.000 A 
ATOM     15  C   UNL     1       1.675   8.869  18.892  0.00  0.00    +0.000 A 
ATOM     16  C   UNL     1       1.226  10.008  19.585  0.00  0.00    +0.000 A 
ATOM     17  N   UNL     1       2.149   8.732  17.616  0.00  0.00    +0.000 NA
ATOM     18  N   UNL     1       2.485   7.462  17.432  0.00  0.00    +0.000 NA
ATOM     19  N   UNL     1       2.272   6.805  18.589  0.00  0.00    +0.000 N 
ENDBRANCH   4  19
ENDBRANCH   1   7
BRANCH   1  20
ATOM     20  C   UNL     1       7.618   6.719  17.632  0.00  0.00    +0.000 A 
ATOM     21  C   UNL     1       7.310   7.906  16.966  0.00  0.00    +0.000 A 
ATOM     22  C   UNL     1       7.800   9.117  17.459  0.00  0.00    +0.000 A 
ATOM     23  C   UNL     1       8.594   9.153  18.619  0.00  0.00    +0.000 A 
ATOM     24  C   UNL     1       8.816   7.965  19.331  0.00  0.00    +0.000 A 
ATOM     25  C   UNL     1       8.329   6.745  18.839  0.00  0.00    +0.000 A 
BRANCH  23  26
ATOM     26  C   UNL     1       9.165  10.471  19.032  0.00  0.00    +0.000 C 
ATOM     27  O   UNL     1       9.271  10.740  20.224  0.00  0.00    +0.000 OA
ATOM     28  N   UNL     1       9.497  11.359  18.023  0.00  0.00    +0.000 N 
ATOM     29  H   UNL     1       9.181  11.161  17.084  0.00  0.00    +0.000 HD
BRANCH  28  30
ATOM     30  C   UNL     1       9.901  12.723  18.323  0.00  0.00    +0.000 C 
ATOM     31  C   UNL     1      10.824  13.310  17.259  0.00  0.00    +0.000 C 
ATOM     32  C   UNL     1      10.749  14.812  17.499  0.00  0.00    +0.000 C 
ATOM     33  C   UNL     1       9.346  15.075  18.045  0.00  0.00    +0.000 C 
ATOM     34  C   UNL     1       8.730  13.705  18.331  0.00  0.00    +0.000 C 
ENDBRANCH  28  30
ENDBRANCH  23  26
ENDBRANCH   1  20
TORSDOF 5
ENDMDL
MODEL 3
REMARK VINA RESULT:      -8.1      1.160      1.768
REMARK  Name = 
REMARK  6 active torsions:
REMARK  status: ('A' for Active; 'I' for Inactive)
REMARK    1  A    between atoms: C_1  and  C_2
REMARK    2  A    between atoms: N_10  and  C_11
REMARK    3  A    between atoms: N_14  and  S_15
REMARK    4  A    between atoms: S_15  and  C_18
REMARK    5  A    between atoms: C_21  and  C_22
REMARK    6  A    between atoms: N_24  and  C_25
REMARK                            x       y       z     vdW  Elec       q    Type
REMARK                         _______ _______ _______ _____ _____    ______ ____
ROOT
ATOM      1  S   UNL     1       0.605   8.913  21.629  0.00  0.00    +0.000 S 
ATOM      2  O   UNL     1       1.621   9.337  22.569  0.00  0.00    +0.000 OA
ATOM      3  O   UNL     1      -0.611   8.280  22.068  0.00  0.00    +0.000 OA
ENDROOT
BRANCH   1   7
ATOM      4  C   UNL     1      -1.612  12.382  19.493  0.00  0.00    +0.000 C 
ATOM      5  C   UNL     1      -1.118  11.167  18.687  0.00  0.00    +0.000 C 
ATOM      6  C   UNL     1      -0.759   9.945  19.532  0.00  0.00    +0.000 C 
ATOM      7  N   UNL     1       0.159  10.299  20.654  0.00  0.00    +0.000 NA
ATOM      8  C   UNL     1      -0.392  11.395  21.509  0.00  0.00    +0.000 C 
ATOM      9  C   UNL     1      -0.694  12.644  20.686  0.00  0.00    +0.000 C 
BRANCH   4  19
ATOM     10  C   UNL     1      -6.514  14.564  23.657  0.00  0.00    +0.000 C 
ATOM     11  C   UNL     1      -5.508  13.958  22.716  0.00  0.00    +0.000 A 
ATOM     12  C   UNL     1      -4.150  13.894  23.058  0.00  0.00    +0.000 A 
ATOM     13  C   UNL     1      -3.188  13.355  22.186  0.00  0.00    +0.000 A 
ATOM     14  C   UNL     1      -3.642  12.873  20.952  0.00  0.00    +0.000 A 
ATOM     15  C   UNL     1      -4.988  12.884  20.602  0.00  0.00    +0.000 A 
ATOM     16  C   UNL     1      -5.936  13.440  21.480  0.00  0.00    +0.000 A 
ATOM     17  N   UNL     1      -5.143  12.317  19.366  0.00  0.00    +0.000 NA
ATOM     18  N   UNL     1      -3.944  11.972  18.915  0.00  0.00    +0.000 NA
ATOM     19  N   UNL     1      -3.031  12.354  19.828  0.00  0.00    +0.000 N 
ENDBRANCH   4  19
ENDBRANCH   1   7
BRANCH   1  20
ATOM     20  C   UNL     1       1.411   7.825  20.463  0.00  0.00    +0.000 A 
ATOM     21  C   UNL     1       1.496   6.464  20.761  0.00  0.00    +0.000 A 
ATOM     22  C   UNL     1       2.184   5.613  19.894  0.00  0.00    +0.000 A 
ATOM     23  C   UNL     1       2.786   6.110  18.725  0.00  0.00    +0.000 A 
ATOM     24  C   UNL     1       2.612   7.460  18.389  0.00  0.00    +0.000 A 
ATOM     25  C   UNL     1       1.924   8.321  19.258  0.00  0.00    +0.000 A 
BRANCH  23  26
ATOM     26  C   UNL     1       3.589   5.160  17.896  0.00  0.00    +0.000 C 
ATOM     27  O   UNL     1       3.425   3.952  18.027  0.00  0.00    +0.000 OA
ATOM     28  N   UNL     1       4.538   5.709  17.050  0.00  0.00    +0.000 N 
ATOM     29  H   UNL     1       4.770   6.686  17.155  0.00  0.00    +0.000 HD
BRANCH  28  30
ATOM     30  C   UNL     1       5.481   4.867  16.330  0.00  0.00    +0.000 C 
ATOM     31  C   UNL     1       5.005   4.525  14.921  0.00  0.00    +0.000 C 
ATOM     32  C   UNL     1       6.271   4.068  14.208  0.00  0.00    +0.000 C 
ATOM     33  C   UNL     1       7.414   4.849  14.855  0.00  0.00    +0.000 C 
ATOM     34  C   UNL     1       6.821   5.556  16.074  0.00  0.00    +0.000 C 
ENDBRANCH  28  30
ENDBRANCH  23  26
ENDBRANCH   1  20
TORSDOF 5
ENDMDL
MODEL 4
REMARK VINA RESULT:      -8.0      3.205      4.101
REMARK  Name = 
REMARK  6 active torsions:
REMARK  status: ('A' for Active; 'I' for Inactive)
REMARK    1  A    between atoms: C_1  and  C_2
REMARK    2  A    between atoms: N_10  and  C_11
REMARK    3  A    between atoms: N_14  and  S_15
REMARK    4  A    between atoms: S_15  and  C_18
REMARK    5  A    between atoms: C_21  and  C_22
REMARK    6  A    between atoms: N_24  and  C_25
REMARK                            x       y       z     vdW  Elec       q    Type
REMARK                         _______ _______ _______ _____ _____    ______ ____
ROOT
ATOM      1  S   UNL     1       0.079  11.813  19.037  0.00  0.00    +0.000 S 
ATOM      2  O   UNL     1      -1.254  11.508  18.560  0.00  0.00    +0.000 OA
ATOM      3  O   UNL     1       0.942  12.724  18.332  0.00  0.00    +0.000 OA
ENDROOT
BRANCH   1   7
ATOM      4  C   UNL     1      -1.257  13.759  23.029  0.00  0.00    +0.000 C 
ATOM      5  C   UNL     1      -0.059  14.332  22.253  0.00  0.00    +0.000 C 
ATOM      6  C   UNL     1       0.042  13.865  20.801  0.00  0.00    +0.000 C 
ATOM      7  N   UNL     1      -0.054  12.380  20.689  0.00  0.00    +0.000 NA
ATOM      8  C   UNL     1      -1.292  11.846  21.337  0.00  0.00    +0.000 C 
ATOM      9  C   UNL     1      -1.371  12.252  22.805  0.00  0.00    +0.000 C 
BRANCH   4  19
ATOM     10  C   UNL     1      -7.915  14.050  24.342  0.00  0.00    +0.000 C 
ATOM     11  C   UNL     1      -6.470  14.055  23.924  0.00  0.00    +0.000 A 
ATOM     12  C   UNL     1      -5.709  12.877  23.950  0.00  0.00    +0.000 A 
ATOM     13  C   UNL     1      -4.350  12.861  23.588  0.00  0.00    +0.000 A 
ATOM     14  C   UNL     1      -3.780  14.077  23.190  0.00  0.00    +0.000 A 
ATOM     15  C   UNL     1      -4.520  15.253  23.114  0.00  0.00    +0.000 A 
ATOM     16  C   UNL     1      -5.874  15.254  23.494  0.00  0.00    +0.000 A 
ATOM     17  N   UNL     1      -3.721  16.266  22.660  0.00  0.00    +0.000 NA
ATOM     18  N   UNL     1      -2.501  15.779  22.469  0.00  0.00    +0.000 NA
ATOM     19  N   UNL     1      -2.509  14.485  22.841  0.00  0.00    +0.000 N 
ENDBRANCH   4  19
ENDBRANCH   1   7
BRANCH   1  20
ATOM     20  C   UNL     1       0.931  10.250  19.201  0.00  0.00    +0.000 A 
ATOM     21  C   UNL     1       1.593   9.727  18.089  0.00  0.00    +0.000 A 
ATOM     22  C   UNL     1       2.204   8.474  18.181  0.00  0.00    +0.000 A 
ATOM     23  C   UNL     1       2.163   7.740  19.379  0.00  0.00    +0.000 A 
ATOM     24  C   UNL     1       1.578   8.318  20.515  0.00  0.00    +0.000 A 
ATOM     25  C   UNL     1       0.960   9.575  20.427  0.00  0.00    +0.000 A 
BRANCH  23  26
ATOM     26  C   UNL     1       2.751   6.365  19.375  0.00  0.00    +0.000 C 
ATOM     27  O   UNL     1       3.969   6.227  19.347  0.00  0.00    +0.000 OA
ATOM     28  N   UNL     1       1.866   5.301  19.343  0.00  0.00    +0.000 N 
ATOM     29  H   UNL     1       0.893   5.489  19.146  0.00  0.00    +0.000 HD
BRANCH  28  30
ATOM     30  C   UNL     1       2.337   3.936  19.169  0.00  0.00    +0.000 C 
ATOM     31  C   UNL     1       1.325   2.900  19.651  0.00  0.00    +0.000 C 
ATOM     32  C   UNL     1       1.776   1.609  18.981  0.00  0.00    +0.000 C 
ATOM     33  C   UNL     1       2.416   2.031  17.659  0.00  0.00    +0.000 C 
ATOM     34  C   UNL     1       2.535   3.555  17.702  0.00  0.00    +0.000 C 
ENDBRANCH  28  30
ENDBRANCH  23  26
ENDBRANCH   1  20
TORSDOF 5
ENDMDL
MODEL 5
REMARK VINA RESULT:      -8.0      1.500      2.079
REMARK  Name = 
REMARK  6 active torsions:
REMARK  status: ('A' for Active; 'I' for Inactive)
REMARK    1  A    between atoms: C_1  and  C_2
REMARK    2  A    between atoms: N_10  and  C_11
REMARK    3  A    between atoms: N_14  and  S_15
REMARK    4  A    between atoms: S_15  and  C_18
REMARK    5  A    between atoms: C_21  and  C_22
REMARK    6  A    between atoms: N_24  and  C_25
REMARK                            x       y       z     vdW  Elec       q    Type
REMARK                         _______ _______ _______ _____ _____    ______ ____
ROOT
ATOM      1  S   UNL     1       0.363   9.145  21.692  0.00  0.00    +0.000 S 
ATOM      2  O   UNL     1       1.314   9.547  22.706  0.00  0.00    +0.000 OA
ATOM      3  O   UNL     1      -0.790   8.346  22.014  0.00  0.00    +0.000 OA
ENDROOT
BRANCH   1   7
ATOM      4  C   UNL     1      -2.158  12.607  19.910  0.00  0.00    +0.000 C 
ATOM      5  C   UNL     1      -1.510  11.565  18.981  0.00  0.00    +0.000 C 
ATOM      6  C   UNL     1      -1.043  10.289  19.683  0.00  0.00    +0.000 C 
ATOM      7  N   UNL     1      -0.204  10.590  20.878  0.00  0.00    +0.000 NA
ATOM      8  C   UNL     1      -0.898  11.503  21.839  0.00  0.00    +0.000 C 
ATOM      9  C   UNL     1      -1.311  12.808  21.165  0.00  0.00    +0.000 C 
BRANCH   4  19
ATOM     10  C   UNL     1      -7.384  13.675  24.114  0.00  0.00    +0.000 C 
ATOM     11  C   UNL     1      -6.292  13.311  23.145  0.00  0.00    +0.000 A 
ATOM     12  C   UNL     1      -4.945  13.342  23.534  0.00  0.00    +0.000 A 
ATOM     13  C   UNL     1      -3.906  13.031  22.639  0.00  0.00    +0.000 A 
ATOM     14  C   UNL     1      -4.270  12.679  21.333  0.00  0.00    +0.000 A 
ATOM     15  C   UNL     1      -5.599  12.600  20.931  0.00  0.00    +0.000 A 
ATOM     16  C   UNL     1      -6.626  12.929  21.833  0.00  0.00    +0.000 A 
ATOM     17  N   UNL     1      -5.656  12.196  19.624  0.00  0.00    +0.000 NA
ATOM     18  N   UNL     1      -4.415  12.042  19.182  0.00  0.00    +0.000 NA
ATOM     19  N   UNL     1      -3.575  12.386  20.177  0.00  0.00    +0.000 N 
ENDBRANCH   4  19
ENDBRANCH   1   7
BRANCH   1  20
ATOM     20  C   UNL     1       1.295   8.294  20.427  0.00  0.00    +0.000 A 
ATOM     21  C   UNL     1       1.649   6.960  20.636  0.00  0.00    +0.000 A 
ATOM     22  C   UNL     1       2.437   6.302  19.689  0.00  0.00    +0.000 A 
ATOM     23  C   UNL     1       2.872   6.966  18.529  0.00  0.00    +0.000 A 
ATOM     24  C   UNL     1       2.431   8.275  18.285  0.00  0.00    +0.000 A 
ATOM     25  C   UNL     1       1.641   8.941  19.234  0.00  0.00    +0.000 A 
BRANCH  23  26
ATOM     26  C   UNL     1       3.794   6.232  17.609  0.00  0.00    +0.000 C 
ATOM     27  O   UNL     1       3.552   5.068  17.309  0.00  0.00    +0.000 OA
ATOM     28  N   UNL     1       4.928   6.903  17.185  0.00  0.00    +0.000 N 
ATOM     29  H   UNL     1       5.175   7.770  17.643  0.00  0.00    +0.000 HD
BRANCH  28  30
ATOM     30  C   UNL     1       5.967   6.223  16.428  0.00  0.00    +0.000 C 
ATOM     31  C   UNL     1       6.577   5.051  17.191  0.00  0.00    +0.000 C 
ATOM     32  C   UNL     1       7.261   4.226  16.108  0.00  0.00    +0.000 C 
ATOM     33  C   UNL     1       6.434   4.440  14.841  0.00  0.00    +0.000 C 
ATOM     34  C   UNL     1       5.441   5.559  15.156  0.00  0.00    +0.000 C 
ENDBRANCH  28  30
ENDBRANCH  23  26
ENDBRANCH   1  20
TORSDOF 5
ENDMDL
MODEL 6
REMARK VINA RESULT:      -8.0      2.810      3.810
REMARK  Name = 
REMARK  6 active torsions:
REMARK  status: ('A' for Active; 'I' for Inactive)
REMARK    1  A    between atoms: C_1  and  C_2
REMARK    2  A    between atoms: N_10  and  C_11
REMARK    3  A    between atoms: N_14  and  S_15
REMARK    4  A    between atoms: S_15  and  C_18
REMARK    5  A    between atoms: C_21  and  C_22
REMARK    6  A    between atoms: N_24  and  C_25
REMARK                            x       y       z     vdW  Elec       q    Type
REMARK                         _______ _______ _______ _____ _____    ______ ____
ROOT
ATOM      1  S   UNL     1      -0.488  11.385  19.226  0.00  0.00    +0.000 S 
ATOM      2  O   UNL     1      -1.801  10.853  18.929  0.00  0.00    +0.000 OA
ATOM      3  O   UNL     1       0.072  12.476  18.474  0.00  0.00    +0.000 OA
ENDROOT
BRANCH   1   7
ATOM      4  C   UNL     1      -1.538  12.721  23.542  0.00  0.00    +0.000 C 
ATOM      5  C   UNL     1      -0.733  13.653  22.619  0.00  0.00    +0.000 C 
ATOM      6  C   UNL     1      -0.782  13.279  21.137  0.00  0.00    +0.000 C 
ATOM      7  N   UNL     1      -0.460  11.838  20.919  0.00  0.00    +0.000 NA
ATOM      8  C   UNL     1      -1.337  10.936  21.726  0.00  0.00    +0.000 C 
ATOM      9  C   UNL     1      -1.247  11.257  23.215  0.00  0.00    +0.000 C 
BRANCH   4  19
ATOM     10  C   UNL     1      -6.253  17.574  24.136  0.00  0.00    +0.000 C 
ATOM     11  C   UNL     1      -5.302  16.410  24.076  0.00  0.00    +0.000 A 
ATOM     12  C   UNL     1      -3.967  16.549  24.484  0.00  0.00    +0.000 A 
ATOM     13  C   UNL     1      -3.053  15.483  24.415  0.00  0.00    +0.000 A 
ATOM     14  C   UNL     1      -3.531  14.261  23.924  0.00  0.00    +0.000 A 
ATOM     15  C   UNL     1      -4.859  14.082  23.551  0.00  0.00    +0.000 A 
ATOM     16  C   UNL     1      -5.757  15.162  23.612  0.00  0.00    +0.000 A 
ATOM     17  N   UNL     1      -5.049  12.786  23.152  0.00  0.00    +0.000 NA
ATOM     18  N   UNL     1      -3.888  12.151  23.237  0.00  0.00    +0.000 NA
ATOM     19  N   UNL     1      -2.958  13.039  23.639  0.00  0.00    +0.000 N 
ENDBRANCH   4  19
ENDBRANCH   1   7
BRANCH   1  20
ATOM     20  C   UNL     1       0.650  10.009  19.145  0.00  0.00    +0.000 A 
ATOM     21  C   UNL     1       1.366   9.799  17.966  0.00  0.00    +0.000 A 
ATOM     22  C   UNL     1       2.206   8.687  17.862  0.00  0.00    +0.000 A 
ATOM     23  C   UNL     1       2.340   7.785  18.931  0.00  0.00    +0.000 A 
ATOM     24  C   UNL     1       1.689   8.059  20.142  0.00  0.00    +0.000 A 
ATOM     25  C   UNL     1       0.842   9.172  20.252  0.00  0.00    +0.000 A 
BRANCH  23  26
ATOM     26  C   UNL     1       3.178   6.566  18.713  0.00  0.00    +0.000 C 
ATOM     27  O   UNL     1       3.106   5.631  19.503  0.00  0.00    +0.000 OA
ATOM     28  N   UNL     1       4.053   6.585  17.640  0.00  0.00    +0.000 N 
ATOM     29  H   UNL     1       4.218   7.464  17.169  0.00  0.00    +0.000 HD
BRANCH  28  30
ATOM     30  C   UNL     1       5.026   5.522  17.443  0.00  0.00    +0.000 C 
ATOM     31  C   UNL     1       4.538   4.454  16.469  0.00  0.00    +0.000 C 
ATOM     32  C   UNL     1       5.812   3.729  16.053  0.00  0.00    +0.000 C 
ATOM     33  C   UNL     1       6.923   4.777  16.116  0.00  0.00    +0.000 C 
ATOM     34  C   UNL     1       6.318   6.010  16.788  0.00  0.00    +0.000 C 
ENDBRANCH  28  30
ENDBRANCH  23  26
ENDBRANCH   1  20
TORSDOF 5
ENDMDL
MODEL 7
REMARK VINA RESULT:      -7.9      1.284      1.908
REMARK  Name = 
REMARK  6 active torsions:
REMARK  status: ('A' for Active; 'I' for Inactive)
REMARK    1  A    between atoms: C_1  and  C_2
REMARK    2  A    between atoms: N_10  and  C_11
REMARK    3  A    between atoms: N_14  and  S_15
REMARK    4  A    between atoms: S_15  and  C_18
REMARK    5  A    between atoms: C_21  and  C_22
REMARK    6  A    between atoms: N_24  and  C_25
REMARK                            x       y       z     vdW  Elec       q    Type
REMARK                         _______ _______ _______ _____ _____    ______ ____
ROOT
ATOM      1  S   UNL     1       0.451   9.037  21.825  0.00  0.00    +0.000 S 
ATOM      2  O   UNL     1       1.405   9.535  22.792  0.00  0.00    +0.000 OA
ATOM      3  O   UNL     1      -0.782   8.416  22.232  0.00  0.00    +0.000 OA
ENDROOT
BRANCH   1   7
ATOM      4  C   UNL     1      -1.680  12.128  19.102  0.00  0.00    +0.000 C 
ATOM      5  C   UNL     1      -0.791  11.036  18.482  0.00  0.00    +0.000 C 
ATOM      6  C   UNL     1      -0.465   9.872  19.419  0.00  0.00    +0.000 C 
ATOM      7  N   UNL     1       0.049  10.350  20.736  0.00  0.00    +0.000 NA
ATOM      8  C   UNL     1      -0.888  11.315  21.390  0.00  0.00    +0.000 C 
ATOM      9  C   UNL     1      -1.170  12.514  20.490  0.00  0.00    +0.000 C 
BRANCH   4  19
ATOM     10  C   UNL     1      -7.917  14.049  20.986  0.00  0.00    +0.000 C 
ATOM     11  C   UNL     1      -6.586  13.485  20.569  0.00  0.00    +0.000 A 
ATOM     12  C   UNL     1      -5.412  13.829  21.253  0.00  0.00    +0.000 A 
ATOM     13  C   UNL     1      -4.154  13.334  20.867  0.00  0.00    +0.000 A 
ATOM     14  C   UNL     1      -4.117  12.470  19.765  0.00  0.00    +0.000 A 
ATOM     15  C   UNL     1      -5.269  12.079  19.092  0.00  0.00    +0.000 A 
ATOM     16  C   UNL     1      -6.518  12.594  19.482  0.00  0.00    +0.000 A 
ATOM     17  N   UNL     1      -4.938  11.206  18.091  0.00  0.00    +0.000 NA
ATOM     18  N   UNL     1      -3.621  11.052  18.092  0.00  0.00    +0.000 NA
ATOM     19  N   UNL     1      -3.111  11.851  19.050  0.00  0.00    +0.000 N 
ENDBRANCH   4  19
ENDBRANCH   1   7
BRANCH   1  20
ATOM     20  C   UNL     1       1.336   7.887  20.781  0.00  0.00    +0.000 A 
ATOM     21  C   UNL     1       1.978   8.372  19.641  0.00  0.00    +0.000 A 
ATOM     22  C   UNL     1       2.614   7.477  18.777  0.00  0.00    +0.000 A 
ATOM     23  C   UNL     1       2.618   6.098  19.047  0.00  0.00    +0.000 A 
ATOM     24  C   UNL     1       2.052   5.634  20.244  0.00  0.00    +0.000 A 
ATOM     25  C   UNL     1       1.409   6.529  21.113  0.00  0.00    +0.000 A 
BRANCH  23  26
ATOM     26  C   UNL     1       3.230   5.190  18.029  0.00  0.00    +0.000 C 
ATOM     27  O   UNL     1       2.928   4.002  18.016  0.00  0.00    +0.000 OA
ATOM     28  N   UNL     1       4.172   5.742  17.177  0.00  0.00    +0.000 N 
ATOM     29  H   UNL     1       4.531   6.663  17.387  0.00  0.00    +0.000 HD
BRANCH  28  30
ATOM     30  C   UNL     1       4.944   4.910  16.268  0.00  0.00    +0.000 C 
ATOM     31  C   UNL     1       5.304   5.633  14.973  0.00  0.00    +0.000 C 
ATOM     32  C   UNL     1       6.450   4.808  14.401  0.00  0.00    +0.000 C 
ATOM     33  C   UNL     1       7.181   4.222  15.608  0.00  0.00    +0.000 C 
ATOM     34  C   UNL     1       6.312   4.523  16.829  0.00  0.00    +0.000 C 
ENDBRANCH  28  30
ENDBRANCH  23  26
ENDBRANCH   1  20
TORSDOF 5
ENDMDL
MODEL 8
REMARK VINA RESULT:      -7.9      2.085      2.826
REMARK  Name = 
REMARK  6 active torsions:
REMARK  status: ('A' for Active; 'I' for Inactive)
REMARK    1  A    between atoms: C_1  and  C_2
REMARK    2  A    between atoms: N_10  and  C_11
REMARK    3  A    between atoms: N_14  and  S_15
REMARK    4  A    between atoms: S_15  and  C_18
REMARK    5  A    between atoms: C_21  and  C_22
REMARK    6  A    between atoms: N_24  and  C_25
REMARK                            x       y       z     vdW  Elec       q    Type
REMARK                         _______ _______ _______ _____ _____    ______ ____
ROOT
ATOM      1  S   UNL     1      -0.247  11.329  18.994  0.00  0.00    +0.000 S 
ATOM      2  O   UNL     1      -1.556  10.840  18.615  0.00  0.00    +0.000 OA
ATOM      3  O   UNL     1       0.392  12.404  18.281  0.00  0.00    +0.000 OA
ENDROOT
BRANCH   1   7
ATOM      4  C   UNL     1      -1.509  12.688  23.245  0.00  0.00    +0.000 C 
ATOM      5  C   UNL     1      -0.618  13.593  22.377  0.00  0.00    +0.000 C 
ATOM      6  C   UNL     1      -0.590  13.226  20.893  0.00  0.00    +0.000 C 
ATOM      7  N   UNL     1      -0.305  11.776  20.687  0.00  0.00    +0.000 NA
ATOM      8  C   UNL     1      -1.261  10.902  21.434  0.00  0.00    +0.000 C 
ATOM      9  C   UNL     1      -1.250  11.216  22.928  0.00  0.00    +0.000 C 
BRANCH   4  19
ATOM     10  C   UNL     1      -7.463  12.497  19.982  0.00  0.00    +0.000 C 
ATOM     11  C   UNL     1      -6.189  12.667  20.764  0.00  0.00    +0.000 A 
ATOM     12  C   UNL     1      -4.940  12.559  20.137  0.00  0.00    +0.000 A 
ATOM     13  C   UNL     1      -3.736  12.689  20.852  0.00  0.00    +0.000 A 
ATOM     14  C   UNL     1      -3.831  12.940  22.226  0.00  0.00    +0.000 A 
ATOM     15  C   UNL     1      -5.056  13.093  22.868  0.00  0.00    +0.000 A 
ATOM     16  C   UNL     1      -6.251  12.945  22.142  0.00  0.00    +0.000 A 
ATOM     17  N   UNL     1      -4.845  13.368  24.192  0.00  0.00    +0.000 NA
ATOM     18  N   UNL     1      -3.537  13.370  24.413  0.00  0.00    +0.000 NA
ATOM     19  N   UNL     1      -2.921  13.055  23.257  0.00  0.00    +0.000 N 
ENDBRANCH   4  19
ENDBRANCH   1   7
BRANCH   1  20
ATOM     20  C   UNL     1       0.850   9.917  18.973  0.00  0.00    +0.000 A 
ATOM     21  C   UNL     1       1.581   9.652  17.815  0.00  0.00    +0.000 A 
ATOM     22  C   UNL     1       2.388   8.513  17.759  0.00  0.00    +0.000 A 
ATOM     23  C   UNL     1       2.475   7.638  18.855  0.00  0.00    +0.000 A 
ATOM     24  C   UNL     1       1.810   7.966  20.045  0.00  0.00    +0.000 A 
ATOM     25  C   UNL     1       0.995   9.107  20.106  0.00  0.00    +0.000 A 
BRANCH  23  26
ATOM     26  C   UNL     1       3.279   6.388  18.688  0.00  0.00    +0.000 C 
ATOM     27  O   UNL     1       3.178   5.488  19.514  0.00  0.00    +0.000 OA
ATOM     28  N   UNL     1       4.156   6.342  17.618  0.00  0.00    +0.000 N 
ATOM     29  H   UNL     1       4.347   7.196  17.113  0.00  0.00    +0.000 HD
BRANCH  28  30
ATOM     30  C   UNL     1       5.099   5.245  17.466  0.00  0.00    +0.000 C 
ATOM     31  C   UNL     1       5.472   4.989  16.009  0.00  0.00    +0.000 C 
ATOM     32  C   UNL     1       6.756   4.174  16.097  0.00  0.00    +0.000 C 
ATOM     33  C   UNL     1       7.452   4.636  17.376  0.00  0.00    +0.000 C 
ATOM     34  C   UNL     1       6.454   5.528  18.115  0.00  0.00    +0.000 C 
ENDBRANCH  28  30
ENDBRANCH  23  26
ENDBRANCH   1  20
TORSDOF 5
ENDMDL
MODEL 9
REMARK VINA RESULT:      -7.9      1.328      2.146
REMARK  Name = 
REMARK  6 active torsions:
REMARK  status: ('A' for Active; 'I' for Inactive)
REMARK    1  A    between atoms: C_1  and  C_2
REMARK    2  A    between atoms: N_10  and  C_11
REMARK    3  A    between atoms: N_14  and  S_15
REMARK    4  A    between atoms: S_15  and  C_18
REMARK    5  A    between atoms: C_21  and  C_22
REMARK    6  A    between atoms: N_24  and  C_25
REMARK                            x       y       z     vdW  Elec       q    Type
REMARK                         _______ _______ _______ _____ _____    ______ ____
ROOT
ATOM      1  S   UNL     1       0.515   8.845  21.521  0.00  0.00    +0.000 S 
ATOM      2  O   UNL     1       1.420   9.325  22.544  0.00  0.00    +0.000 OA
ATOM      3  O   UNL     1      -0.726   8.197  21.855  0.00  0.00    +0.000 OA
ENDROOT
BRANCH   1   7
ATOM      4  C   UNL     1      -1.462  12.388  19.273  0.00  0.00    +0.000 C 
ATOM      5  C   UNL     1      -1.237  11.046  18.555  0.00  0.00    +0.000 C 
ATOM      6  C   UNL     1      -0.944   9.867  19.484  0.00  0.00    +0.000 C 
ATOM      7  N   UNL     1       0.143  10.185  20.455  0.00  0.00    +0.000 NA
ATOM      8  C   UNL     1      -0.148  11.424  21.241  0.00  0.00    +0.000 C 
ATOM      9  C   UNL     1      -0.378  12.622  20.325  0.00  0.00    +0.000 C 
BRANCH   4  19
ATOM     10  C   UNL     1      -5.636  16.248  22.988  0.00  0.00    +0.000 C 
ATOM     11  C   UNL     1      -4.799  15.279  22.200  0.00  0.00    +0.000 A 
ATOM     12  C   UNL     1      -3.410  15.213  22.382  0.00  0.00    +0.000 A 
ATOM     13  C   UNL     1      -2.603  14.333  21.639  0.00  0.00    +0.000 A 
ATOM     14  C   UNL     1      -3.245  13.511  20.705  0.00  0.00    +0.000 A 
ATOM     15  C   UNL     1      -4.626  13.524  20.531  0.00  0.00    +0.000 A 
ATOM     16  C   UNL     1      -5.417  14.421  21.271  0.00  0.00    +0.000 A 
ATOM     17  N   UNL     1      -4.975  12.596  19.589  0.00  0.00    +0.000 NA
ATOM     18  N   UNL     1      -3.867  12.016  19.145  0.00  0.00    +0.000 NA
ATOM     19  N   UNL     1      -2.820  12.598  19.761  0.00  0.00    +0.000 N 
ENDBRANCH   4  19
ENDBRANCH   1   7
BRANCH   1  20
ATOM     20  C   UNL     1       1.460   7.738  20.483  0.00  0.00    +0.000 A 
ATOM     21  C   UNL     1       2.028   8.238  19.311  0.00  0.00    +0.000 A 
ATOM     22  C   UNL     1       2.710   7.371  18.453  0.00  0.00    +0.000 A 
ATOM     23  C   UNL     1       2.833   6.005  18.761  0.00  0.00    +0.000 A 
ATOM     24  C   UNL     1       2.340   5.534  19.987  0.00  0.00    +0.000 A 
ATOM     25  C   UNL     1       1.652   6.400  20.851  0.00  0.00    +0.000 A 
BRANCH  23  26
ATOM     26  C   UNL     1       3.488   5.118  17.751  0.00  0.00    +0.000 C 
ATOM     27  O   UNL     1       3.027   4.003  17.534  0.00  0.00    +0.000 OA
ATOM     28  N   UNL     1       4.639   5.594  17.147  0.00  0.00    +0.000 N 
ATOM     29  H   UNL     1       5.080   6.418  17.531  0.00  0.00    +0.000 HD
BRANCH  28  30
ATOM     30  C   UNL     1       5.440   4.745  16.279  0.00  0.00    +0.000 C 
ATOM     31  C   UNL     1       4.858   4.628  14.874  0.00  0.00    +0.000 C 
ATOM     32  C   UNL     1       6.026   4.121  14.037  0.00  0.00    +0.000 C 
ATOM     33  C   UNL     1       7.283   4.688  14.694  0.00  0.00    +0.000 C 
ATOM     34  C   UNL     1       6.838   5.306  16.019  0.00  0.00    +0.000 C 
ENDBRANCH  28  30
ENDBRANCH  23  26
ENDBRANCH   1  20
TORSDOF 5
ENDMDL
