MODEL 1
REMARK VINA RESULT:      -8.3      0.000      0.000
REMARK  Name = 
REMARK  16 active torsions:
REMARK  status: ('A' for Active; 'I' for Inactive)
REMARK    1  A    between atoms: C_1  and  O_2
REMARK    2  A    between atoms: O_2  and  C_3
REMARK    3  A    between atoms: C_8  and  C_9
REMARK    4  A    between atoms: C_12  and  C_13
REMARK    5  A    between atoms: C_13  and  O_14
REMARK    6  A    between atoms: O_14  and  C_15
REMARK    7  A    between atoms: C_19  and  C_20
REMARK    8  A    between atoms: C_20  and  C_21
REMARK    9  A    between atoms: C_20  and  C_25
REMARK   10  A    between atoms: C_21  and  C_22
REMARK   11  A    between atoms: C_22  and  O_24
REMARK   12  A    between atoms: C_30  and  C_31
REMARK   13  A    between atoms: C_31  and  C_32
REMARK   14  A    between atoms: C_32  and  C_33
REMARK   15  A    between atoms: C_32  and  C_34
REMARK   16  A    between atoms: C_32  and  C_35
REMARK                            x       y       z     vdW  Elec       q    Type
REMARK                         _______ _______ _______ _____ _____    ______ ____
ROOT
ATOM      1  C   UNL     1       3.254   6.407  18.632  0.00  0.00    +0.000 A 
ATOM      2  C   UNL     1       2.717   7.675  18.311  0.00  0.00    +0.000 A 
ATOM      3  C   UNL     1       1.804   8.331  19.133  0.00  0.00    +0.000 A 
ATOM      4  C   UNL     1       1.378   7.697  20.282  0.00  0.00    +0.000 A 
ATOM      5  N   UNL     1       1.838   6.474  20.624  0.00  0.00    +0.000 NA
ATOM      6  C   UNL     1       2.767   5.845  19.832  0.00  0.00    +0.000 A 
ENDROOT
BRANCH   1  12
ATOM      7  C   UNL     1       6.495   5.877  16.639  0.00  0.00    +0.000 A 
ATOM      8  C   UNL     1       6.183   4.755  15.877  0.00  0.00    +0.000 A 
ATOM      9  C   UNL     1       4.940   4.157  16.035  0.00  0.00    +0.000 A 
ATOM     10  C   UNL     1       4.012   4.708  16.919  0.00  0.00    +0.000 A 
ATOM     11  F   UNL     1       2.810   4.111  16.966  0.00  0.00    +0.000 F 
ATOM     12  C   UNL     1       4.296   5.829  17.729  0.00  0.00    +0.000 A 
ATOM     13  C   UNL     1       5.602   6.339  17.618  0.00  0.00    +0.000 A 
BRANCH   7  15
ATOM     14  C   UNL     1       7.762   7.688  17.396  0.00  0.00    +0.000 C 
ATOM     15  O   UNL     1       7.662   6.580  16.497  0.00  0.00    +0.000 OA
ENDBRANCH   7  15
ENDBRANCH   1  12
BRANCH   4  16
ATOM     16  C   UNL     1       0.369   8.371  21.183  0.00  0.00    +0.000 C 
BRANCH  16  17
ATOM     17  O   UNL     1       0.759   9.738  21.353  0.00  0.00    +0.000 OA
BRANCH  17  18
ATOM     18  C   UNL     1      -0.236  10.658  21.174  0.00  0.00    +0.000 A 
ATOM     19  C   UNL     1      -0.692  10.805  19.865  0.00  0.00    +0.000 A 
ATOM     20  C   UNL     1      -1.687  11.734  19.571  0.00  0.00    +0.000 A 
ATOM     21  C   UNL     1      -2.226  12.521  20.588  0.00  0.00    +0.000 A 
ATOM     22  C   UNL     1      -1.770  12.399  21.913  0.00  0.00    +0.000 A 
ATOM     23  C   UNL     1      -0.758  11.466  22.189  0.00  0.00    +0.000 A 
BRANCH  22  24
ATOM     24  C   UNL     1      -2.457  13.208  23.006  0.00  0.00    +0.000 C 
BRANCH  24  25
ATOM     25  C   UNL     1      -1.527  14.104  23.799  0.00  0.00    +0.000 C 
ATOM     26  C   UNL     1      -0.744  15.240  23.186  0.00  0.00    +0.000 C 
ATOM     27  C   UNL     1      -1.946  15.538  24.034  0.00  0.00    +0.000 C 
ENDBRANCH  24  25
BRANCH  24  28
ATOM     28  C   UNL     1      -3.292  12.302  23.926  0.00  0.00    +0.000 C 
BRANCH  28  29
ATOM     29  C   UNL     1      -4.686  12.815  24.195  0.00  0.00    +0.000 C 
ATOM     30  O   UNL     1      -5.111  13.886  23.780  0.00  0.00    +0.000 OA
BRANCH  29  31
ATOM     31  O   UNL     1      -5.445  11.989  24.947  0.00  0.00    +0.000 OA
ATOM     32  H   UNL     1      -5.721  12.366  25.806  0.00  0.00    +0.000 HD
ENDBRANCH  29  31
ENDBRANCH  28  29
ENDBRANCH  24  28
ENDBRANCH  22  24
ENDBRANCH  17  18
ENDBRANCH  16  17
ENDBRANCH   4  16
BRANCH   6  33
ATOM     33  C   UNL     1       3.176   4.510  20.414  0.00  0.00    +0.000 C 
BRANCH  33  34
ATOM     34  C   UNL     1       2.181   3.324  20.292  0.00  0.00    +0.000 C 
ATOM     35  C   UNL     1       0.933   3.734  19.491  0.00  0.00    +0.000 C 
ATOM     36  C   UNL     1       2.918   2.185  19.550  0.00  0.00    +0.000 C 
ATOM     37  C   UNL     1       1.737   2.784  21.661  0.00  0.00    +0.000 C 
ENDBRANCH  33  34
ENDBRANCH   6  33
TORSDOF 12
ENDMDL
MODEL 2
REMARK VINA RESULT:      -8.2      2.699      3.541
REMARK  Name = 
REMARK  16 active torsions:
REMARK  status: ('A' for Active; 'I' for Inactive)
REMARK    1  A    between atoms: C_1  and  O_2
REMARK    2  A    between atoms: O_2  and  C_3
REMARK    3  A    between atoms: C_8  and  C_9
REMARK    4  A    between atoms: C_12  and  C_13
REMARK    5  A    between atoms: C_13  and  O_14
REMARK    6  A    between atoms: O_14  and  C_15
REMARK    7  A    between atoms: C_19  and  C_20
REMARK    8  A    between atoms: C_20  and  C_21
REMARK    9  A    between atoms: C_20  and  C_25
REMARK   10  A    between atoms: C_21  and  C_22
REMARK   11  A    between atoms: C_22  and  O_24
REMARK   12  A    between atoms: C_30  and  C_31
REMARK   13  A    between atoms: C_31  and  C_32
REMARK   14  A    between atoms: C_32  and  C_33
REMARK   15  A    between atoms: C_32  and  C_34
REMARK   16  A    between atoms: C_32  and  C_35
REMARK                            x       y       z     vdW  Elec       q    Type
REMARK                         _______ _______ _______ _____ _____    ______ ____
ROOT
ATOM      1  C   UNL     1       3.844   5.903  18.516  0.00  0.00    +0.000 A 
ATOM      2  C   UNL     1       3.382   7.237  18.463  0.00  0.00    +0.000 A 
ATOM      3  C   UNL     1       2.392   7.721  19.314  0.00  0.00    +0.000 A 
ATOM      4  C   UNL     1       1.814   6.850  20.214  0.00  0.00    +0.000 A 
ATOM      5  N   UNL     1       2.198   5.557  20.290  0.00  0.00    +0.000 NA
ATOM      6  C   UNL     1       3.201   5.092  19.476  0.00  0.00    +0.000 A 
ENDROOT
BRANCH   1  12
ATOM      7  C   UNL     1       5.903   4.933  15.421  0.00  0.00    +0.000 A 
ATOM      8  C   UNL     1       7.133   4.606  15.985  0.00  0.00    +0.000 A 
ATOM      9  C   UNL     1       7.300   4.732  17.358  0.00  0.00    +0.000 A 
ATOM     10  C   UNL     1       6.229   5.142  18.152  0.00  0.00    +0.000 A 
ATOM     11  F   UNL     1       6.451   5.175  19.476  0.00  0.00    +0.000 F 
ATOM     12  C   UNL     1       4.974   5.507  17.620  0.00  0.00    +0.000 A 
ATOM     13  C   UNL     1       4.880   5.470  16.217  0.00  0.00    +0.000 A 
BRANCH   7  15
ATOM     14  C   UNL     1       6.284   3.640  13.513  0.00  0.00    +0.000 C 
ATOM     15  O   UNL     1       5.620   4.768  14.091  0.00  0.00    +0.000 OA
ENDBRANCH   7  15
ENDBRANCH   1  12
BRANCH   4  16
ATOM     16  C   UNL     1       0.719   7.336  21.135  0.00  0.00    +0.000 C 
BRANCH  16  17
ATOM     17  O   UNL     1       1.179   8.521  21.796  0.00  0.00    +0.000 OA
BRANCH  17  18
ATOM     18  C   UNL     1       0.309   9.575  21.783  0.00  0.00    +0.000 A 
ATOM     19  C   UNL     1      -0.290   9.877  23.005  0.00  0.00    +0.000 A 
ATOM     20  C   UNL     1      -1.212  10.917  23.095  0.00  0.00    +0.000 A 
ATOM     21  C   UNL     1      -1.538  11.656  21.959  0.00  0.00    +0.000 A 
ATOM     22  C   UNL     1      -0.956  11.359  20.713  0.00  0.00    +0.000 A 
ATOM     23  C   UNL     1      -0.039  10.299  20.639  0.00  0.00    +0.000 A 
BRANCH  22  24
ATOM     24  C   UNL     1      -1.267  12.256  19.521  0.00  0.00    +0.000 C 
BRANCH  24  25
ATOM     25  C   UNL     1      -1.003  13.728  19.760  0.00  0.00    +0.000 C 
ATOM     26  C   UNL     1       0.322  14.268  20.243  0.00  0.00    +0.000 C 
ATOM     27  C   UNL     1      -0.078  14.451  18.807  0.00  0.00    +0.000 C 
ENDBRANCH  24  25
BRANCH  24  28
ATOM     28  C   UNL     1      -2.694  12.012  19.002  0.00  0.00    +0.000 C 
BRANCH  28  29
ATOM     29  C   UNL     1      -2.753  11.472  17.593  0.00  0.00    +0.000 C 
ATOM     30  O   UNL     1      -1.911  10.725  17.113  0.00  0.00    +0.000 OA
BRANCH  29  31
ATOM     31  O   UNL     1      -3.826  11.888  16.886  0.00  0.00    +0.000 OA
ATOM     32  H   UNL     1      -4.585  11.271  16.907  0.00  0.00    +0.000 HD
ENDBRANCH  29  31
ENDBRANCH  28  29
ENDBRANCH  24  28
ENDBRANCH  22  24
ENDBRANCH  17  18
ENDBRANCH  16  17
ENDBRANCH   4  16
BRANCH   6  33
ATOM     33  C   UNL     1       3.503   3.635  19.749  0.00  0.00    +0.000 C 
BRANCH  33  34
ATOM     34  C   UNL     1       2.785   2.564  18.884  0.00  0.00    +0.000 C 
ATOM     35  C   UNL     1       3.730   1.393  18.563  0.00  0.00    +0.000 C 
ATOM     36  C   UNL     1       1.582   2.045  19.704  0.00  0.00    +0.000 C 
ATOM     37  C   UNL     1       2.242   3.139  17.565  0.00  0.00    +0.000 C 
ENDBRANCH  33  34
ENDBRANCH   6  33
TORSDOF 12
ENDMDL
MODEL 3
REMARK VINA RESULT:      -8.2      2.721     11.093
REMARK  Name = 
REMARK  16 active torsions:
REMARK  status: ('A' for Active; 'I' for Inactive)
REMARK    1  A    between atoms: C_1  and  O_2
REMARK    2  A    between atoms: O_2  and  C_3
REMARK    3  A    between atoms: C_8  and  C_9
REMARK    4  A    between atoms: C_12  and  C_13
REMARK    5  A    between atoms: C_13  and  O_14
REMARK    6  A    between atoms: O_14  and  C_15
REMARK    7  A    between atoms: C_19  and  C_20
REMARK    8  A    between atoms: C_20  and  C_21
REMARK    9  A    between atoms: C_20  and  C_25
REMARK   10  A    between atoms: C_21  and  C_22
REMARK   11  A    between atoms: C_22  and  O_24
REMARK   12  A    between atoms: C_30  and  C_31
REMARK   13  A    between atoms: C_31  and  C_32
REMARK   14  A    between atoms: C_32  and  C_33
REMARK   15  A    between atoms: C_32  and  C_34
REMARK   16  A    between atoms: C_32  and  C_35
REMARK                            x       y       z     vdW  Elec       q    Type
REMARK                         _______ _______ _______ _____ _____    ______ ____
ROOT
ATOM      1  C   UNL     1      -0.524  11.134  20.361  0.00  0.00    +0.000 A 
ATOM      2  C   UNL     1       0.520  10.286  20.795  0.00  0.00    +0.000 A 
ATOM      3  C   UNL     1       1.239   9.475  19.921  0.00  0.00    +0.000 A 
ATOM      4  C   UNL     1       0.887   9.471  18.586  0.00  0.00    +0.000 A 
ATOM      5  N   UNL     1      -0.120  10.243  18.121  0.00  0.00    +0.000 NA
ATOM      6  C   UNL     1      -0.802  11.069  18.978  0.00  0.00    +0.000 A 
ENDROOT
BRANCH   1  12
ATOM      7  C   UNL     1      -2.737  12.457  23.209  0.00  0.00    +0.000 A 
ATOM      8  C   UNL     1      -2.484  13.824  23.158  0.00  0.00    +0.000 A 
ATOM      9  C   UNL     1      -1.574  14.308  22.227  0.00  0.00    +0.000 A 
ATOM     10  C   UNL     1      -0.963  13.428  21.333  0.00  0.00    +0.000 A 
ATOM     11  F   UNL     1      -0.148  13.981  20.421  0.00  0.00    +0.000 F 
ATOM     12  C   UNL     1      -1.172  12.032  21.366  0.00  0.00    +0.000 A 
ATOM     13  C   UNL     1      -2.015  11.572  22.393  0.00  0.00    +0.000 A 
BRANCH   7  15
ATOM     14  C   UNL     1      -4.741  12.792  24.363  0.00  0.00    +0.000 C 
ATOM     15  O   UNL     1      -3.673  11.897  24.039  0.00  0.00    +0.000 OA
ENDBRANCH   7  15
ENDBRANCH   1  12
BRANCH   4  16
ATOM     16  C   UNL     1       1.629   8.583  17.615  0.00  0.00    +0.000 C 
BRANCH  16  17
ATOM     17  O   UNL     1       2.912   8.276  18.175  0.00  0.00    +0.000 OA
BRANCH  17  18
ATOM     18  C   UNL     1       3.393   7.029  17.888  0.00  0.00    +0.000 A 
ATOM     19  C   UNL     1       2.505   5.977  18.104  0.00  0.00    +0.000 A 
ATOM     20  C   UNL     1       2.905   4.664  17.867  0.00  0.00    +0.000 A 
ATOM     21  C   UNL     1       4.198   4.403  17.414  0.00  0.00    +0.000 A 
ATOM     22  C   UNL     1       5.114   5.450  17.202  0.00  0.00    +0.000 A 
ATOM     23  C   UNL     1       4.697   6.765  17.459  0.00  0.00    +0.000 A 
BRANCH  22  24
ATOM     24  C   UNL     1       6.481   5.125  16.612  0.00  0.00    +0.000 C 
BRANCH  24  25
ATOM     25  C   UNL     1       6.447   4.151  15.453  0.00  0.00    +0.000 C 
ATOM     26  C   UNL     1       5.503   4.284  14.281  0.00  0.00    +0.000 C 
ATOM     27  C   UNL     1       6.956   4.623  14.109  0.00  0.00    +0.000 C 
ENDBRANCH  24  25
BRANCH  24  28
ATOM     28  C   UNL     1       7.462   4.671  17.706  0.00  0.00    +0.000 C 
BRANCH  28  29
ATOM     29  C   UNL     1       7.602   5.647  18.850  0.00  0.00    +0.000 C 
ATOM     30  O   UNL     1       7.315   5.383  20.011  0.00  0.00    +0.000 OA
BRANCH  29  31
ATOM     31  O   UNL     1       8.075   6.859  18.490  0.00  0.00    +0.000 OA
ATOM     32  H   UNL     1       7.535   7.612  18.803  0.00  0.00    +0.000 HD
ENDBRANCH  29  31
ENDBRANCH  28  29
ENDBRANCH  24  28
ENDBRANCH  22  24
ENDBRANCH  17  18
ENDBRANCH  16  17
ENDBRANCH   4  16
BRANCH   6  33
ATOM     33  C   UNL     1      -1.858  11.871  18.249  0.00  0.00    +0.000 C 
BRANCH  33  34
ATOM     34  C   UNL     1      -2.999  11.099  17.534  0.00  0.00    +0.000 C 
ATOM     35  C   UNL     1      -2.792  11.102  16.009  0.00  0.00    +0.000 C 
ATOM     36  C   UNL     1      -2.961   9.644  18.055  0.00  0.00    +0.000 C 
ATOM     37  C   UNL     1      -4.388  11.675  17.847  0.00  0.00    +0.000 C 
ENDBRANCH  33  34
ENDBRANCH   6  33
TORSDOF 12
ENDMDL
MODEL 4
REMARK VINA RESULT:      -8.1      1.150      1.928
REMARK  Name = 
REMARK  16 active torsions:
REMARK  status: ('A' for Active; 'I' for Inactive)
REMARK    1  A    between atoms: C_1  and  O_2
REMARK    2  A    between atoms: O_2  and  C_3
REMARK    3  A    between atoms: C_8  and  C_9
REMARK    4  A    between atoms: C_12  and  C_13
REMARK    5  A    between atoms: C_13  and  O_14
REMARK    6  A    between atoms: O_14  and  C_15
REMARK    7  A    between atoms: C_19  and  C_20
REMARK    8  A    between atoms: C_20  and  C_21
REMARK    9  A    between atoms: C_20  and  C_25
REMARK   10  A    between atoms: C_21  and  C_22
REMARK   11  A    between atoms: C_22  and  O_24
REMARK   12  A    between atoms: C_30  and  C_31
REMARK   13  A    between atoms: C_31  and  C_32
REMARK   14  A    between atoms: C_32  and  C_33
REMARK   15  A    between atoms: C_32  and  C_34
REMARK   16  A    between atoms: C_32  and  C_35
REMARK                            x       y       z     vdW  Elec       q    Type
REMARK                         _______ _______ _______ _____ _____    ______ ____
ROOT
ATOM      1  C   UNL     1       3.080   6.365  18.855  0.00  0.00    +0.000 A 
ATOM      2  C   UNL     1       2.618   7.623  18.406  0.00  0.00    +0.000 A 
ATOM      3  C   UNL     1       1.737   8.405  19.149  0.00  0.00    +0.000 A 
ATOM      4  C   UNL     1       1.267   7.909  20.348  0.00  0.00    +0.000 A 
ATOM      5  N   UNL     1       1.655   6.701  20.812  0.00  0.00    +0.000 NA
ATOM      6  C   UNL     1       2.553   5.949  20.097  0.00  0.00    +0.000 A 
ENDROOT
BRANCH   1  12
ATOM      7  C   UNL     1       6.370   5.347  17.152  0.00  0.00    +0.000 A 
ATOM      8  C   UNL     1       5.951   4.325  16.306  0.00  0.00    +0.000 A 
ATOM      9  C   UNL     1       4.614   3.948  16.313  0.00  0.00    +0.000 A 
ATOM     10  C   UNL     1       3.709   4.621  17.133  0.00  0.00    +0.000 A 
ATOM     11  F   UNL     1       2.424   4.243  17.035  0.00  0.00    +0.000 F 
ATOM     12  C   UNL     1       4.095   5.646  18.024  0.00  0.00    +0.000 A 
ATOM     13  C   UNL     1       5.474   5.923  18.065  0.00  0.00    +0.000 A 
BRANCH   7  15
ATOM     14  C   UNL     1       7.824   6.931  18.066  0.00  0.00    +0.000 C 
ATOM     15  O   UNL     1       7.649   5.839  17.158  0.00  0.00    +0.000 OA
ENDBRANCH   7  15
ENDBRANCH   1  12
BRANCH   4  16
ATOM     16  C   UNL     1       0.290   8.721  21.166  0.00  0.00    +0.000 C 
BRANCH  16  17
ATOM     17  O   UNL     1       0.944   9.924  21.587  0.00  0.00    +0.000 OA
BRANCH  17  18
ATOM     18  C   UNL     1       0.222  11.073  21.419  0.00  0.00    +0.000 A 
ATOM     19  C   UNL     1       0.882  12.108  20.758  0.00  0.00    +0.000 A 
ATOM     20  C   UNL     1       0.244  13.330  20.559  0.00  0.00    +0.000 A 
ATOM     21  C   UNL     1      -1.057  13.518  21.024  0.00  0.00    +0.000 A 
ATOM     22  C   UNL     1      -1.736  12.492  21.705  0.00  0.00    +0.000 A 
ATOM     23  C   UNL     1      -1.072  11.272  21.909  0.00  0.00    +0.000 A 
BRANCH  22  24
ATOM     24  C   UNL     1      -3.189  12.709  22.107  0.00  0.00    +0.000 C 
BRANCH  24  25
ATOM     25  C   UNL     1      -4.084  13.187  20.982  0.00  0.00    +0.000 C 
ATOM     26  C   UNL     1      -4.319  12.401  19.715  0.00  0.00    +0.000 C 
ATOM     27  C   UNL     1      -5.396  12.469  20.759  0.00  0.00    +0.000 C 
ENDBRANCH  24  25
BRANCH  24  28
ATOM     28  C   UNL     1      -3.292  13.621  23.340  0.00  0.00    +0.000 C 
BRANCH  28  29
ATOM     29  C   UNL     1      -4.007  12.992  24.513  0.00  0.00    +0.000 C 
ATOM     30  O   UNL     1      -4.749  12.022  24.420  0.00  0.00    +0.000 OA
BRANCH  29  31
ATOM     31  O   UNL     1      -3.764  13.594  25.697  0.00  0.00    +0.000 OA
ATOM     32  H   UNL     1      -3.970  13.043  26.478  0.00  0.00    +0.000 HD
ENDBRANCH  29  31
ENDBRANCH  28  29
ENDBRANCH  24  28
ENDBRANCH  22  24
ENDBRANCH  17  18
ENDBRANCH  16  17
ENDBRANCH   4  16
BRANCH   6  33
ATOM     33  C   UNL     1       2.882   4.656  20.809  0.00  0.00    +0.000 C 
BRANCH  33  34
ATOM     34  C   UNL     1       2.036   3.399  20.471  0.00  0.00    +0.000 C 
ATOM     35  C   UNL     1       2.870   2.371  19.684  0.00  0.00    +0.000 C 
ATOM     36  C   UNL     1       1.585   2.777  21.812  0.00  0.00    +0.000 C 
ATOM     37  C   UNL     1       0.774   3.737  19.661  0.00  0.00    +0.000 C 
ENDBRANCH  33  34
ENDBRANCH   6  33
TORSDOF 12
ENDMDL
MODEL 5
REMARK VINA RESULT:      -8.0      2.721      3.557
REMARK  Name = 
REMARK  16 active torsions:
REMARK  status: ('A' for Active; 'I' for Inactive)
REMARK    1  A    between atoms: C_1  and  O_2
REMARK    2  A    between atoms: O_2  and  C_3
REMARK    3  A    between atoms: C_8  and  C_9
REMARK    4  A    between atoms: C_12  and  C_13
REMARK    5  A    between atoms: C_13  and  O_14
REMARK    6  A    between atoms: O_14  and  C_15
REMARK    7  A    between atoms: C_19  and  C_20
REMARK    8  A    between atoms: C_20  and  C_21
REMARK    9  A    between atoms: C_20  and  C_25
REMARK   10  A    between atoms: C_21  and  C_22
REMARK   11  A    between atoms: C_22  and  O_24
REMARK   12  A    between atoms: C_30  and  C_31
REMARK   13  A    between atoms: C_31  and  C_32
REMARK   14  A    between atoms: C_32  and  C_33
REMARK   15  A    between atoms: C_32  and  C_34
REMARK   16  A    between atoms: C_32  and  C_35
REMARK                            x       y       z     vdW  Elec       q    Type
REMARK                         _______ _______ _______ _____ _____    ______ ____
ROOT
ATOM      1  C   UNL     1       3.905   6.418  17.984  0.00  0.00    +0.000 A 
ATOM      2  C   UNL     1       3.567   7.716  17.536  0.00  0.00    +0.000 A 
ATOM      3  C   UNL     1       2.613   8.504  18.176  0.00  0.00    +0.000 A 
ATOM      4  C   UNL     1       1.945   7.977  19.262  0.00  0.00    +0.000 A 
ATOM      5  N   UNL     1       2.209   6.732  19.717  0.00  0.00    +0.000 NA
ATOM      6  C   UNL     1       3.176   5.972  19.108  0.00  0.00    +0.000 A 
ENDROOT
BRANCH   1  12
ATOM      7  C   UNL     1       5.901   4.408  15.389  0.00  0.00    +0.000 A 
ATOM      8  C   UNL     1       7.100   4.186  16.059  0.00  0.00    +0.000 A 
ATOM      9  C   UNL     1       7.270   4.714  17.332  0.00  0.00    +0.000 A 
ATOM     10  C   UNL     1       6.229   5.421  17.934  0.00  0.00    +0.000 A 
ATOM     11  F   UNL     1       6.447   5.842  19.190  0.00  0.00    +0.000 F 
ATOM     12  C   UNL     1       5.006   5.691  17.282  0.00  0.00    +0.000 A 
ATOM     13  C   UNL     1       4.916   5.232  15.955  0.00  0.00    +0.000 A 
BRANCH   7  15
ATOM     14  C   UNL     1       6.652   4.064  13.204  0.00  0.00    +0.000 C 
ATOM     15  O   UNL     1       5.612   3.863  14.166  0.00  0.00    +0.000 OA
ENDBRANCH   7  15
ENDBRANCH   1  12
BRANCH   4  16
ATOM     16  C   UNL     1       0.886   8.796  19.963  0.00  0.00    +0.000 C 
BRANCH  16  17
ATOM     17  O   UNL     1       1.407  10.112  20.184  0.00  0.00    +0.000 OA
BRANCH  17  18
ATOM     18  C   UNL     1       0.670  11.131  19.650  0.00  0.00    +0.000 A 
ATOM     19  C   UNL     1       1.404  12.167  19.074  0.00  0.00    +0.000 A 
ATOM     20  C   UNL     1       0.749  13.267  18.523  0.00  0.00    +0.000 A 
ATOM     21  C   UNL     1      -0.643  13.331  18.551  0.00  0.00    +0.000 A 
ATOM     22  C   UNL     1      -1.402  12.303  19.139  0.00  0.00    +0.000 A 
ATOM     23  C   UNL     1      -0.725  11.210  19.700  0.00  0.00    +0.000 A 
BRANCH  22  24
ATOM     24  C   UNL     1      -2.922  12.370  19.057  0.00  0.00    +0.000 C 
BRANCH  24  25
ATOM     25  C   UNL     1      -3.613  12.564  20.391  0.00  0.00    +0.000 C 
ATOM     26  C   UNL     1      -3.229  13.641  21.378  0.00  0.00    +0.000 C 
ATOM     27  C   UNL     1      -4.488  13.784  20.571  0.00  0.00    +0.000 C 
ENDBRANCH  24  25
BRANCH  24  28
ATOM     28  C   UNL     1      -3.490  11.161  18.295  0.00  0.00    +0.000 C 
BRANCH  28  29
ATOM     29  C   UNL     1      -3.942  11.477  16.889  0.00  0.00    +0.000 C 
ATOM     30  O   UNL     1      -5.101  11.728  16.584  0.00  0.00    +0.000 OA
BRANCH  29  31
ATOM     31  O   UNL     1      -2.951  11.458  15.972  0.00  0.00    +0.000 OA
ATOM     32  H   UNL     1      -2.357  12.234  16.005  0.00  0.00    +0.000 HD
ENDBRANCH  29  31
ENDBRANCH  28  29
ENDBRANCH  24  28
ENDBRANCH  22  24
ENDBRANCH  17  18
ENDBRANCH  16  17
ENDBRANCH   4  16
BRANCH   6  33
ATOM     33  C   UNL     1       3.340   4.634  19.795  0.00  0.00    +0.000 C 
BRANCH  33  34
ATOM     34  C   UNL     1       2.626   3.402  19.175  0.00  0.00    +0.000 C 
ATOM     35  C   UNL     1       1.731   3.822  17.995  0.00  0.00    +0.000 C 
ATOM     36  C   UNL     1       3.728   2.443  18.669  0.00  0.00    +0.000 C 
ATOM     37  C   UNL     1       1.771   2.639  20.199  0.00  0.00    +0.000 C 
ENDBRANCH  33  34
ENDBRANCH   6  33
TORSDOF 12
ENDMDL
MODEL 6
REMARK VINA RESULT:      -7.9      1.489      2.016
REMARK  Name = 
REMARK  16 active torsions:
REMARK  status: ('A' for Active; 'I' for Inactive)
REMARK    1  A    between atoms: C_1  and  O_2
REMARK    2  A    between atoms: O_2  and  C_3
REMARK    3  A    between atoms: C_8  and  C_9
REMARK    4  A    between atoms: C_12  and  C_13
REMARK    5  A    between atoms: C_13  and  O_14
REMARK    6  A    between atoms: O_14  and  C_15
REMARK    7  A    between atoms: C_19  and  C_20
REMARK    8  A    between atoms: C_20  and  C_21
REMARK    9  A    between atoms: C_20  and  C_25
REMARK   10  A    between atoms: C_21  and  C_22
REMARK   11  A    between atoms: C_22  and  O_24
REMARK   12  A    between atoms: C_30  and  C_31
REMARK   13  A    between atoms: C_31  and  C_32
REMARK   14  A    between atoms: C_32  and  C_33
REMARK   15  A    between atoms: C_32  and  C_34
REMARK   16  A    between atoms: C_32  and  C_35
REMARK                            x       y       z     vdW  Elec       q    Type
REMARK                         _______ _______ _______ _____ _____    ______ ____
ROOT
ATOM      1  C   UNL     1       3.923   6.341  18.196  0.00  0.00    +0.000 A 
ATOM      2  C   UNL     1       3.569   7.624  17.720  0.00  0.00    +0.000 A 
ATOM      3  C   UNL     1       2.593   8.406  18.331  0.00  0.00    +0.000 A 
ATOM      4  C   UNL     1       1.917   7.887  19.417  0.00  0.00    +0.000 A 
ATOM      5  N   UNL     1       2.196   6.656  19.897  0.00  0.00    +0.000 NA
ATOM      6  C   UNL     1       3.185   5.901  19.317  0.00  0.00    +0.000 A 
ENDROOT
BRANCH   1  12
ATOM      7  C   UNL     1       5.971   4.250  15.707  0.00  0.00    +0.000 A 
ATOM      8  C   UNL     1       7.192   4.137  16.364  0.00  0.00    +0.000 A 
ATOM      9  C   UNL     1       7.359   4.765  17.592  0.00  0.00    +0.000 A 
ATOM     10  C   UNL     1       6.294   5.460  18.165  0.00  0.00    +0.000 A 
ATOM     11  F   UNL     1       6.513   5.982  19.383  0.00  0.00    +0.000 F 
ATOM     12  C   UNL     1       5.047   5.620  17.523  0.00  0.00    +0.000 A 
ATOM     13  C   UNL     1       4.956   5.062  16.235  0.00  0.00    +0.000 A 
BRANCH   7  15
ATOM     14  C   UNL     1       6.358   4.174  13.405  0.00  0.00    +0.000 C 
ATOM     15  O   UNL     1       5.688   3.604  14.533  0.00  0.00    +0.000 OA
ENDBRANCH   7  15
ENDBRANCH   1  12
BRANCH   4  16
ATOM     16  C   UNL     1       0.834   8.700  20.087  0.00  0.00    +0.000 C 
BRANCH  16  17
ATOM     17  O   UNL     1       1.004  10.072  19.715  0.00  0.00    +0.000 OA
BRANCH  17  18
ATOM     18  C   UNL     1      -0.100  10.863  19.871  0.00  0.00    +0.000 A 
ATOM     19  C   UNL     1      -0.909  10.997  18.744  0.00  0.00    +0.000 A 
ATOM     20  C   UNL     1      -2.046  11.801  18.790  0.00  0.00    +0.000 A 
ATOM     21  C   UNL     1      -2.372  12.476  19.966  0.00  0.00    +0.000 A 
ATOM     22  C   UNL     1      -1.561  12.366  21.110  0.00  0.00    +0.000 A 
ATOM     23  C   UNL     1      -0.413  11.562  21.041  0.00  0.00    +0.000 A 
BRANCH  22  24
ATOM     24  C   UNL     1      -2.010  13.041  22.399  0.00  0.00    +0.000 C 
BRANCH  24  25
ATOM     25  C   UNL     1      -0.948  13.893  23.063  0.00  0.00    +0.000 C 
ATOM     26  C   UNL     1      -0.288  15.074  22.391  0.00  0.00    +0.000 C 
ATOM     27  C   UNL     1      -1.312  15.305  23.464  0.00  0.00    +0.000 C 
ENDBRANCH  24  25
BRANCH  24  28
ATOM     28  C   UNL     1      -2.613  12.021  23.379  0.00  0.00    +0.000 C 
BRANCH  28  29
ATOM     29  C   UNL     1      -4.093  12.200  23.621  0.00  0.00    +0.000 C 
ATOM     30  O   UNL     1      -4.873  12.639  22.785  0.00  0.00    +0.000 OA
BRANCH  29  31
ATOM     31  O   UNL     1      -4.500  11.833  24.856  0.00  0.00    +0.000 OA
ATOM     32  H   UNL     1      -3.783  11.787  25.518  0.00  0.00    +0.000 HD
ENDBRANCH  29  31
ENDBRANCH  28  29
ENDBRANCH  24  28
ENDBRANCH  22  24
ENDBRANCH  17  18
ENDBRANCH  16  17
ENDBRANCH   4  16
BRANCH   6  33
ATOM     33  C   UNL     1       3.361   4.579  20.029  0.00  0.00    +0.000 C 
BRANCH  33  34
ATOM     34  C   UNL     1       2.670   3.326  19.427  0.00  0.00    +0.000 C 
ATOM     35  C   UNL     1       3.713   2.324  18.899  0.00  0.00    +0.000 C 
ATOM     36  C   UNL     1       1.852   2.667  20.560  0.00  0.00    +0.000 C 
ATOM     37  C   UNL     1       1.700   3.677  18.288  0.00  0.00    +0.000 C 
ENDBRANCH  33  34
ENDBRANCH   6  33
TORSDOF 12
ENDMDL
MODEL 7
REMARK VINA RESULT:      -7.9      2.083      3.213
REMARK  Name = 
REMARK  16 active torsions:
REMARK  status: ('A' for Active; 'I' for Inactive)
REMARK    1  A    between atoms: C_1  and  O_2
REMARK    2  A    between atoms: O_2  and  C_3
REMARK    3  A    between atoms: C_8  and  C_9
REMARK    4  A    between atoms: C_12  and  C_13
REMARK    5  A    between atoms: C_13  and  O_14
REMARK    6  A    between atoms: O_14  and  C_15
REMARK    7  A    between atoms: C_19  and  C_20
REMARK    8  A    between atoms: C_20  and  C_21
REMARK    9  A    between atoms: C_20  and  C_25
REMARK   10  A    between atoms: C_21  and  C_22
REMARK   11  A    between atoms: C_22  and  O_24
REMARK   12  A    between atoms: C_30  and  C_31
REMARK   13  A    between atoms: C_31  and  C_32
REMARK   14  A    between atoms: C_32  and  C_33
REMARK   15  A    between atoms: C_32  and  C_34
REMARK   16  A    between atoms: C_32  and  C_35
REMARK                            x       y       z     vdW  Elec       q    Type
REMARK                         _______ _______ _______ _____ _____    ______ ____
ROOT
ATOM      1  C   UNL     1       3.792   6.364  18.165  0.00  0.00    +0.000 A 
ATOM      2  C   UNL     1       3.415   7.667  17.766  0.00  0.00    +0.000 A 
ATOM      3  C   UNL     1       2.475   8.421  18.463  0.00  0.00    +0.000 A 
ATOM      4  C   UNL     1       1.858   7.854  19.559  0.00  0.00    +0.000 A 
ATOM      5  N   UNL     1       2.161   6.603  19.970  0.00  0.00    +0.000 NA
ATOM      6  C   UNL     1       3.116   5.876  19.304  0.00  0.00    +0.000 A 
ENDROOT
BRANCH   1  12
ATOM      7  C   UNL     1       5.725   4.484  15.429  0.00  0.00    +0.000 A 
ATOM      8  C   UNL     1       6.943   4.237  16.056  0.00  0.00    +0.000 A 
ATOM      9  C   UNL     1       7.145   4.707  17.347  0.00  0.00    +0.000 A 
ATOM     10  C   UNL     1       6.118   5.381  18.008  0.00  0.00    +0.000 A 
ATOM     11  F   UNL     1       6.367   5.746  19.276  0.00  0.00    +0.000 F 
ATOM     12  C   UNL     1       4.877   5.674  17.401  0.00  0.00    +0.000 A 
ATOM     13  C   UNL     1       4.753   5.276  16.058  0.00  0.00    +0.000 A 
BRANCH   7  15
ATOM     14  C   UNL     1       6.523   3.956  13.297  0.00  0.00    +0.000 C 
ATOM     15  O   UNL     1       5.406   3.993  14.190  0.00  0.00    +0.000 OA
ENDBRANCH   7  15
ENDBRANCH   1  12
BRANCH   4  16
ATOM     16  C   UNL     1       0.815   8.636  20.323  0.00  0.00    +0.000 C 
BRANCH  16  17
ATOM     17  O   UNL     1       1.286   9.979  20.485  0.00  0.00    +0.000 OA
BRANCH  17  18
ATOM     18  C   UNL     1       0.478  10.950  19.963  0.00  0.00    +0.000 A 
ATOM     19  C   UNL     1       1.133  11.979  19.288  0.00  0.00    +0.000 A 
ATOM     20  C   UNL     1       0.404  13.032  18.740  0.00  0.00    +0.000 A 
ATOM     21  C   UNL     1      -0.984  13.057  18.870  0.00  0.00    +0.000 A 
ATOM     22  C   UNL     1      -1.664  12.035  19.559  0.00  0.00    +0.000 A 
ATOM     23  C   UNL     1      -0.911  10.990  20.115  0.00  0.00    +0.000 A 
BRANCH  22  24
ATOM     24  C   UNL     1      -3.186  12.054  19.590  0.00  0.00    +0.000 C 
BRANCH  24  25
ATOM     25  C   UNL     1      -3.842  11.912  18.231  0.00  0.00    +0.000 C 
ATOM     26  C   UNL     1      -3.291  11.038  17.129  0.00  0.00    +0.000 C 
ATOM     27  C   UNL     1      -4.507  10.597  17.893  0.00  0.00    +0.000 C 
ENDBRANCH  24  25
BRANCH  24  28
ATOM     28  C   UNL     1      -3.711  13.285  20.346  0.00  0.00    +0.000 C 
BRANCH  28  29
ATOM     29  C   UNL     1      -4.215  12.984  21.738  0.00  0.00    +0.000 C 
ATOM     30  O   UNL     1      -3.717  13.443  22.758  0.00  0.00    +0.000 OA
BRANCH  29  31
ATOM     31  O   UNL     1      -5.276  12.150  21.773  0.00  0.00    +0.000 OA
ATOM     32  H   UNL     1      -6.024  12.426  21.205  0.00  0.00    +0.000 HD
ENDBRANCH  29  31
ENDBRANCH  28  29
ENDBRANCH  24  28
ENDBRANCH  22  24
ENDBRANCH  17  18
ENDBRANCH  16  17
ENDBRANCH   4  16
BRANCH   6  33
ATOM     33  C   UNL     1       3.328   4.523  19.948  0.00  0.00    +0.000 C 
BRANCH  33  34
ATOM     34  C   UNL     1       2.498   3.323  19.418  0.00  0.00    +0.000 C 
ATOM     35  C   UNL     1       3.412   2.140  19.052  0.00  0.00    +0.000 C 
ATOM     36  C   UNL     1       1.537   2.898  20.552  0.00  0.00    +0.000 C 
ATOM     37  C   UNL     1       1.646   3.689  18.192  0.00  0.00    +0.000 C 
ENDBRANCH  33  34
ENDBRANCH   6  33
TORSDOF 12
ENDMDL
MODEL 8
REMARK VINA RESULT:      -7.9      2.501      3.335
REMARK  Name = 
REMARK  16 active torsions:
REMARK  status: ('A' for Active; 'I' for Inactive)
REMARK    1  A    between atoms: C_1  and  O_2
REMARK    2  A    between atoms: O_2  and  C_3
REMARK    3  A    between atoms: C_8  and  C_9
REMARK    4  A    between atoms: C_12  and  C_13
REMARK    5  A    between atoms: C_13  and  O_14
REMARK    6  A    between atoms: O_14  and  C_15
REMARK    7  A    between atoms: C_19  and  C_20
REMARK    8  A    between atoms: C_20  and  C_21
REMARK    9  A    between atoms: C_20  and  C_25
REMARK   10  A    between atoms: C_21  and  C_22
REMARK   11  A    between atoms: C_22  and  O_24
REMARK   12  A    between atoms: C_30  and  C_31
REMARK   13  A    between atoms: C_31  and  C_32
REMARK   14  A    between atoms: C_32  and  C_33
REMARK   15  A    between atoms: C_32  and  C_34
REMARK   16  A    between atoms: C_32  and  C_35
REMARK                            x       y       z     vdW  Elec       q    Type
REMARK                         _______ _______ _______ _____ _____    ______ ____
ROOT
ATOM      1  C   UNL     1       3.769   6.663  17.947  0.00  0.00    +0.000 A 
ATOM      2  C   UNL     1       3.493   7.948  17.427  0.00  0.00    +0.000 A 
ATOM      3  C   UNL     1       2.558   8.804  18.004  0.00  0.00    +0.000 A 
ATOM      4  C   UNL     1       1.846   8.360  19.100  0.00  0.00    +0.000 A 
ATOM      5  N   UNL     1       2.051   7.131  19.622  0.00  0.00    +0.000 NA
ATOM      6  C   UNL     1       2.999   6.303  19.075  0.00  0.00    +0.000 A 
ENDROOT
BRANCH   1  12
ATOM      7  C   UNL     1       5.763   4.508  15.469  0.00  0.00    +0.000 A 
ATOM      8  C   UNL     1       6.905   4.207  16.205  0.00  0.00    +0.000 A 
ATOM      9  C   UNL     1       7.040   4.729  17.485  0.00  0.00    +0.000 A 
ATOM     10  C   UNL     1       6.018   5.508  18.028  0.00  0.00    +0.000 A 
ATOM     11  F   UNL     1       6.194   5.919  19.294  0.00  0.00    +0.000 F 
ATOM     12  C   UNL     1       4.855   5.858  17.308  0.00  0.00    +0.000 A 
ATOM     13  C   UNL     1       4.807   5.400  15.979  0.00  0.00    +0.000 A 
BRANCH   7  15
ATOM     14  C   UNL     1       6.631   4.042  13.351  0.00  0.00    +0.000 C 
ATOM     15  O   UNL     1       5.506   3.978  14.233  0.00  0.00    +0.000 OA
ENDBRANCH   7  15
ENDBRANCH   1  12
BRANCH   4  16
ATOM     16  C   UNL     1       0.807   9.254  19.734  0.00  0.00    +0.000 C 
BRANCH  16  17
ATOM     17  O   UNL     1       0.543  10.343  18.841  0.00  0.00    +0.000 OA
BRANCH  17  18
ATOM     18  C   UNL     1      -0.771  10.524  18.510  0.00  0.00    +0.000 A 
ATOM     19  C   UNL     1      -1.233   9.762  17.438  0.00  0.00    +0.000 A 
ATOM     20  C   UNL     1      -2.550   9.891  17.005  0.00  0.00    +0.000 A 
ATOM     21  C   UNL     1      -3.407  10.786  17.643  0.00  0.00    +0.000 A 
ATOM     22  C   UNL     1      -2.958  11.574  18.718  0.00  0.00    +0.000 A 
ATOM     23  C   UNL     1      -1.624  11.441  19.133  0.00  0.00    +0.000 A 
BRANCH  22  24
ATOM     24  C   UNL     1      -3.956  12.464  19.448  0.00  0.00    +0.000 C 
BRANCH  24  25
ATOM     25  C   UNL     1      -3.650  12.675  20.916  0.00  0.00    +0.000 C 
ATOM     26  C   UNL     1      -3.070  13.955  21.470  0.00  0.00    +0.000 C 
ATOM     27  C   UNL     1      -4.520  13.635  21.696  0.00  0.00    +0.000 C 
ENDBRANCH  24  25
BRANCH  24  28
ATOM     28  C   UNL     1      -5.397  11.972  19.233  0.00  0.00    +0.000 C 
BRANCH  28  29
ATOM     29  C   UNL     1      -6.206  12.830  18.289  0.00  0.00    +0.000 C 
ATOM     30  O   UNL     1      -6.923  12.381  17.403  0.00  0.00    +0.000 OA
BRANCH  29  31
ATOM     31  O   UNL     1      -6.073  14.158  18.496  0.00  0.00    +0.000 OA
ATOM     32  H   UNL     1      -6.061  14.418  19.439  0.00  0.00    +0.000 HD
ENDBRANCH  29  31
ENDBRANCH  28  29
ENDBRANCH  24  28
ENDBRANCH  22  24
ENDBRANCH  17  18
ENDBRANCH  16  17
ENDBRANCH   4  16
BRANCH   6  33
ATOM     33  C   UNL     1       3.095   4.996  19.832  0.00  0.00    +0.000 C 
BRANCH  33  34
ATOM     34  C   UNL     1       2.205   3.813  19.362  0.00  0.00    +0.000 C 
ATOM     35  C   UNL     1       1.062   3.556  20.360  0.00  0.00    +0.000 C 
ATOM     36  C   UNL     1       1.612   4.205  17.990  0.00  0.00    +0.000 C 
ATOM     37  C   UNL     1       3.003   2.513  19.177  0.00  0.00    +0.000 C 
ENDBRANCH  33  34
ENDBRANCH   6  33
TORSDOF 12
ENDMDL
MODEL 9
REMARK VINA RESULT:      -7.9      1.738      2.448
REMARK  Name = 
REMARK  16 active torsions:
REMARK  status: ('A' for Active; 'I' for Inactive)
REMARK    1  A    between atoms: C_1  and  O_2
REMARK    2  A    between atoms: O_2  and  C_3
REMARK    3  A    between atoms: C_8  and  C_9
REMARK    4  A    between atoms: C_12  and  C_13
REMARK    5  A    between atoms: C_13  and  O_14
REMARK    6  A    between atoms: O_14  and  C_15
REMARK    7  A    between atoms: C_19  and  C_20
REMARK    8  A    between atoms: C_20  and  C_21
REMARK    9  A    between atoms: C_20  and  C_25
REMARK   10  A    between atoms: C_21  and  C_22
REMARK   11  A    between atoms: C_22  and  O_24
REMARK   12  A    between atoms: C_30  and  C_31
REMARK   13  A    between atoms: C_31  and  C_32
REMARK   14  A    between atoms: C_32  and  C_33
REMARK   15  A    between atoms: C_32  and  C_34
REMARK   16  A    between atoms: C_32  and  C_35
REMARK                            x       y       z     vdW  Elec       q    Type
REMARK                         _______ _______ _______ _____ _____    ______ ____
ROOT
ATOM      1  C   UNL     1       3.975   6.009  17.998  0.00  0.00    +0.000 A 
ATOM      2  C   UNL     1       3.555   7.345  17.809  0.00  0.00    +0.000 A 
ATOM      3  C   UNL     1       2.651   7.974  18.662  0.00  0.00    +0.000 A 
ATOM      4  C   UNL     1       2.116   7.247  19.706  0.00  0.00    +0.000 A 
ATOM      5  N   UNL     1       2.463   5.958  19.918  0.00  0.00    +0.000 NA
ATOM      6  C   UNL     1       3.382   5.352  19.098  0.00  0.00    +0.000 A 
ENDROOT
BRANCH   1  12
ATOM      7  C   UNL     1       5.726   4.440  14.959  0.00  0.00    +0.000 A 
ATOM      8  C   UNL     1       7.025   4.276  15.430  0.00  0.00    +0.000 A 
ATOM      9  C   UNL     1       7.337   4.704  16.714  0.00  0.00    +0.000 A 
ATOM     10  C   UNL     1       6.341   5.250  17.524  0.00  0.00    +0.000 A 
ATOM     11  F   UNL     1       6.707   5.577  18.774  0.00  0.00    +0.000 F 
ATOM     12  C   UNL     1       5.017   5.457  17.079  0.00  0.00    +0.000 A 
ATOM     13  C   UNL     1       4.770   5.111  15.738  0.00  0.00    +0.000 A 
BRANCH   7  15
ATOM     14  C   UNL     1       6.386   3.707  12.841  0.00  0.00    +0.000 C 
ATOM     15  O   UNL     1       5.306   3.980  13.739  0.00  0.00    +0.000 OA
ENDBRANCH   7  15
ENDBRANCH   1  12
BRANCH   4  16
ATOM     16  C   UNL     1       1.114   7.891  20.635  0.00  0.00    +0.000 C 
BRANCH  16  17
ATOM     17  O   UNL     1       0.929   9.252  20.225  0.00  0.00    +0.000 OA
BRANCH  17  18
ATOM     18  C   UNL     1       0.150  10.012  21.052  0.00  0.00    +0.000 A 
ATOM     19  C   UNL     1      -0.012   9.520  22.346  0.00  0.00    +0.000 A 
ATOM     20  C   UNL     1      -0.808  10.206  23.260  0.00  0.00    +0.000 A 
ATOM     21  C   UNL     1      -1.447  11.385  22.878  0.00  0.00    +0.000 A 
ATOM     22  C   UNL     1      -1.307  11.891  21.573  0.00  0.00    +0.000 A 
ATOM     23  C   UNL     1      -0.512  11.180  20.662  0.00  0.00    +0.000 A 
BRANCH  22  24
ATOM     24  C   UNL     1      -1.942  13.233  21.231  0.00  0.00    +0.000 C 
BRANCH  24  25
ATOM     25  C   UNL     1      -1.884  14.255  22.348  0.00  0.00    +0.000 C 
ATOM     26  C   UNL     1      -0.594  14.789  22.921  0.00  0.00    +0.000 C 
ATOM     27  C   UNL     1      -1.419  15.654  22.012  0.00  0.00    +0.000 C 
ENDBRANCH  24  25
BRANCH  24  28
ATOM     28  C   UNL     1      -3.374  13.051  20.702  0.00  0.00    +0.000 C 
BRANCH  28  29
ATOM     29  C   UNL     1      -4.449  13.351  21.720  0.00  0.00    +0.000 C 
ATOM     30  O   UNL     1      -5.034  14.424  21.798  0.00  0.00    +0.000 OA
BRANCH  29  31
ATOM     31  O   UNL     1      -4.721  12.327  22.557  0.00  0.00    +0.000 OA
ATOM     32  H   UNL     1      -4.984  12.602  23.458  0.00  0.00    +0.000 HD
ENDBRANCH  29  31
ENDBRANCH  28  29
ENDBRANCH  24  28
ENDBRANCH  22  24
ENDBRANCH  17  18
ENDBRANCH  16  17
ENDBRANCH   4  16
BRANCH   6  33
ATOM     33  C   UNL     1       3.656   3.929  19.533  0.00  0.00    +0.000 C 
BRANCH  33  34
ATOM     34  C   UNL     1       2.737   2.807  18.980  0.00  0.00    +0.000 C 
ATOM     35  C   UNL     1       1.777   2.296  20.069  0.00  0.00    +0.000 C 
ATOM     36  C   UNL     1       1.920   3.417  17.818  0.00  0.00    +0.000 C 
ATOM     37  C   UNL     1       3.532   1.616  18.421  0.00  0.00    +0.000 C 
ENDBRANCH  33  34
ENDBRANCH   6  33
TORSDOF 12
ENDMDL
