MODEL 1
REMARK VINA RESULT:      -8.9      0.000      0.000
REMARK  Name = 
REMARK  6 active torsions:
REMARK  status: ('A' for Active; 'I' for Inactive)
REMARK    1  A    between atoms: C_1  and  C_2
REMARK    2  A    between atoms: C_5  and  S_6
REMARK    3  A    between atoms: S_6  and  N_9
REMARK    4  A    between atoms: N_9  and  C_10
REMARK    5  A    between atoms: C_14  and  C_15
REMARK    6  A    between atoms: C_20  and  C_21
REMARK                            x       y       z     vdW  Elec       q    Type
REMARK                         _______ _______ _______ _____ _____    ______ ____
ROOT
ATOM      1  C   UNL     1      -0.219  11.680  21.681  0.00  0.00    +0.000 A 
ATOM      2  C   UNL     1      -0.798  11.127  22.827  0.00  0.00    +0.000 A 
ATOM      3  C   UNL     1      -0.710   9.761  23.059  0.00  0.00    +0.000 A 
ATOM      4  C   UNL     1      -0.033   8.952  22.151  0.00  0.00    +0.000 A 
ATOM      5  C   UNL     1       0.581   9.486  20.997  0.00  0.00    +0.000 A 
ATOM      6  C   UNL     1       0.489  10.867  20.763  0.00  0.00    +0.000 A 
ATOM      7 CL   UNL     1       1.324  11.639  19.451  0.00  0.00    +0.000 Cl
ENDROOT
BRANCH   5   8
ATOM      8  C   UNL     1       1.336   8.493  20.167  0.00  0.00    +0.000 C 
ATOM      9  O   UNL     1       1.628   8.843  19.026  0.00  0.00    +0.000 OA
ATOM     10  N   UNL     1       1.642   7.279  20.733  0.00  0.00    +0.000 N 
ATOM     11  C   UNL     1       2.330   6.324  20.033  0.00  0.00    +0.000 A 
ATOM     12  N   UNL     1       2.975   6.448  18.905  0.00  0.00    +0.000 NA
ATOM     13  C   UNL     1       3.544   5.241  18.543  0.00  0.00    +0.000 A 
ATOM     14  C   UNL     1       3.245   4.192  19.393  0.00  0.00    +0.000 A 
ATOM     15  S   UNL     1       2.337   4.772  20.738  0.00  0.00    +0.000 S 
ATOM     16  H   UNL     1       1.280   7.008  21.637  0.00  0.00    +0.000 HD
BRANCH  13  17
ATOM     17  C   UNL     1       4.388   5.155  17.357  0.00  0.00    +0.000 A 
ATOM     18  C   UNL     1       4.733   6.287  16.605  0.00  0.00    +0.000 A 
ATOM     19  C   UNL     1       5.471   6.156  15.424  0.00  0.00    +0.000 A 
ATOM     20  C   UNL     1       5.879   4.897  14.987  0.00  0.00    +0.000 A 
ATOM     21  C   UNL     1       5.554   3.765  15.730  0.00  0.00    +0.000 A 
ATOM     22  C   UNL     1       4.808   3.896  16.906  0.00  0.00    +0.000 A 
ENDBRANCH  13  17
ENDBRANCH   5   8
BRANCH   1  23
ATOM     23  N   UNL     1      -0.389  13.081  21.470  0.00  0.00    +0.000 N 
ATOM     24  H   UNL     1      -0.120  13.732  22.206  0.00  0.00    +0.000 HD
BRANCH  23  25
ATOM     25  S   UNL     1      -1.635  13.630  20.480  0.00  0.00    +0.000 S 
ATOM     26  O   UNL     1      -1.799  12.723  19.365  0.00  0.00    +0.000 OA
ATOM     27  O   UNL     1      -1.390  15.042  20.275  0.00  0.00    +0.000 OA
BRANCH  25  32
ATOM     28  C   UNL     1      -6.523  12.938  24.029  0.00  0.00    +0.000 C 
ATOM     29  C   UNL     1      -5.332  13.135  23.136  0.00  0.00    +0.000 A 
ATOM     30  C   UNL     1      -5.352  12.695  21.805  0.00  0.00    +0.000 A 
ATOM     31  C   UNL     1      -4.234  12.867  20.986  0.00  0.00    +0.000 A 
ATOM     32  C   UNL     1      -3.090  13.487  21.498  0.00  0.00    +0.000 A 
ATOM     33  C   UNL     1      -3.051  13.912  22.829  0.00  0.00    +0.000 A 
ATOM     34  C   UNL     1      -4.175  13.745  23.640  0.00  0.00    +0.000 A 
ENDBRANCH  25  32
ENDBRANCH  23  25
ENDBRANCH   1  23
TORSDOF 5
ENDMDL
MODEL 2
REMARK VINA RESULT:      -8.9      2.879      3.865
REMARK  Name = 
REMARK  6 active torsions:
REMARK  status: ('A' for Active; 'I' for Inactive)
REMARK    1  A    between atoms: C_1  and  C_2
REMARK    2  A    between atoms: C_5  and  S_6
REMARK    3  A    between atoms: S_6  and  N_9
REMARK    4  A    between atoms: N_9  and  C_10
REMARK    5  A    between atoms: C_14  and  C_15
REMARK    6  A    between atoms: C_20  and  C_21
REMARK                            x       y       z     vdW  Elec       q    Type
REMARK                         _______ _______ _______ _____ _____    ______ ____
ROOT
ATOM      1  C   UNL     1      -0.173  11.690  21.265  0.00  0.00    +0.000 A 
ATOM      2  C   UNL     1      -0.690  11.215  22.474  0.00  0.00    +0.000 A 
ATOM      3  C   UNL     1      -0.507   9.887  22.832  0.00  0.00    +0.000 A 
ATOM      4  C   UNL     1       0.201   9.038  21.986  0.00  0.00    +0.000 A 
ATOM      5  C   UNL     1       0.754   9.495  20.770  0.00  0.00    +0.000 A 
ATOM      6  C   UNL     1       0.566  10.838  20.409  0.00  0.00    +0.000 A 
ATOM      7 CL   UNL     1       1.320  11.532  19.006  0.00  0.00    +0.000 Cl
ENDROOT
BRANCH   5   8
ATOM      8  C   UNL     1       1.553   8.476  20.017  0.00  0.00    +0.000 C 
ATOM      9  O   UNL     1       1.979   8.819  18.916  0.00  0.00    +0.000 OA
ATOM     10  N   UNL     1       1.750   7.249  20.603  0.00  0.00    +0.000 N 
ATOM     11  C   UNL     1       2.470   6.270  19.972  0.00  0.00    +0.000 A 
ATOM     12  N   UNL     1       3.236   6.373  18.921  0.00  0.00    +0.000 NA
ATOM     13  C   UNL     1       3.792   5.145  18.611  0.00  0.00    +0.000 A 
ATOM     14  C   UNL     1       3.364   4.105  19.417  0.00  0.00    +0.000 A 
ATOM     15  S   UNL     1       2.341   4.716  20.662  0.00  0.00    +0.000 S 
ATOM     16  H   UNL     1       1.283   6.989  21.461  0.00  0.00    +0.000 HD
BRANCH  13  17
ATOM     17  C   UNL     1       4.755   5.030  17.521  0.00  0.00    +0.000 A 
ATOM     18  C   UNL     1       4.644   4.042  16.532  0.00  0.00    +0.000 A 
ATOM     19  C   UNL     1       5.632   3.905  15.552  0.00  0.00    +0.000 A 
ATOM     20  C   UNL     1       6.736   4.756  15.546  0.00  0.00    +0.000 A 
ATOM     21  C   UNL     1       6.854   5.748  16.515  0.00  0.00    +0.000 A 
ATOM     22  C   UNL     1       5.869   5.879  17.499  0.00  0.00    +0.000 A 
ENDBRANCH  13  17
ENDBRANCH   5   8
BRANCH   1  23
ATOM     23  N   UNL     1      -0.438  13.050  20.926  0.00  0.00    +0.000 N 
ATOM     24  H   UNL     1      -0.917  13.262  20.052  0.00  0.00    +0.000 HD
BRANCH  23  25
ATOM     25  S   UNL     1       0.608  14.260  21.453  0.00  0.00    +0.000 S 
ATOM     26  O   UNL     1       1.935  13.709  21.618  0.00  0.00    +0.000 OA
ATOM     27  O   UNL     1      -0.071  14.930  22.541  0.00  0.00    +0.000 OA
BRANCH  25  32
ATOM     28  C   UNL     1       0.809  18.325  16.936  0.00  0.00    +0.000 C 
ATOM     29  C   UNL     1       0.755  17.296  18.028  0.00  0.00    +0.000 A 
ATOM     30  C   UNL     1      -0.466  16.729  18.421  0.00  0.00    +0.000 A 
ATOM     31  C   UNL     1      -0.510  15.784  19.448  0.00  0.00    +0.000 A 
ATOM     32  C   UNL     1       0.673  15.400  20.086  0.00  0.00    +0.000 A 
ATOM     33  C   UNL     1       1.894  15.973  19.717  0.00  0.00    +0.000 A 
ATOM     34  C   UNL     1       1.933  16.910  18.683  0.00  0.00    +0.000 A 
ENDBRANCH  25  32
ENDBRANCH  23  25
ENDBRANCH   1  23
TORSDOF 5
ENDMDL
MODEL 3
REMARK VINA RESULT:      -8.8      2.159      3.080
REMARK  Name = 
REMARK  6 active torsions:
REMARK  status: ('A' for Active; 'I' for Inactive)
REMARK    1  A    between atoms: C_1  and  C_2
REMARK    2  A    between atoms: C_5  and  S_6
REMARK    3  A    between atoms: S_6  and  N_9
REMARK    4  A    between atoms: N_9  and  C_10
REMARK    5  A    between atoms: C_14  and  C_15
REMARK    6  A    between atoms: C_20  and  C_21
REMARK                            x       y       z     vdW  Elec       q    Type
REMARK                         _______ _______ _______ _____ _____    ______ ____
ROOT
ATOM      1  C   UNL     1      -0.161  11.190  21.246  0.00  0.00    +0.000 A 
ATOM      2  C   UNL     1      -0.663  10.768  22.480  0.00  0.00    +0.000 A 
ATOM      3  C   UNL     1      -0.439   9.468  22.913  0.00  0.00    +0.000 A 
ATOM      4  C   UNL     1       0.295   8.595  22.116  0.00  0.00    +0.000 A 
ATOM      5  C   UNL     1       0.835   9.000  20.875  0.00  0.00    +0.000 A 
ATOM      6  C   UNL     1       0.605  10.315  20.439  0.00  0.00    +0.000 A 
ATOM      7 CL   UNL     1       1.339  10.951  18.998  0.00  0.00    +0.000 Cl
ENDROOT
BRANCH   5   8
ATOM      8  C   UNL     1       1.665   7.966  20.180  0.00  0.00    +0.000 C 
ATOM      9  O   UNL     1       2.168   8.297  19.108  0.00  0.00    +0.000 OA
ATOM     10  N   UNL     1       1.804   6.739  20.782  0.00  0.00    +0.000 N 
ATOM     11  C   UNL     1       2.550   5.746  20.204  0.00  0.00    +0.000 A 
ATOM     12  N   UNL     1       3.384   5.832  19.204  0.00  0.00    +0.000 NA
ATOM     13  C   UNL     1       3.941   4.595  18.937  0.00  0.00    +0.000 A 
ATOM     14  C   UNL     1       3.444   3.565  19.716  0.00  0.00    +0.000 A 
ATOM     15  S   UNL     1       2.352   4.197  20.889  0.00  0.00    +0.000 S 
ATOM     16  H   UNL     1       1.278   6.490  21.609  0.00  0.00    +0.000 HD
BRANCH  13  17
ATOM     17  C   UNL     1       4.971   4.460  17.913  0.00  0.00    +0.000 A 
ATOM     18  C   UNL     1       6.327   4.688  18.186  0.00  0.00    +0.000 A 
ATOM     19  C   UNL     1       7.276   4.636  17.161  0.00  0.00    +0.000 A 
ATOM     20  C   UNL     1       6.883   4.348  15.855  0.00  0.00    +0.000 A 
ATOM     21  C   UNL     1       5.541   4.107  15.570  0.00  0.00    +0.000 A 
ATOM     22  C   UNL     1       4.592   4.168  16.595  0.00  0.00    +0.000 A 
ENDBRANCH  13  17
ENDBRANCH   5   8
BRANCH   1  23
ATOM     23  N   UNL     1      -0.468  12.520  20.831  0.00  0.00    +0.000 N 
ATOM     24  H   UNL     1       0.164  13.279  21.084  0.00  0.00    +0.000 HD
BRANCH  23  25
ATOM     25  S   UNL     1      -2.075  12.988  20.652  0.00  0.00    +0.000 S 
ATOM     26  O   UNL     1      -2.142  14.424  20.489  0.00  0.00    +0.000 OA
ATOM     27  O   UNL     1      -2.808  12.312  21.701  0.00  0.00    +0.000 OA
BRANCH  25  32
ATOM     28  C   UNL     1      -3.711  10.282  15.458  0.00  0.00    +0.000 C 
ATOM     29  C   UNL     1      -3.307  10.981  16.724  0.00  0.00    +0.000 A 
ATOM     30  C   UNL     1      -1.987  11.415  16.916  0.00  0.00    +0.000 A 
ATOM     31  C   UNL     1      -1.615  12.049  18.103  0.00  0.00    +0.000 A 
ATOM     32  C   UNL     1      -2.568  12.256  19.104  0.00  0.00    +0.000 A 
ATOM     33  C   UNL     1      -3.882  11.811  18.934  0.00  0.00    +0.000 A 
ATOM     34  C   UNL     1      -4.250  11.185  17.742  0.00  0.00    +0.000 A 
ENDBRANCH  25  32
ENDBRANCH  23  25
ENDBRANCH   1  23
TORSDOF 5
ENDMDL
MODEL 4
REMARK VINA RESULT:      -8.7      1.874      2.775
REMARK  Name = 
REMARK  6 active torsions:
REMARK  status: ('A' for Active; 'I' for Inactive)
REMARK    1  A    between atoms: C_1  and  C_2
REMARK    2  A    between atoms: C_5  and  S_6
REMARK    3  A    between atoms: S_6  and  N_9
REMARK    4  A    between atoms: N_9  and  C_10
REMARK    5  A    between atoms: C_14  and  C_15
REMARK    6  A    between atoms: C_20  and  C_21
REMARK                            x       y       z     vdW  Elec       q    Type
REMARK                         _______ _______ _______ _____ _____    ______ ____
ROOT
ATOM      1  C   UNL     1      -0.017  11.664  21.786  0.00  0.00    +0.000 A 
ATOM      2  C   UNL     1      -0.717  11.090  22.851  0.00  0.00    +0.000 A 
ATOM      3  C   UNL     1      -0.750   9.710  22.997  0.00  0.00    +0.000 A 
ATOM      4  C   UNL     1      -0.074   8.906  22.083  0.00  0.00    +0.000 A 
ATOM      5  C   UNL     1       0.661   9.459  21.011  0.00  0.00    +0.000 A 
ATOM      6  C   UNL     1       0.691  10.854  20.865  0.00  0.00    +0.000 A 
ATOM      7 CL   UNL     1       1.675  11.637  19.666  0.00  0.00    +0.000 Cl
ENDROOT
BRANCH   5   8
ATOM      8  C   UNL     1       1.395   8.461  20.168  0.00  0.00    +0.000 C 
ATOM      9  O   UNL     1       1.697   8.821  19.033  0.00  0.00    +0.000 OA
ATOM     10  N   UNL     1       1.674   7.233  20.718  0.00  0.00    +0.000 N 
ATOM     11  C   UNL     1       2.342   6.273  20.005  0.00  0.00    +0.000 A 
ATOM     12  N   UNL     1       2.991   6.399  18.881  0.00  0.00    +0.000 NA
ATOM     13  C   UNL     1       3.534   5.185  18.502  0.00  0.00    +0.000 A 
ATOM     14  C   UNL     1       3.211   4.130  19.337  0.00  0.00    +0.000 A 
ATOM     15  S   UNL     1       2.313   4.712  20.689  0.00  0.00    +0.000 S 
ATOM     16  H   UNL     1       1.304   6.958  21.617  0.00  0.00    +0.000 HD
BRANCH  13  17
ATOM     17  C   UNL     1       4.379   5.096  17.316  0.00  0.00    +0.000 A 
ATOM     18  C   UNL     1       4.748   6.231  16.580  0.00  0.00    +0.000 A 
ATOM     19  C   UNL     1       5.485   6.101  15.399  0.00  0.00    +0.000 A 
ATOM     20  C   UNL     1       5.867   4.839  14.945  0.00  0.00    +0.000 A 
ATOM     21  C   UNL     1       5.517   3.704  15.673  0.00  0.00    +0.000 A 
ATOM     22  C   UNL     1       4.772   3.835  16.849  0.00  0.00    +0.000 A 
ENDBRANCH  13  17
ENDBRANCH   5   8
BRANCH   1  23
ATOM     23  N   UNL     1      -0.063  13.084  21.658  0.00  0.00    +0.000 N 
ATOM     24  H   UNL     1       0.487  13.660  22.294  0.00  0.00    +0.000 HD
BRANCH  23  25
ATOM     25  S   UNL     1      -1.464  13.825  21.090  0.00  0.00    +0.000 S 
ATOM     26  O   UNL     1      -1.157  15.176  20.671  0.00  0.00    +0.000 OA
ATOM     27  O   UNL     1      -2.488  13.555  22.076  0.00  0.00    +0.000 OA
BRANCH  25  32
ATOM     28  C   UNL     1      -2.779  10.480  16.186  0.00  0.00    +0.000 C 
ATOM     29  C   UNL     1      -2.463  11.335  17.379  0.00  0.00    +0.000 A 
ATOM     30  C   UNL     1      -1.283  12.090  17.430  0.00  0.00    +0.000 A 
ATOM     31  C   UNL     1      -0.988  12.870  18.550  0.00  0.00    +0.000 A 
ATOM     32  C   UNL     1      -1.879  12.899  19.626  0.00  0.00    +0.000 A 
ATOM     33  C   UNL     1      -3.050  12.135  19.597  0.00  0.00    +0.000 A 
ATOM     34  C   UNL     1      -3.344  11.365  18.470  0.00  0.00    +0.000 A 
ENDBRANCH  25  32
ENDBRANCH  23  25
ENDBRANCH   1  23
TORSDOF 5
ENDMDL
MODEL 5
REMARK VINA RESULT:      -8.6      2.365      3.905
REMARK  Name = 
REMARK  6 active torsions:
REMARK  status: ('A' for Active; 'I' for Inactive)
REMARK    1  A    between atoms: C_1  and  C_2
REMARK    2  A    between atoms: C_5  and  S_6
REMARK    3  A    between atoms: S_6  and  N_9
REMARK    4  A    between atoms: N_9  and  C_10
REMARK    5  A    between atoms: C_14  and  C_15
REMARK    6  A    between atoms: C_20  and  C_21
REMARK                            x       y       z     vdW  Elec       q    Type
REMARK                         _______ _______ _______ _____ _____    ______ ____
ROOT
ATOM      1  C   UNL     1      -0.770  11.030  21.394  0.00  0.00    +0.000 A 
ATOM      2  C   UNL     1      -0.744  10.777  22.768  0.00  0.00    +0.000 A 
ATOM      3  C   UNL     1      -0.042   9.684  23.258  0.00  0.00    +0.000 A 
ATOM      4  C   UNL     1       0.641   8.853  22.375  0.00  0.00    +0.000 A 
ATOM      5  C   UNL     1       0.652   9.098  20.984  0.00  0.00    +0.000 A 
ATOM      6  C   UNL     1      -0.061  10.203  20.491  0.00  0.00    +0.000 A 
ATOM      7 CL   UNL     1       0.002  10.669  18.818  0.00  0.00    +0.000 Cl
ENDROOT
BRANCH   5   8
ATOM      8  C   UNL     1       1.499   8.158  20.184  0.00  0.00    +0.000 C 
ATOM      9  O   UNL     1       1.938   8.588  19.120  0.00  0.00    +0.000 OA
ATOM     10  N   UNL     1       1.721   6.900  20.690  0.00  0.00    +0.000 N 
ATOM     11  C   UNL     1       2.487   5.988  20.012  0.00  0.00    +0.000 A 
ATOM     12  N   UNL     1       3.272   6.186  18.989  0.00  0.00    +0.000 NA
ATOM     13  C   UNL     1       3.874   5.000  18.611  0.00  0.00    +0.000 A 
ATOM     14  C   UNL     1       3.460   3.895  19.334  0.00  0.00    +0.000 A 
ATOM     15  S   UNL     1       2.391   4.388  20.592  0.00  0.00    +0.000 S 
ATOM     16  H   UNL     1       1.244   6.568  21.517  0.00  0.00    +0.000 HD
BRANCH  13  17
ATOM     17  C   UNL     1       4.863   4.988  17.539  0.00  0.00    +0.000 A 
ATOM     18  C   UNL     1       4.784   4.093  16.463  0.00  0.00    +0.000 A 
ATOM     19  C   UNL     1       5.797   4.050  15.500  0.00  0.00    +0.000 A 
ATOM     20  C   UNL     1       6.894   4.904  15.597  0.00  0.00    +0.000 A 
ATOM     21  C   UNL     1       6.981   5.806  16.655  0.00  0.00    +0.000 A 
ATOM     22  C   UNL     1       5.972   5.842  17.622  0.00  0.00    +0.000 A 
ENDBRANCH  13  17
ENDBRANCH   5   8
BRANCH   1  23
ATOM     23  N   UNL     1      -1.552  12.137  20.944  0.00  0.00    +0.000 N 
ATOM     24  H   UNL     1      -2.050  12.068  20.059  0.00  0.00    +0.000 HD
BRANCH  23  25
ATOM     25  S   UNL     1      -1.098  13.703  21.363  0.00  0.00    +0.000 S 
ATOM     26  O   UNL     1      -0.794  13.754  22.776  0.00  0.00    +0.000 OA
ATOM     27  O   UNL     1      -2.088  14.578  20.773  0.00  0.00    +0.000 OA
BRANCH  25  32
ATOM     28  C   UNL     1       4.109  14.360  18.293  0.00  0.00    +0.000 C 
ATOM     29  C   UNL     1       2.829  14.229  19.067  0.00  0.00    +0.000 A 
ATOM     30  C   UNL     1       2.843  13.880  20.425  0.00  0.00    +0.000 A 
ATOM     31  C   UNL     1       1.648  13.743  21.134  0.00  0.00    +0.000 A 
ATOM     32  C   UNL     1       0.430  13.960  20.483  0.00  0.00    +0.000 A 
ATOM     33  C   UNL     1       0.401  14.289  19.125  0.00  0.00    +0.000 A 
ATOM     34  C   UNL     1       1.600  14.433  18.424  0.00  0.00    +0.000 A 
ENDBRANCH  25  32
ENDBRANCH  23  25
ENDBRANCH   1  23
TORSDOF 5
ENDMDL
MODEL 6
REMARK VINA RESULT:      -8.6      2.383      3.242
REMARK  Name = 
REMARK  6 active torsions:
REMARK  status: ('A' for Active; 'I' for Inactive)
REMARK    1  A    between atoms: C_1  and  C_2
REMARK    2  A    between atoms: C_5  and  S_6
REMARK    3  A    between atoms: S_6  and  N_9
REMARK    4  A    between atoms: N_9  and  C_10
REMARK    5  A    between atoms: C_14  and  C_15
REMARK    6  A    between atoms: C_20  and  C_21
REMARK                            x       y       z     vdW  Elec       q    Type
REMARK                         _______ _______ _______ _____ _____    ______ ____
ROOT
ATOM      1  C   UNL     1      -0.625  11.230  21.415  0.00  0.00    +0.000 A 
ATOM      2  C   UNL     1      -0.799  10.873  22.756  0.00  0.00    +0.000 A 
ATOM      3  C   UNL     1      -0.276   9.677  23.229  0.00  0.00    +0.000 A 
ATOM      4  C   UNL     1       0.430   8.846  22.364  0.00  0.00    +0.000 A 
ATOM      5  C   UNL     1       0.641   9.191  21.011  0.00  0.00    +0.000 A 
ATOM      6  C   UNL     1       0.110  10.399  20.535  0.00  0.00    +0.000 A 
ATOM      7 CL   UNL     1       0.431  10.980  18.929  0.00  0.00    +0.000 Cl
ENDROOT
BRANCH   5   8
ATOM      8  C   UNL     1       1.487   8.227  20.239  0.00  0.00    +0.000 C 
ATOM      9  O   UNL     1       1.951   8.634  19.176  0.00  0.00    +0.000 OA
ATOM     10  N   UNL     1       1.682   6.973  20.765  0.00  0.00    +0.000 N 
ATOM     11  C   UNL     1       2.444   6.040  20.114  0.00  0.00    +0.000 A 
ATOM     12  N   UNL     1       3.249   6.211  19.101  0.00  0.00    +0.000 NA
ATOM     13  C   UNL     1       3.839   5.011  18.750  0.00  0.00    +0.000 A 
ATOM     14  C   UNL     1       3.397   3.922  19.480  0.00  0.00    +0.000 A 
ATOM     15  S   UNL     1       2.314   4.450  20.713  0.00  0.00    +0.000 S 
ATOM     16  H   UNL     1       1.186   6.660  21.589  0.00  0.00    +0.000 HD
BRANCH  13  17
ATOM     17  C   UNL     1       4.846   4.969  17.695  0.00  0.00    +0.000 A 
ATOM     18  C   UNL     1       5.895   5.897  17.631  0.00  0.00    +0.000 A 
ATOM     19  C   UNL     1       6.791   5.882  16.558  0.00  0.00    +0.000 A 
ATOM     20  C   UNL     1       6.654   4.936  15.543  0.00  0.00    +0.000 A 
ATOM     21  C   UNL     1       5.624   4.001  15.599  0.00  0.00    +0.000 A 
ATOM     22  C   UNL     1       4.723   4.023  16.668  0.00  0.00    +0.000 A 
ENDBRANCH  13  17
ENDBRANCH   5   8
BRANCH   1  23
ATOM     23  N   UNL     1      -1.230  12.444  20.975  0.00  0.00    +0.000 N 
ATOM     24  H   UNL     1      -1.459  12.558  19.989  0.00  0.00    +0.000 HD
BRANCH  23  25
ATOM     25  S   UNL     1      -0.888  13.885  21.776  0.00  0.00    +0.000 S 
ATOM     26  O   UNL     1       0.452  13.827  22.318  0.00  0.00    +0.000 OA
ATOM     27  O   UNL     1      -2.032  14.155  22.620  0.00  0.00    +0.000 OA
BRANCH  25  32
ATOM     28  C   UNL     1      -0.703  18.171  17.468  0.00  0.00    +0.000 C 
ATOM     29  C   UNL     1      -0.779  17.102  18.519  0.00  0.00    +0.000 A 
ATOM     30  C   UNL     1      -1.648  17.228  19.611  0.00  0.00    +0.000 A 
ATOM     31  C   UNL     1      -1.701  16.237  20.593  0.00  0.00    +0.000 A 
ATOM     32  C   UNL     1      -0.883  15.109  20.482  0.00  0.00    +0.000 A 
ATOM     33  C   UNL     1       0.002  14.980  19.408  0.00  0.00    +0.000 A 
ATOM     34  C   UNL     1       0.044  15.970  18.425  0.00  0.00    +0.000 A 
ENDBRANCH  25  32
ENDBRANCH  23  25
ENDBRANCH   1  23
TORSDOF 5
ENDMDL
MODEL 7
REMARK VINA RESULT:      -8.6      2.521      3.997
REMARK  Name = 
REMARK  6 active torsions:
REMARK  status: ('A' for Active; 'I' for Inactive)
REMARK    1  A    between atoms: C_1  and  C_2
REMARK    2  A    between atoms: C_5  and  S_6
REMARK    3  A    between atoms: S_6  and  N_9
REMARK    4  A    between atoms: N_9  and  C_10
REMARK    5  A    between atoms: C_14  and  C_15
REMARK    6  A    between atoms: C_20  and  C_21
REMARK                            x       y       z     vdW  Elec       q    Type
REMARK                         _______ _______ _______ _____ _____    ______ ____
ROOT
ATOM      1  C   UNL     1      -0.461  10.929  21.091  0.00  0.00    +0.000 A 
ATOM      2  C   UNL     1      -0.615  10.684  22.459  0.00  0.00    +0.000 A 
ATOM      3  C   UNL     1      -0.066   9.542  23.025  0.00  0.00    +0.000 A 
ATOM      4  C   UNL     1       0.645   8.652  22.225  0.00  0.00    +0.000 A 
ATOM      5  C   UNL     1       0.836   8.884  20.845  0.00  0.00    +0.000 A 
ATOM      6  C   UNL     1       0.278  10.039  20.275  0.00  0.00    +0.000 A 
ATOM      7 CL   UNL     1       0.571  10.487  18.622  0.00  0.00    +0.000 Cl
ENDROOT
BRANCH   5   8
ATOM      8  C   UNL     1       1.691   7.872  20.147  0.00  0.00    +0.000 C 
ATOM      9  O   UNL     1       2.246   8.243  19.115  0.00  0.00    +0.000 OA
ATOM     10  N   UNL     1       1.791   6.619  20.701  0.00  0.00    +0.000 N 
ATOM     11  C   UNL     1       2.555   5.644  20.117  0.00  0.00    +0.000 A 
ATOM     12  N   UNL     1       3.437   5.765  19.162  0.00  0.00    +0.000 NA
ATOM     13  C   UNL     1       3.995   4.534  18.868  0.00  0.00    +0.000 A 
ATOM     14  C   UNL     1       3.454   3.478  19.579  0.00  0.00    +0.000 A 
ATOM     15  S   UNL     1       2.313   4.071  20.725  0.00  0.00    +0.000 S 
ATOM     16  H   UNL     1       1.225   6.341  21.491  0.00  0.00    +0.000 HD
BRANCH  13  17
ATOM     17  C   UNL     1       5.071   4.432  17.889  0.00  0.00    +0.000 A 
ATOM     18  C   UNL     1       6.394   4.783  18.197  0.00  0.00    +0.000 A 
ATOM     19  C   UNL     1       7.383   4.756  17.209  0.00  0.00    +0.000 A 
ATOM     20  C   UNL     1       7.064   4.374  15.907  0.00  0.00    +0.000 A 
ATOM     21  C   UNL     1       5.758   4.013  15.589  0.00  0.00    +0.000 A 
ATOM     22  C   UNL     1       4.767   4.048  16.576  0.00  0.00    +0.000 A 
ENDBRANCH  13  17
ENDBRANCH   5   8
BRANCH   1  23
ATOM     23  N   UNL     1      -1.093  12.091  20.557  0.00  0.00    +0.000 N 
ATOM     24  H   UNL     1      -1.408  12.087  19.588  0.00  0.00    +0.000 HD
BRANCH  23  25
ATOM     25  S   UNL     1      -0.668  13.613  21.139  0.00  0.00    +0.000 S 
ATOM     26  O   UNL     1      -0.046  13.475  22.437  0.00  0.00    +0.000 OA
ATOM     27  O   UNL     1      -1.830  14.454  20.945  0.00  0.00    +0.000 OA
BRANCH  25  32
ATOM     28  C   UNL     1       3.721  15.636  17.449  0.00  0.00    +0.000 C 
ATOM     29  C   UNL     1       2.618  15.127  18.332  0.00  0.00    +0.000 A 
ATOM     30  C   UNL     1       1.437  15.863  18.502  0.00  0.00    +0.000 A 
ATOM     31  C   UNL     1       0.422  15.391  19.338  0.00  0.00    +0.000 A 
ATOM     32  C   UNL     1       0.587  14.174  20.007  0.00  0.00    +0.000 A 
ATOM     33  C   UNL     1       1.769  13.441  19.861  0.00  0.00    +0.000 A 
ATOM     34  C   UNL     1       2.775  13.914  19.017  0.00  0.00    +0.000 A 
ENDBRANCH  25  32
ENDBRANCH  23  25
ENDBRANCH   1  23
TORSDOF 5
ENDMDL
MODEL 8
REMARK VINA RESULT:      -8.6      1.747      2.114
REMARK  Name = 
REMARK  6 active torsions:
REMARK  status: ('A' for Active; 'I' for Inactive)
REMARK    1  A    between atoms: C_1  and  C_2
REMARK    2  A    between atoms: C_5  and  S_6
REMARK    3  A    between atoms: S_6  and  N_9
REMARK    4  A    between atoms: N_9  and  C_10
REMARK    5  A    between atoms: C_14  and  C_15
REMARK    6  A    between atoms: C_20  and  C_21
REMARK                            x       y       z     vdW  Elec       q    Type
REMARK                         _______ _______ _______ _____ _____    ______ ____
ROOT
ATOM      1  C   UNL     1      -0.632  10.934  21.270  0.00  0.00    +0.000 A 
ATOM      2  C   UNL     1      -0.695  10.711  22.648  0.00  0.00    +0.000 A 
ATOM      3  C   UNL     1      -0.067   9.603  23.201  0.00  0.00    +0.000 A 
ATOM      4  C   UNL     1       0.631   8.726  22.376  0.00  0.00    +0.000 A 
ATOM      5  C   UNL     1       0.731   8.939  20.983  0.00  0.00    +0.000 A 
ATOM      6  C   UNL     1       0.094  10.059  20.427  0.00  0.00    +0.000 A 
ATOM      7 CL   UNL     1       0.271  10.485  18.752  0.00  0.00    +0.000 Cl
ENDROOT
BRANCH   5   8
ATOM      8  C   UNL     1       1.584   7.947  20.253  0.00  0.00    +0.000 C 
ATOM      9  O   UNL     1       2.106   8.337  19.211  0.00  0.00    +0.000 OA
ATOM     10  N   UNL     1       1.718   6.691  20.792  0.00  0.00    +0.000 N 
ATOM     11  C   UNL     1       2.483   5.734  20.179  0.00  0.00    +0.000 A 
ATOM     12  N   UNL     1       3.337   5.878  19.204  0.00  0.00    +0.000 NA
ATOM     13  C   UNL     1       3.908   4.660  18.883  0.00  0.00    +0.000 A 
ATOM     14  C   UNL     1       3.403   3.588  19.597  0.00  0.00    +0.000 A 
ATOM     15  S   UNL     1       2.281   4.151  20.778  0.00  0.00    +0.000 S 
ATOM     16  H   UNL     1       1.177   6.396  21.594  0.00  0.00    +0.000 HD
BRANCH  13  17
ATOM     17  C   UNL     1       4.960   4.585  17.876  0.00  0.00    +0.000 A 
ATOM     18  C   UNL     1       4.694   4.225  16.547  0.00  0.00    +0.000 A 
ATOM     19  C   UNL     1       5.738   4.078  15.629  0.00  0.00    +0.000 A 
ATOM     20  C   UNL     1       7.057   4.294  16.025  0.00  0.00    +0.000 A 
ATOM     21  C   UNL     1       7.335   4.663  17.339  0.00  0.00    +0.000 A 
ATOM     22  C   UNL     1       6.291   4.802  18.259  0.00  0.00    +0.000 A 
ENDBRANCH  13  17
ENDBRANCH   5   8
BRANCH   1  23
ATOM     23  N   UNL     1      -1.340  12.060  20.753  0.00  0.00    +0.000 N 
ATOM     24  H   UNL     1      -1.988  11.929  19.978  0.00  0.00    +0.000 HD
BRANCH  23  25
ATOM     25  S   UNL     1      -0.636  13.589  20.815  0.00  0.00    +0.000 S 
ATOM     26  O   UNL     1      -0.896  14.288  19.576  0.00  0.00    +0.000 OA
ATOM     27  O   UNL     1       0.713  13.388  21.300  0.00  0.00    +0.000 OA
BRANCH  25  32
ATOM     28  C   UNL     1      -3.595  16.645  25.160  0.00  0.00    +0.000 C 
ATOM     29  C   UNL     1      -2.879  15.861  24.098  0.00  0.00    +0.000 A 
ATOM     30  C   UNL     1      -1.770  15.064  24.418  0.00  0.00    +0.000 A 
ATOM     31  C   UNL     1      -1.099  14.351  23.422  0.00  0.00    +0.000 A 
ATOM     32  C   UNL     1      -1.541  14.430  22.098  0.00  0.00    +0.000 A 
ATOM     33  C   UNL     1      -2.633  15.236  21.763  0.00  0.00    +0.000 A 
ATOM     34  C   UNL     1      -3.305  15.940  22.764  0.00  0.00    +0.000 A 
ENDBRANCH  25  32
ENDBRANCH  23  25
ENDBRANCH   1  23
TORSDOF 5
ENDMDL
MODEL 9
REMARK VINA RESULT:      -8.6      2.025      2.958
REMARK  Name = 
REMARK  6 active torsions:
REMARK  status: ('A' for Active; 'I' for Inactive)
REMARK    1  A    between atoms: C_1  and  C_2
REMARK    2  A    between atoms: C_5  and  S_6
REMARK    3  A    between atoms: S_6  and  N_9
REMARK    4  A    between atoms: N_9  and  C_10
REMARK    5  A    between atoms: C_14  and  C_15
REMARK    6  A    between atoms: C_20  and  C_21
REMARK                            x       y       z     vdW  Elec       q    Type
REMARK                         _______ _______ _______ _____ _____    ______ ____
ROOT
ATOM      1  C   UNL     1      -0.053  11.505  21.486  0.00  0.00    +0.000 A 
ATOM      2  C   UNL     1      -0.740  11.007  22.597  0.00  0.00    +0.000 A 
ATOM      3  C   UNL     1      -0.700   9.650  22.887  0.00  0.00    +0.000 A 
ATOM      4  C   UNL     1       0.035   8.795  22.071  0.00  0.00    +0.000 A 
ATOM      5  C   UNL     1       0.758   9.272  20.956  0.00  0.00    +0.000 A 
ATOM      6  C   UNL     1       0.715  10.645  20.664  0.00  0.00    +0.000 A 
ATOM      7 CL   UNL     1       1.676  11.351  19.402  0.00  0.00    +0.000 Cl
ENDROOT
BRANCH   5   8
ATOM      8  C   UNL     1       1.560   8.236  20.232  0.00  0.00    +0.000 C 
ATOM      9  O   UNL     1       2.020   8.562  19.140  0.00  0.00    +0.000 OA
ATOM     10  N   UNL     1       1.723   7.010  20.832  0.00  0.00    +0.000 N 
ATOM     11  C   UNL     1       2.444   6.015  20.229  0.00  0.00    +0.000 A 
ATOM     12  N   UNL     1       3.238   6.097  19.196  0.00  0.00    +0.000 NA
ATOM     13  C   UNL     1       3.783   4.859  18.911  0.00  0.00    +0.000 A 
ATOM     14  C   UNL     1       3.318   3.832  19.713  0.00  0.00    +0.000 A 
ATOM     15  S   UNL     1       2.273   4.469  20.927  0.00  0.00    +0.000 S 
ATOM     16  H   UNL     1       1.230   6.765  21.680  0.00  0.00    +0.000 HD
BRANCH  13  17
ATOM     17  C   UNL     1       4.772   4.720  17.847  0.00  0.00    +0.000 A 
ATOM     18  C   UNL     1       4.417   4.324  16.550  0.00  0.00    +0.000 A 
ATOM     19  C   UNL     1       5.401   4.116  15.578  0.00  0.00    +0.000 A 
ATOM     20  C   UNL     1       6.746   4.307  15.889  0.00  0.00    +0.000 A 
ATOM     21  C   UNL     1       7.112   4.711  17.171  0.00  0.00    +0.000 A 
ATOM     22  C   UNL     1       6.128   4.910  18.144  0.00  0.00    +0.000 A 
ENDBRANCH  13  17
ENDBRANCH   5   8
BRANCH   1  23
ATOM     23  N   UNL     1      -0.174  12.899  21.209  0.00  0.00    +0.000 N 
ATOM     24  H   UNL     1       0.396  13.563  21.732  0.00  0.00    +0.000 HD
BRANCH  23  25
ATOM     25  S   UNL     1      -1.648  13.519  20.680  0.00  0.00    +0.000 S 
ATOM     26  O   UNL     1      -1.450  14.860  20.173  0.00  0.00    +0.000 OA
ATOM     27  O   UNL     1      -2.599  13.244  21.734  0.00  0.00    +0.000 OA
BRANCH  25  32
ATOM     28  C   UNL     1      -3.221  10.176  15.851  0.00  0.00    +0.000 C 
ATOM     29  C   UNL     1      -2.824  10.972  17.061  0.00  0.00    +0.000 A 
ATOM     30  C   UNL     1      -3.650  11.020  18.192  0.00  0.00    +0.000 A 
ATOM     31  C   UNL     1      -3.281  11.777  19.307  0.00  0.00    +0.000 A 
ATOM     32  C   UNL     1      -2.078  12.487  19.293  0.00  0.00    +0.000 A 
ATOM     33  C   UNL     1      -1.255  12.463  18.163  0.00  0.00    +0.000 A 
ATOM     34  C   UNL     1      -1.624  11.698  17.056  0.00  0.00    +0.000 A 
ENDBRANCH  25  32
ENDBRANCH  23  25
ENDBRANCH   1  23
TORSDOF 5
ENDMDL
