MODEL 1
REMARK VINA RESULT:      -7.9      0.000      0.000
REMARK  Name = 
REMARK  10 active torsions:
REMARK  status: ('A' for Active; 'I' for Inactive)
REMARK    1  A    between atoms: N_1  and  C_2
REMARK    2  A    between atoms: C_2  and  C_3
REMARK    3  A    between atoms: N_5  and  C_6
REMARK    4  A    between atoms: C_6  and  C_7
REMARK    5  A    between atoms: N_9  and  C_10
REMARK    6  A    between atoms: C_13  and  S_14
REMARK    7  A    between atoms: S_14  and  N_17
REMARK    8  A    between atoms: N_17  and  C_18
REMARK    9  A    between atoms: C_22  and  S_23
REMARK   10  A    between atoms: S_23  and  N_24
REMARK                            x       y       z     vdW  Elec       q    Type
REMARK                         _______ _______ _______ _____ _____    ______ ____
ROOT
ATOM      1  C   UNL     1       4.769   3.917  17.166  0.00  0.00    +0.000 A 
ATOM      2  C   UNL     1       5.249   4.173  18.456  0.00  0.00    +0.000 A 
ATOM      3  C   UNL     1       4.381   4.312  19.541  0.00  0.00    +0.000 A 
ATOM      4  C   UNL     1       3.009   4.201  19.340  0.00  0.00    +0.000 A 
ATOM      5  C   UNL     1       2.504   3.924  18.065  0.00  0.00    +0.000 A 
ATOM      6  C   UNL     1       3.384   3.807  16.976  0.00  0.00    +0.000 A 
ENDROOT
BRANCH   1   9
ATOM      7  C   UNL     1       6.049   4.827  15.231  0.00  0.00    +0.000 C 
ATOM      8  O   UNL     1       5.872   6.025  15.442  0.00  0.00    +0.000 OA
ATOM      9  N   UNL     1       5.631   3.786  16.051  0.00  0.00    +0.000 N 
ATOM     10  H   UNL     1       6.072   2.879  15.902  0.00  0.00    +0.000 HD
BRANCH   7  11
ATOM     11  C   UNL     1       6.887   4.384  14.031  0.00  0.00    +0.000 C 
BRANCH  11  14
ATOM     12  C   UNL     1       6.542   3.041  12.001  0.00  0.00    +0.000 C 
ATOM     13  O   UNL     1       7.413   3.648  11.385  0.00  0.00    +0.000 OA
ATOM     14  N   UNL     1       6.241   3.307  13.316  0.00  0.00    +0.000 N 
ATOM     15  H   UNL     1       5.386   2.888  13.678  0.00  0.00    +0.000 HD
BRANCH  12  16
ATOM     16  C   UNL     1       5.714   1.908  11.388  0.00  0.00    +0.000 C 
BRANCH  16  17
ATOM     17  N   UNL     1       6.539   0.699  11.208  0.00  0.00    +0.000 NA
ATOM     18  H   UNL     1       6.036  -0.091  11.618  0.00  0.00    +0.000 HD
ATOM     19  H   UNL     1       7.384   0.796  11.777  0.00  0.00    +0.000 HD
ENDBRANCH  16  17
ENDBRANCH  12  16
ENDBRANCH  11  14
ENDBRANCH   7  11
ENDBRANCH   1   9
BRANCH   4  20
ATOM     20  S   UNL     1       1.921   4.425  20.733  0.00  0.00    +0.000 S 
ATOM     21  O   UNL     1       0.559   4.428  20.242  0.00  0.00    +0.000 OA
ATOM     22  O   UNL     1       2.339   3.515  21.775  0.00  0.00    +0.000 OA
BRANCH  20  23
ATOM     23  N   UNL     1       2.313   5.962  21.277  0.00  0.00    +0.000 N 
ATOM     24  H   UNL     1       2.859   6.041  22.131  0.00  0.00    +0.000 HD
BRANCH  23  25
ATOM     25  C   UNL     1       1.922   7.098  20.538  0.00  0.00    +0.000 A 
ATOM     26  C   UNL     1       2.286   7.216  19.198  0.00  0.00    +0.000 A 
ATOM     27  C   UNL     1       1.957   8.371  18.482  0.00  0.00    +0.000 A 
ATOM     28  C   UNL     1       1.268   9.408  19.111  0.00  0.00    +0.000 A 
ATOM     29  C   UNL     1       0.894   9.266  20.450  0.00  0.00    +0.000 A 
ATOM     30  C   UNL     1       1.197   8.105  21.162  0.00  0.00    +0.000 A 
BRANCH  29  31
ATOM     31  S   UNL     1       0.055  10.570  21.290  0.00  0.00    +0.000 S 
ATOM     32  O   UNL     1      -0.691  10.009  22.391  0.00  0.00    +0.000 OA
ATOM     33  O   UNL     1       0.947  11.695  21.442  0.00  0.00    +0.000 OA
BRANCH  31  34
ATOM     34  N   UNL     1      -1.071  11.036  20.137  0.00  0.00    +0.000 NA
ATOM     35  H   UNL     1      -1.890  10.426  20.180  0.00  0.00    +0.000 HD
ATOM     36  H   UNL     1      -1.284  12.028  20.237  0.00  0.00    +0.000 HD
ENDBRANCH  31  34
ENDBRANCH  29  31
ENDBRANCH  23  25
ENDBRANCH  20  23
ENDBRANCH   4  20
TORSDOF 10
ENDMDL
MODEL 2
REMARK VINA RESULT:      -7.8      0.697      1.219
REMARK  Name = 
REMARK  10 active torsions:
REMARK  status: ('A' for Active; 'I' for Inactive)
REMARK    1  A    between atoms: N_1  and  C_2
REMARK    2  A    between atoms: C_2  and  C_3
REMARK    3  A    between atoms: N_5  and  C_6
REMARK    4  A    between atoms: C_6  and  C_7
REMARK    5  A    between atoms: N_9  and  C_10
REMARK    6  A    between atoms: C_13  and  S_14
REMARK    7  A    between atoms: S_14  and  N_17
REMARK    8  A    between atoms: N_17  and  C_18
REMARK    9  A    between atoms: C_22  and  S_23
REMARK   10  A    between atoms: S_23  and  N_24
REMARK                            x       y       z     vdW  Elec       q    Type
REMARK                         _______ _______ _______ _____ _____    ______ ____
ROOT
ATOM      1  C   UNL     1       4.618   4.124  17.113  0.00  0.00    +0.000 A 
ATOM      2  C   UNL     1       3.239   3.908  17.004  0.00  0.00    +0.000 A 
ATOM      3  C   UNL     1       2.388   4.072  18.099  0.00  0.00    +0.000 A 
ATOM      4  C   UNL     1       2.918   4.453  19.328  0.00  0.00    +0.000 A 
ATOM      5  C   UNL     1       4.290   4.696  19.459  0.00  0.00    +0.000 A 
ATOM      6  C   UNL     1       5.140   4.507  18.356  0.00  0.00    +0.000 A 
ENDROOT
BRANCH   1   9
ATOM      7  C   UNL     1       5.993   4.970  15.214  0.00  0.00    +0.000 C 
ATOM      8  O   UNL     1       5.876   6.175  15.426  0.00  0.00    +0.000 OA
ATOM      9  N   UNL     1       5.498   3.950  16.018  0.00  0.00    +0.000 N 
ATOM     10  H   UNL     1       5.893   3.021  15.875  0.00  0.00    +0.000 HD
BRANCH   7  11
ATOM     11  C   UNL     1       6.833   4.485  14.032  0.00  0.00    +0.000 C 
BRANCH  11  14
ATOM     12  C   UNL     1       6.484   3.092  12.038  0.00  0.00    +0.000 C 
ATOM     13  O   UNL     1       7.357   3.679  11.406  0.00  0.00    +0.000 OA
ATOM     14  N   UNL     1       6.184   3.392  13.345  0.00  0.00    +0.000 N 
ATOM     15  H   UNL     1       5.328   2.986  13.719  0.00  0.00    +0.000 HD
BRANCH  12  16
ATOM     16  C   UNL     1       5.652   1.945  11.455  0.00  0.00    +0.000 C 
BRANCH  16  17
ATOM     17  N   UNL     1       6.521   0.819  11.063  0.00  0.00    +0.000 NA
ATOM     18  H   UNL     1       6.958   1.053  10.170  0.00  0.00    +0.000 HD
ATOM     19  H   UNL     1       5.929   0.009  10.863  0.00  0.00    +0.000 HD
ENDBRANCH  16  17
ENDBRANCH  12  16
ENDBRANCH  11  14
ENDBRANCH   7  11
ENDBRANCH   1   9
BRANCH   4  20
ATOM     20  S   UNL     1       1.818   4.614  20.719  0.00  0.00    +0.000 S 
ATOM     21  O   UNL     1       0.458   4.583  20.223  0.00  0.00    +0.000 OA
ATOM     22  O   UNL     1       2.262   3.699  21.746  0.00  0.00    +0.000 OA
BRANCH  20  23
ATOM     23  N   UNL     1       2.157   6.153  21.294  0.00  0.00    +0.000 N 
ATOM     24  H   UNL     1       2.680   6.234  22.163  0.00  0.00    +0.000 HD
BRANCH  23  25
ATOM     25  C   UNL     1       1.757   7.290  20.561  0.00  0.00    +0.000 A 
ATOM     26  C   UNL     1       2.195   7.461  19.249  0.00  0.00    +0.000 A 
ATOM     27  C   UNL     1       1.853   8.619  18.544  0.00  0.00    +0.000 A 
ATOM     28  C   UNL     1       1.078   9.605  19.154  0.00  0.00    +0.000 A 
ATOM     29  C   UNL     1       0.632   9.409  20.464  0.00  0.00    +0.000 A 
ATOM     30  C   UNL     1       0.947   8.244  21.165  0.00  0.00    +0.000 A 
BRANCH  29  31
ATOM     31  S   UNL     1      -0.318  10.648  21.284  0.00  0.00    +0.000 S 
ATOM     32  O   UNL     1      -1.276  11.191  20.351  0.00  0.00    +0.000 OA
ATOM     33  O   UNL     1      -0.686  10.179  22.599  0.00  0.00    +0.000 OA
BRANCH  31  34
ATOM     34  N   UNL     1       0.836  11.840  21.533  0.00  0.00    +0.000 NA
ATOM     35  H   UNL     1       0.809  12.158  22.502  0.00  0.00    +0.000 HD
ATOM     36  H   UNL     1       1.752  11.508  21.228  0.00  0.00    +0.000 HD
ENDBRANCH  31  34
ENDBRANCH  29  31
ENDBRANCH  23  25
ENDBRANCH  20  23
ENDBRANCH   4  20
TORSDOF 10
ENDMDL
MODEL 3
REMARK VINA RESULT:      -7.7      3.379      5.409
REMARK  Name = 
REMARK  10 active torsions:
REMARK  status: ('A' for Active; 'I' for Inactive)
REMARK    1  A    between atoms: N_1  and  C_2
REMARK    2  A    between atoms: C_2  and  C_3
REMARK    3  A    between atoms: N_5  and  C_6
REMARK    4  A    between atoms: C_6  and  C_7
REMARK    5  A    between atoms: N_9  and  C_10
REMARK    6  A    between atoms: C_13  and  S_14
REMARK    7  A    between atoms: S_14  and  N_17
REMARK    8  A    between atoms: N_17  and  C_18
REMARK    9  A    between atoms: C_22  and  S_23
REMARK   10  A    between atoms: S_23  and  N_24
REMARK                            x       y       z     vdW  Elec       q    Type
REMARK                         _______ _______ _______ _____ _____    ______ ____
ROOT
ATOM      1  C   UNL     1       2.555   7.107  18.565  0.00  0.00    +0.000 A 
ATOM      2  C   UNL     1       2.347   8.167  17.675  0.00  0.00    +0.000 A 
ATOM      3  C   UNL     1       1.723   9.348  18.084  0.00  0.00    +0.000 A 
ATOM      4  C   UNL     1       1.294   9.477  19.401  0.00  0.00    +0.000 A 
ATOM      5  C   UNL     1       1.510   8.441  20.316  0.00  0.00    +0.000 A 
ATOM      6  C   UNL     1       2.118   7.248  19.889  0.00  0.00    +0.000 A 
ENDROOT
BRANCH   1   9
ATOM      7  C   UNL     1       4.510   5.753  17.820  0.00  0.00    +0.000 C 
ATOM      8  O   UNL     1       5.387   6.603  17.961  0.00  0.00    +0.000 OA
ATOM      9  N   UNL     1       3.172   5.897  18.167  0.00  0.00    +0.000 N 
ATOM     10  H   UNL     1       2.625   5.041  18.249  0.00  0.00    +0.000 HD
BRANCH   7  11
ATOM     11  C   UNL     1       4.882   4.357  17.319  0.00  0.00    +0.000 C 
BRANCH  11  14
ATOM     12  C   UNL     1       6.647   4.498  15.614  0.00  0.00    +0.000 C 
ATOM     13  O   UNL     1       7.539   4.490  16.458  0.00  0.00    +0.000 OA
ATOM     14  N   UNL     1       5.316   4.397  15.941  0.00  0.00    +0.000 N 
ATOM     15  H   UNL     1       4.650   4.603  15.198  0.00  0.00    +0.000 HD
BRANCH  12  16
ATOM     16  C   UNL     1       6.915   4.594  14.109  0.00  0.00    +0.000 C 
BRANCH  16  17
ATOM     17  N   UNL     1       8.003   5.552  13.834  0.00  0.00    +0.000 NA
ATOM     18  H   UNL     1       7.978   5.782  12.839  0.00  0.00    +0.000 HD
ATOM     19  H   UNL     1       8.897   5.074  13.972  0.00  0.00    +0.000 HD
ENDBRANCH  16  17
ENDBRANCH  12  16
ENDBRANCH  11  14
ENDBRANCH   7  11
ENDBRANCH   1   9
BRANCH   4  20
ATOM     20  S   UNL     1       0.465  10.977  19.886  0.00  0.00    +0.000 S 
ATOM     21  O   UNL     1      -0.568  10.630  20.840  0.00  0.00    +0.000 OA
ATOM     22  O   UNL     1       1.475  11.961  20.201  0.00  0.00    +0.000 OA
BRANCH  20  23
ATOM     23  N   UNL     1      -0.254  11.491  18.461  0.00  0.00    +0.000 N 
ATOM     24  H   UNL     1       0.306  12.044  17.817  0.00  0.00    +0.000 HD
BRANCH  23  25
ATOM     25  C   UNL     1      -1.583  11.124  18.163  0.00  0.00    +0.000 A 
ATOM     26  C   UNL     1      -1.836  10.134  17.215  0.00  0.00    +0.000 A 
ATOM     27  C   UNL     1      -3.153   9.816  16.870  0.00  0.00    +0.000 A 
ATOM     28  C   UNL     1      -4.214  10.493  17.471  0.00  0.00    +0.000 A 
ATOM     29  C   UNL     1      -3.944  11.471  18.432  0.00  0.00    +0.000 A 
ATOM     30  C   UNL     1      -2.632  11.775  18.800  0.00  0.00    +0.000 A 
BRANCH  29  31
ATOM     31  S   UNL     1      -5.257  12.375  19.187  0.00  0.00    +0.000 S 
ATOM     32  O   UNL     1      -6.362  11.478  19.424  0.00  0.00    +0.000 OA
ATOM     33  O   UNL     1      -4.717  13.240  20.209  0.00  0.00    +0.000 OA
BRANCH  31  34
ATOM     34  N   UNL     1      -5.723  13.389  17.934  0.00  0.00    +0.000 NA
ATOM     35  H   UNL     1      -5.511  12.955  17.034  0.00  0.00    +0.000 HD
ATOM     36  H   UNL     1      -6.700  13.658  18.048  0.00  0.00    +0.000 HD
ENDBRANCH  31  34
ENDBRANCH  29  31
ENDBRANCH  23  25
ENDBRANCH  20  23
ENDBRANCH   4  20
TORSDOF 10
ENDMDL
MODEL 4
REMARK VINA RESULT:      -7.7      3.156      8.712
REMARK  Name = 
REMARK  10 active torsions:
REMARK  status: ('A' for Active; 'I' for Inactive)
REMARK    1  A    between atoms: N_1  and  C_2
REMARK    2  A    between atoms: C_2  and  C_3
REMARK    3  A    between atoms: N_5  and  C_6
REMARK    4  A    between atoms: C_6  and  C_7
REMARK    5  A    between atoms: N_9  and  C_10
REMARK    6  A    between atoms: C_13  and  S_14
REMARK    7  A    between atoms: S_14  and  N_17
REMARK    8  A    between atoms: N_17  and  C_18
REMARK    9  A    between atoms: C_22  and  S_23
REMARK   10  A    between atoms: S_23  and  N_24
REMARK                            x       y       z     vdW  Elec       q    Type
REMARK                         _______ _______ _______ _____ _____    ______ ____
ROOT
ATOM      1  C   UNL     1       1.828   7.376  19.951  0.00  0.00    +0.000 A 
ATOM      2  C   UNL     1       2.169   7.105  18.620  0.00  0.00    +0.000 A 
ATOM      3  C   UNL     1       2.259   5.795  18.146  0.00  0.00    +0.000 A 
ATOM      4  C   UNL     1       2.011   4.733  19.010  0.00  0.00    +0.000 A 
ATOM      5  C   UNL     1       1.646   4.978  20.339  0.00  0.00    +0.000 A 
ATOM      6  C   UNL     1       1.580   6.299  20.813  0.00  0.00    +0.000 A 
ENDROOT
BRANCH   1   9
ATOM      7  C   UNL     1       0.637   9.248  21.088  0.00  0.00    +0.000 C 
ATOM      8  O   UNL     1      -0.365   8.634  21.451  0.00  0.00    +0.000 OA
ATOM      9  N   UNL     1       1.745   8.697  20.455  0.00  0.00    +0.000 N 
ATOM     10  H   UNL     1       2.599   9.254  20.457  0.00  0.00    +0.000 HD
BRANCH   7  11
ATOM     11  C   UNL     1       0.782  10.731  21.428  0.00  0.00    +0.000 C 
BRANCH  11  14
ATOM     12  C   UNL     1      -0.396  11.903  19.617  0.00  0.00    +0.000 C 
ATOM     13  O   UNL     1      -1.498  11.623  20.077  0.00  0.00    +0.000 OA
ATOM     14  N   UNL     1       0.779  11.542  20.232  0.00  0.00    +0.000 N 
ATOM     15  H   UNL     1       1.630  11.652  19.683  0.00  0.00    +0.000 HD
BRANCH  12  16
ATOM     16  C   UNL     1      -0.204  12.706  18.326  0.00  0.00    +0.000 C 
BRANCH  16  17
ATOM     17  N   UNL     1      -1.349  12.511  17.417  0.00  0.00    +0.000 NA
ATOM     18  H   UNL     1      -1.414  13.331  16.810  0.00  0.00    +0.000 HD
ATOM     19  H   UNL     1      -2.208  12.525  17.971  0.00  0.00    +0.000 HD
ENDBRANCH  16  17
ENDBRANCH  12  16
ENDBRANCH  11  14
ENDBRANCH   7  11
ENDBRANCH   1   9
BRANCH   4  20
ATOM     20  S   UNL     1       2.173   3.071  18.391  0.00  0.00    +0.000 S 
ATOM     21  O   UNL     1       1.317   2.212  19.182  0.00  0.00    +0.000 OA
ATOM     22  O   UNL     1       2.060   3.120  16.951  0.00  0.00    +0.000 OA
BRANCH  20  23
ATOM     23  N   UNL     1       3.775   2.700  18.717  0.00  0.00    +0.000 N 
ATOM     24  H   UNL     1       3.983   1.789  19.119  0.00  0.00    +0.000 HD
BRANCH  23  25
ATOM     25  C   UNL     1       4.797   3.620  18.399  0.00  0.00    +0.000 A 
ATOM     26  C   UNL     1       5.442   4.322  19.415  0.00  0.00    +0.000 A 
ATOM     27  C   UNL     1       6.408   5.282  19.098  0.00  0.00    +0.000 A 
ATOM     28  C   UNL     1       6.722   5.541  17.764  0.00  0.00    +0.000 A 
ATOM     29  C   UNL     1       6.078   4.815  16.758  0.00  0.00    +0.000 A 
ATOM     30  C   UNL     1       5.133   3.837  17.069  0.00  0.00    +0.000 A 
BRANCH  29  31
ATOM     31  S   UNL     1       6.421   5.139  15.059  0.00  0.00    +0.000 S 
ATOM     32  O   UNL     1       7.781   5.609  14.940  0.00  0.00    +0.000 OA
ATOM     33  O   UNL     1       5.890   4.067  14.250  0.00  0.00    +0.000 OA
BRANCH  31  34
ATOM     34  N   UNL     1       5.431   6.462  14.768  0.00  0.00    +0.000 NA
ATOM     35  H   UNL     1       4.548   6.155  14.356  0.00  0.00    +0.000 HD
ATOM     36  H   UNL     1       5.325   7.013  15.620  0.00  0.00    +0.000 HD
ENDBRANCH  31  34
ENDBRANCH  29  31
ENDBRANCH  23  25
ENDBRANCH  20  23
ENDBRANCH   4  20
TORSDOF 10
ENDMDL
MODEL 5
REMARK VINA RESULT:      -7.6      3.781      6.074
REMARK  Name = 
REMARK  10 active torsions:
REMARK  status: ('A' for Active; 'I' for Inactive)
REMARK    1  A    between atoms: N_1  and  C_2
REMARK    2  A    between atoms: C_2  and  C_3
REMARK    3  A    between atoms: N_5  and  C_6
REMARK    4  A    between atoms: C_6  and  C_7
REMARK    5  A    between atoms: N_9  and  C_10
REMARK    6  A    between atoms: C_13  and  S_14
REMARK    7  A    between atoms: S_14  and  N_17
REMARK    8  A    between atoms: N_17  and  C_18
REMARK    9  A    between atoms: C_22  and  S_23
REMARK   10  A    between atoms: S_23  and  N_24
REMARK                            x       y       z     vdW  Elec       q    Type
REMARK                         _______ _______ _______ _____ _____    ______ ____
ROOT
ATOM      1  C   UNL     1       2.700   7.118  18.894  0.00  0.00    +0.000 A 
ATOM      2  C   UNL     1       2.516   8.055  17.869  0.00  0.00    +0.000 A 
ATOM      3  C   UNL     1       1.732   9.195  18.059  0.00  0.00    +0.000 A 
ATOM      4  C   UNL     1       1.115   9.407  19.287  0.00  0.00    +0.000 A 
ATOM      5  C   UNL     1       1.301   8.498  20.335  0.00  0.00    +0.000 A 
ATOM      6  C   UNL     1       2.072   7.342  20.127  0.00  0.00    +0.000 A 
ENDROOT
BRANCH   1   9
ATOM      7  C   UNL     1       3.029   4.761  18.155  0.00  0.00    +0.000 C 
ATOM      8  O   UNL     1       1.953   4.597  17.582  0.00  0.00    +0.000 OA
ATOM      9  N   UNL     1       3.478   5.949  18.718  0.00  0.00    +0.000 N 
ATOM     10  H   UNL     1       4.476   6.016  18.913  0.00  0.00    +0.000 HD
BRANCH   7  11
ATOM     11  C   UNL     1       4.049   3.623  18.194  0.00  0.00    +0.000 C 
BRANCH  11  14
ATOM     12  C   UNL     1       5.871   4.308  16.693  0.00  0.00    +0.000 C 
ATOM     13  O   UNL     1       6.344   5.074  17.527  0.00  0.00    +0.000 OA
ATOM     14  N   UNL     1       4.769   3.526  16.945  0.00  0.00    +0.000 N 
ATOM     15  H   UNL     1       4.342   3.072  16.139  0.00  0.00    +0.000 HD
BRANCH  12  16
ATOM     16  C   UNL     1       6.465   4.118  15.294  0.00  0.00    +0.000 C 
BRANCH  16  17
ATOM     17  N   UNL     1       7.478   5.154  15.014  0.00  0.00    +0.000 NA
ATOM     18  H   UNL     1       7.327   5.493  14.062  0.00  0.00    +0.000 HD
ATOM     19  H   UNL     1       8.398   4.709  14.992  0.00  0.00    +0.000 HD
ENDBRANCH  16  17
ENDBRANCH  12  16
ENDBRANCH  11  14
ENDBRANCH   7  11
ENDBRANCH   1   9
BRANCH   4  20
ATOM     20  S   UNL     1       0.088  10.848  19.490  0.00  0.00    +0.000 S 
ATOM     21  O   UNL     1      -1.284  10.459  19.242  0.00  0.00    +0.000 OA
ATOM     22  O   UNL     1       0.471  11.497  20.723  0.00  0.00    +0.000 OA
BRANCH  20  23
ATOM     23  N   UNL     1       0.604  11.859  18.256  0.00  0.00    +0.000 N 
ATOM     24  H   UNL     1       0.742  11.453  17.333  0.00  0.00    +0.000 HD
BRANCH  23  25
ATOM     25  C   UNL     1       0.796  13.235  18.497  0.00  0.00    +0.000 A 
ATOM     26  C   UNL     1      -0.306  14.077  18.639  0.00  0.00    +0.000 A 
ATOM     27  C   UNL     1      -0.118  15.451  18.813  0.00  0.00    +0.000 A 
ATOM     28  C   UNL     1       1.172  15.981  18.839  0.00  0.00    +0.000 A 
ATOM     29  C   UNL     1       2.266  15.121  18.714  0.00  0.00    +0.000 A 
ATOM     30  C   UNL     1       2.086  13.745  18.567  0.00  0.00    +0.000 A 
BRANCH  29  31
ATOM     31  S   UNL     1       3.911  15.756  18.706  0.00  0.00    +0.000 S 
ATOM     32  O   UNL     1       3.886  17.105  18.194  0.00  0.00    +0.000 OA
ATOM     33  O   UNL     1       4.569  15.399  19.941  0.00  0.00    +0.000 OA
BRANCH  31  34
ATOM     34  N   UNL     1       4.626  14.807  17.520  0.00  0.00    +0.000 NA
ATOM     35  H   UNL     1       5.130  15.397  16.856  0.00  0.00    +0.000 HD
ATOM     36  H   UNL     1       5.197  14.080  17.952  0.00  0.00    +0.000 HD
ENDBRANCH  31  34
ENDBRANCH  29  31
ENDBRANCH  23  25
ENDBRANCH  20  23
ENDBRANCH   4  20
TORSDOF 10
ENDMDL
MODEL 6
REMARK VINA RESULT:      -7.6      3.035      5.056
REMARK  Name = 
REMARK  10 active torsions:
REMARK  status: ('A' for Active; 'I' for Inactive)
REMARK    1  A    between atoms: N_1  and  C_2
REMARK    2  A    between atoms: C_2  and  C_3
REMARK    3  A    between atoms: N_5  and  C_6
REMARK    4  A    between atoms: C_6  and  C_7
REMARK    5  A    between atoms: N_9  and  C_10
REMARK    6  A    between atoms: C_13  and  S_14
REMARK    7  A    between atoms: S_14  and  N_17
REMARK    8  A    between atoms: N_17  and  C_18
REMARK    9  A    between atoms: C_22  and  S_23
REMARK   10  A    between atoms: S_23  and  N_24
REMARK                            x       y       z     vdW  Elec       q    Type
REMARK                         _______ _______ _______ _____ _____    ______ ____
ROOT
ATOM      1  C   UNL     1       2.677   6.092  19.080  0.00  0.00    +0.000 A 
ATOM      2  C   UNL     1       2.136   5.791  20.336  0.00  0.00    +0.000 A 
ATOM      3  C   UNL     1       1.514   6.771  21.114  0.00  0.00    +0.000 A 
ATOM      4  C   UNL     1       1.432   8.075  20.637  0.00  0.00    +0.000 A 
ATOM      5  C   UNL     1       1.945   8.398  19.376  0.00  0.00    +0.000 A 
ATOM      6  C   UNL     1       2.589   7.410  18.611  0.00  0.00    +0.000 A 
ENDROOT
BRANCH   1   9
ATOM      7  C   UNL     1       2.685   4.109  17.571  0.00  0.00    +0.000 C 
ATOM      8  O   UNL     1       1.472   4.010  17.392  0.00  0.00    +0.000 OA
ATOM      9  N   UNL     1       3.323   5.117  18.283  0.00  0.00    +0.000 N 
ATOM     10  H   UNL     1       4.324   5.227  18.125  0.00  0.00    +0.000 HD
BRANCH   7  11
ATOM     11  C   UNL     1       3.635   3.125  16.888  0.00  0.00    +0.000 C 
BRANCH  11  14
ATOM     12  C   UNL     1       5.731   4.113  16.071  0.00  0.00    +0.000 C 
ATOM     13  O   UNL     1       5.234   4.412  14.989  0.00  0.00    +0.000 OA
ATOM     14  N   UNL     1       5.013   3.515  17.078  0.00  0.00    +0.000 N 
ATOM     15  H   UNL     1       5.551   3.137  17.856  0.00  0.00    +0.000 HD
BRANCH  12  16
ATOM     16  C   UNL     1       7.193   4.396  16.430  0.00  0.00    +0.000 C 
BRANCH  16  17
ATOM     17  N   UNL     1       7.397   4.310  17.888  0.00  0.00    +0.000 NA
ATOM     18  H   UNL     1       7.240   5.238  18.285  0.00  0.00    +0.000 HD
ATOM     19  H   UNL     1       8.384   4.111  18.066  0.00  0.00    +0.000 HD
ENDBRANCH  16  17
ENDBRANCH  12  16
ENDBRANCH  11  14
ENDBRANCH   7  11
ENDBRANCH   1   9
BRANCH   4  20
ATOM     20  S   UNL     1       0.672   9.314  21.666  0.00  0.00    +0.000 S 
ATOM     21  O   UNL     1      -0.698   8.917  21.909  0.00  0.00    +0.000 OA
ATOM     22  O   UNL     1       1.574   9.600  22.759  0.00  0.00    +0.000 OA
BRANCH  20  23
ATOM     23  N   UNL     1       0.683  10.677  20.689  0.00  0.00    +0.000 N 
ATOM     24  H   UNL     1       1.582  11.024  20.363  0.00  0.00    +0.000 HD
BRANCH  23  25
ATOM     25  C   UNL     1      -0.530  11.288  20.307  0.00  0.00    +0.000 A 
ATOM     26  C   UNL     1      -1.118  12.243  21.133  0.00  0.00    +0.000 A 
ATOM     27  C   UNL     1      -2.352  12.801  20.789  0.00  0.00    +0.000 A 
ATOM     28  C   UNL     1      -2.998  12.399  19.620  0.00  0.00    +0.000 A 
ATOM     29  C   UNL     1      -2.386  11.453  18.793  0.00  0.00    +0.000 A 
ATOM     30  C   UNL     1      -1.141  10.912  19.118  0.00  0.00    +0.000 A 
BRANCH  29  31
ATOM     31  S   UNL     1      -3.187  10.891  17.326  0.00  0.00    +0.000 S 
ATOM     32  O   UNL     1      -2.288  11.065  16.210  0.00  0.00    +0.000 OA
ATOM     33  O   UNL     1      -3.866   9.645  17.598  0.00  0.00    +0.000 OA
BRANCH  31  34
ATOM     34  N   UNL     1      -4.398  12.039  17.149  0.00  0.00    +0.000 NA
ATOM     35  H   UNL     1      -4.880  12.180  18.038  0.00  0.00    +0.000 HD
ATOM     36  H   UNL     1      -4.013  12.892  16.743  0.00  0.00    +0.000 HD
ENDBRANCH  31  34
ENDBRANCH  29  31
ENDBRANCH  23  25
ENDBRANCH  20  23
ENDBRANCH   4  20
TORSDOF 10
ENDMDL
MODEL 7
REMARK VINA RESULT:      -7.5      2.913      8.824
REMARK  Name = 
REMARK  10 active torsions:
REMARK  status: ('A' for Active; 'I' for Inactive)
REMARK    1  A    between atoms: N_1  and  C_2
REMARK    2  A    between atoms: C_2  and  C_3
REMARK    3  A    between atoms: N_5  and  C_6
REMARK    4  A    between atoms: C_6  and  C_7
REMARK    5  A    between atoms: N_9  and  C_10
REMARK    6  A    between atoms: C_13  and  S_14
REMARK    7  A    between atoms: S_14  and  N_17
REMARK    8  A    between atoms: N_17  and  C_18
REMARK    9  A    between atoms: C_22  and  S_23
REMARK   10  A    between atoms: S_23  and  N_24
REMARK                            x       y       z     vdW  Elec       q    Type
REMARK                         _______ _______ _______ _____ _____    ______ ____
ROOT
ATOM      1  C   UNL     1       1.830   6.933  20.280  0.00  0.00    +0.000 A 
ATOM      2  C   UNL     1       1.786   5.759  21.041  0.00  0.00    +0.000 A 
ATOM      3  C   UNL     1       1.963   4.505  20.453  0.00  0.00    +0.000 A 
ATOM      4  C   UNL     1       2.183   4.414  19.082  0.00  0.00    +0.000 A 
ATOM      5  C   UNL     1       2.253   5.574  18.302  0.00  0.00    +0.000 A 
ATOM      6  C   UNL     1       2.051   6.830  18.900  0.00  0.00    +0.000 A 
ENDROOT
BRANCH   1   9
ATOM      7  C   UNL     1       0.440   8.695  21.365  0.00  0.00    +0.000 C 
ATOM      8  O   UNL     1      -0.583   8.036  21.545  0.00  0.00    +0.000 OA
ATOM      9  N   UNL     1       1.639   8.213  20.855  0.00  0.00    +0.000 N 
ATOM     10  H   UNL     1       2.467   8.786  21.012  0.00  0.00    +0.000 HD
BRANCH   7  11
ATOM     11  C   UNL     1       0.492  10.153  21.820  0.00  0.00    +0.000 C 
BRANCH  11  14
ATOM     12  C   UNL     1      -0.122  11.974  20.287  0.00  0.00    +0.000 C 
ATOM     13  O   UNL     1      -1.192  12.167  20.856  0.00  0.00    +0.000 OA
ATOM     14  N   UNL     1       0.786  11.033  20.713  0.00  0.00    +0.000 N 
ATOM     15  H   UNL     1       1.548  10.818  20.073  0.00  0.00    +0.000 HD
BRANCH  12  16
ATOM     16  C   UNL     1       0.334  12.771  19.061  0.00  0.00    +0.000 C 
BRANCH  16  17
ATOM     17  N   UNL     1      -0.584  12.551  17.927  0.00  0.00    +0.000 NA
ATOM     18  H   UNL     1      -0.526  13.364  17.311  0.00  0.00    +0.000 HD
ATOM     19  H   UNL     1      -1.543  12.555  18.281  0.00  0.00    +0.000 HD
ENDBRANCH  16  17
ENDBRANCH  12  16
ENDBRANCH  11  14
ENDBRANCH   7  11
ENDBRANCH   1   9
BRANCH   4  20
ATOM     20  S   UNL     1       2.364   2.801  18.350  0.00  0.00    +0.000 S 
ATOM     21  O   UNL     1       1.625   1.855  19.159  0.00  0.00    +0.000 OA
ATOM     22  O   UNL     1       2.116   2.926  16.932  0.00  0.00    +0.000 OA
BRANCH  20  23
ATOM     23  N   UNL     1       4.005   2.495  18.508  0.00  0.00    +0.000 N 
ATOM     24  H   UNL     1       4.291   1.564  18.799  0.00  0.00    +0.000 HD
BRANCH  23  25
ATOM     25  C   UNL     1       4.948   3.499  18.202  0.00  0.00    +0.000 A 
ATOM     26  C   UNL     1       5.517   4.253  19.227  0.00  0.00    +0.000 A 
ATOM     27  C   UNL     1       6.401   5.293  18.921  0.00  0.00    +0.000 A 
ATOM     28  C   UNL     1       6.709   5.578  17.591  0.00  0.00    +0.000 A 
ATOM     29  C   UNL     1       6.143   4.801  16.577  0.00  0.00    +0.000 A 
ATOM     30  C   UNL     1       5.281   3.745  16.876  0.00  0.00    +0.000 A 
BRANCH  29  31
ATOM     31  S   UNL     1       6.479   5.154  14.882  0.00  0.00    +0.000 S 
ATOM     32  O   UNL     1       5.435   6.007  14.370  0.00  0.00    +0.000 OA
ATOM     33  O   UNL     1       7.883   5.453  14.724  0.00  0.00    +0.000 OA
BRANCH  31  34
ATOM     34  N   UNL     1       6.254   3.646  14.180  0.00  0.00    +0.000 NA
ATOM     35  H   UNL     1       7.002   3.456  13.511  0.00  0.00    +0.000 HD
ATOM     36  H   UNL     1       6.150   2.936  14.905  0.00  0.00    +0.000 HD
ENDBRANCH  31  34
ENDBRANCH  29  31
ENDBRANCH  23  25
ENDBRANCH  20  23
ENDBRANCH   4  20
TORSDOF 10
ENDMDL
MODEL 8
REMARK VINA RESULT:      -7.5      3.505      5.833
REMARK  Name = 
REMARK  10 active torsions:
REMARK  status: ('A' for Active; 'I' for Inactive)
REMARK    1  A    between atoms: N_1  and  C_2
REMARK    2  A    between atoms: C_2  and  C_3
REMARK    3  A    between atoms: N_5  and  C_6
REMARK    4  A    between atoms: C_6  and  C_7
REMARK    5  A    between atoms: N_9  and  C_10
REMARK    6  A    between atoms: C_13  and  S_14
REMARK    7  A    between atoms: S_14  and  N_17
REMARK    8  A    between atoms: N_17  and  C_18
REMARK    9  A    between atoms: C_22  and  S_23
REMARK   10  A    between atoms: S_23  and  N_24
REMARK                            x       y       z     vdW  Elec       q    Type
REMARK                         _______ _______ _______ _____ _____    ______ ____
ROOT
ATOM      1  C   UNL     1       2.777   6.991  18.745  0.00  0.00    +0.000 A 
ATOM      2  C   UNL     1       2.621   7.987  17.773  0.00  0.00    +0.000 A 
ATOM      3  C   UNL     1       1.881   9.143  18.030  0.00  0.00    +0.000 A 
ATOM      4  C   UNL     1       1.281   9.312  19.273  0.00  0.00    +0.000 A 
ATOM      5  C   UNL     1       1.440   8.342  20.270  0.00  0.00    +0.000 A 
ATOM      6  C   UNL     1       2.166   7.172  19.994  0.00  0.00    +0.000 A 
ENDROOT
BRANCH   1   9
ATOM      7  C   UNL     1       2.995   4.641  17.944  0.00  0.00    +0.000 C 
ATOM      8  O   UNL     1       1.882   4.517  17.433  0.00  0.00    +0.000 OA
ATOM      9  N   UNL     1       3.510   5.805  18.500  0.00  0.00    +0.000 N 
ATOM     10  H   UNL     1       4.520   5.840  18.636  0.00  0.00    +0.000 HD
BRANCH   7  11
ATOM     11  C   UNL     1       3.982   3.475  17.899  0.00  0.00    +0.000 C 
BRANCH  11  14
ATOM     12  C   UNL     1       6.277   4.354  17.960  0.00  0.00    +0.000 C 
ATOM     13  O   UNL     1       6.273   4.433  19.185  0.00  0.00    +0.000 OA
ATOM     14  N   UNL     1       5.212   3.859  17.246  0.00  0.00    +0.000 N 
ATOM     15  H   UNL     1       5.234   4.009  16.238  0.00  0.00    +0.000 HD
BRANCH  12  16
ATOM     16  C   UNL     1       7.470   4.770  17.095  0.00  0.00    +0.000 C 
BRANCH  16  17
ATOM     17  N   UNL     1       7.118   5.921  16.241  0.00  0.00    +0.000 NA
ATOM     18  H   UNL     1       6.351   6.425  16.691  0.00  0.00    +0.000 HD
ATOM     19  H   UNL     1       6.724   5.567  15.367  0.00  0.00    +0.000 HD
ENDBRANCH  16  17
ENDBRANCH  12  16
ENDBRANCH  11  14
ENDBRANCH   7  11
ENDBRANCH   1   9
BRANCH   4  20
ATOM     20  S   UNL     1       0.309  10.777  19.561  0.00  0.00    +0.000 S 
ATOM     21  O   UNL     1      -0.748  10.438  20.489  0.00  0.00    +0.000 OA
ATOM     22  O   UNL     1       1.218  11.868  19.827  0.00  0.00    +0.000 OA
BRANCH  20  23
ATOM     23  N   UNL     1      -0.361  11.089  18.056  0.00  0.00    +0.000 N 
ATOM     24  H   UNL     1       0.271  11.288  17.284  0.00  0.00    +0.000 HD
BRANCH  23  25
ATOM     25  C   UNL     1      -1.759  11.033  17.874  0.00  0.00    +0.000 A 
ATOM     26  C   UNL     1      -2.293  10.330  16.796  0.00  0.00    +0.000 A 
ATOM     27  C   UNL     1      -3.674  10.329  16.577  0.00  0.00    +0.000 A 
ATOM     28  C   UNL     1      -4.517  11.035  17.435  0.00  0.00    +0.000 A 
ATOM     29  C   UNL     1      -3.967  11.719  18.523  0.00  0.00    +0.000 A 
ATOM     30  C   UNL     1      -2.592  11.703  18.762  0.00  0.00    +0.000 A 
BRANCH  29  31
ATOM     31  S   UNL     1      -4.995  12.654  19.609  0.00  0.00    +0.000 S 
ATOM     32  O   UNL     1      -5.958  11.766  20.215  0.00  0.00    +0.000 OA
ATOM     33  O   UNL     1      -4.178  13.564  20.377  0.00  0.00    +0.000 OA
BRANCH  31  34
ATOM     34  N   UNL     1      -5.842  13.610  18.521  0.00  0.00    +0.000 NA
ATOM     35  H   UNL     1      -6.846  13.494  18.660  0.00  0.00    +0.000 HD
ATOM     36  H   UNL     1      -5.521  14.577  18.583  0.00  0.00    +0.000 HD
ENDBRANCH  31  34
ENDBRANCH  29  31
ENDBRANCH  23  25
ENDBRANCH  20  23
ENDBRANCH   4  20
TORSDOF 10
ENDMDL
MODEL 9
REMARK VINA RESULT:      -7.5      3.048      8.991
REMARK  Name = 
REMARK  10 active torsions:
REMARK  status: ('A' for Active; 'I' for Inactive)
REMARK    1  A    between atoms: N_1  and  C_2
REMARK    2  A    between atoms: C_2  and  C_3
REMARK    3  A    between atoms: N_5  and  C_6
REMARK    4  A    between atoms: C_6  and  C_7
REMARK    5  A    between atoms: N_9  and  C_10
REMARK    6  A    between atoms: C_13  and  S_14
REMARK    7  A    between atoms: S_14  and  N_17
REMARK    8  A    between atoms: N_17  and  C_18
REMARK    9  A    between atoms: C_22  and  S_23
REMARK   10  A    between atoms: S_23  and  N_24
REMARK                            x       y       z     vdW  Elec       q    Type
REMARK                         _______ _______ _______ _____ _____    ______ ____
ROOT
ATOM      1  C   UNL     1       1.865   8.135  19.303  0.00  0.00    +0.000 A 
ATOM      2  C   UNL     1       1.718   7.246  20.374  0.00  0.00    +0.000 A 
ATOM      3  C   UNL     1       2.064   5.898  20.252  0.00  0.00    +0.000 A 
ATOM      4  C   UNL     1       2.560   5.424  19.042  0.00  0.00    +0.000 A 
ATOM      5  C   UNL     1       2.737   6.296  17.963  0.00  0.00    +0.000 A 
ATOM      6  C   UNL     1       2.365   7.646  18.088  0.00  0.00    +0.000 A 
ENDROOT
BRANCH   1   9
ATOM      7  C   UNL     1       0.592  10.154  18.584  0.00  0.00    +0.000 C 
ATOM      8  O   UNL     1      -0.159   9.618  17.771  0.00  0.00    +0.000 OA
ATOM      9  N   UNL     1       1.507   9.501  19.401  0.00  0.00    +0.000 N 
ATOM     10  H   UNL     1       1.860  10.023  20.203  0.00  0.00    +0.000 HD
BRANCH   7  11
ATOM     11  C   UNL     1       0.483  11.658  18.839  0.00  0.00    +0.000 C 
BRANCH  11  14
ATOM     12  C   UNL     1       0.235  12.008  21.259  0.00  0.00    +0.000 C 
ATOM     13  O   UNL     1       1.444  11.921  21.452  0.00  0.00    +0.000 OA
ATOM     14  N   UNL     1      -0.324  11.931  20.006  0.00  0.00    +0.000 N 
ATOM     15  H   UNL     1      -1.336  11.824  19.967  0.00  0.00    +0.000 HD
BRANCH  12  16
ATOM     16  C   UNL     1      -0.781  12.239  22.382  0.00  0.00    +0.000 C 
BRANCH  16  17
ATOM     17  N   UNL     1      -0.880  11.048  23.247  0.00  0.00    +0.000 NA
ATOM     18  H   UNL     1      -1.668  10.485  22.920  0.00  0.00    +0.000 HD
ATOM     19  H   UNL     1      -1.145  11.352  24.187  0.00  0.00    +0.000 HD
ENDBRANCH  16  17
ENDBRANCH  12  16
ENDBRANCH  11  14
ENDBRANCH   7  11
ENDBRANCH   1   9
BRANCH   4  20
ATOM     20  S   UNL     1       2.955   3.693  18.900  0.00  0.00    +0.000 S 
ATOM     21  O   UNL     1       2.129   2.965  19.840  0.00  0.00    +0.000 OA
ATOM     22  O   UNL     1       2.966   3.353  17.495  0.00  0.00    +0.000 OA
BRANCH  20  23
ATOM     23  N   UNL     1       4.552   3.625  19.406  0.00  0.00    +0.000 N 
ATOM     24  H   UNL     1       4.781   3.014  20.185  0.00  0.00    +0.000 HD
BRANCH  23  25
ATOM     25  C   UNL     1       5.543   4.370  18.732  0.00  0.00    +0.000 A 
ATOM     26  C   UNL     1       6.358   5.248  19.444  0.00  0.00    +0.000 A 
ATOM     27  C   UNL     1       7.295   6.035  18.770  0.00  0.00    +0.000 A 
ATOM     28  C   UNL     1       7.411   5.947  17.383  0.00  0.00    +0.000 A 
ATOM     29  C   UNL     1       6.599   5.048  16.685  0.00  0.00    +0.000 A 
ATOM     30  C   UNL     1       5.680   4.240  17.356  0.00  0.00    +0.000 A 
BRANCH  29  31
ATOM     31  S   UNL     1       6.690   4.934  14.928  0.00  0.00    +0.000 S 
ATOM     32  O   UNL     1       7.931   5.524  14.487  0.00  0.00    +0.000 OA
ATOM     33  O   UNL     1       6.255   3.621  14.510  0.00  0.00    +0.000 OA
BRANCH  31  34
ATOM     34  N   UNL     1       5.468   5.986  14.464  0.00  0.00    +0.000 NA
ATOM     35  H   UNL     1       5.599   6.269  13.492  0.00  0.00    +0.000 HD
ATOM     36  H   UNL     1       4.557   5.570  14.659  0.00  0.00    +0.000 HD
ENDBRANCH  31  34
ENDBRANCH  29  31
ENDBRANCH  23  25
ENDBRANCH  20  23
ENDBRANCH   4  20
TORSDOF 10
ENDMDL
