MODEL 1
REMARK VINA RESULT:      -7.6      0.000      0.000
REMARK  Name = 
REMARK  3 active torsions:
REMARK  status: ('A' for Active; 'I' for Inactive)
REMARK    1  A    between atoms: N_3  and  C_4
REMARK    2  A    between atoms: C_4  and  C_5
REMARK    3  A    between atoms: C_7  and  C_8
REMARK                            x       y       z     vdW  Elec       q    Type
REMARK                         _______ _______ _______ _____ _____    ______ ____
ROOT
ATOM      1  O   UNL     1       6.524   5.355  19.658  0.00  0.00    +0.000 OA
ATOM      2  C   UNL     1       5.684   4.752  18.990  0.00  0.00    +0.000 C 
ATOM      3  N   UNL     1       5.974   4.216  17.782  0.00  0.00    +0.000 N 
ATOM      4  N   UNL     1       4.396   4.702  19.421  0.00  0.00    +0.000 N 
ATOM      5  C   UNL     1       3.387   4.027  18.800  0.00  0.00    +0.000 A 
ATOM      6  N   UNL     1       3.457   3.134  17.841  0.00  0.00    +0.000 NA
ATOM      7  N   UNL     1       2.204   2.699  17.455  0.00  0.00    +0.000 NA
ATOM      8  C   UNL     1       1.251   3.314  18.122  0.00  0.00    +0.000 A 
ATOM      9  S   UNL     1       1.809   4.416  19.316  0.00  0.00    +0.000 S 
ATOM     10  H   UNL     1       5.291   3.609  17.328  0.00  0.00    +0.000 HD
ATOM     11  H   UNL     1       4.176   5.260  20.228  0.00  0.00    +0.000 HD
ENDROOT
BRANCH   3  12
ATOM     12  C   UNL     1       7.261   4.374  17.144  0.00  0.00    +0.000 C 
BRANCH  12  13
ATOM     13  C   UNL     1       7.071   4.572  15.688  0.00  0.00    +0.000 A 
ATOM     14  N   UNL     1       6.347   3.881  14.835  0.00  0.00    +0.000 NA
ATOM     15  C   UNL     1       6.661   4.479  13.643  0.00  0.00    +0.000 A 
ATOM     16  N   UNL     1       7.501   5.517  13.737  0.00  0.00    +0.000 NA
ATOM     17  O   UNL     1       7.777   5.584  15.106  0.00  0.00    +0.000 OA
BRANCH  15  18
ATOM     18  C   UNL     1       6.140   3.980  12.305  0.00  0.00    +0.000 C 
ATOM     19  C   UNL     1       6.099   2.479  12.077  0.00  0.00    +0.000 C 
ATOM     20  C   UNL     1       4.824   3.230  12.253  0.00  0.00    +0.000 C 
ENDBRANCH  15  18
ENDBRANCH  12  13
ENDBRANCH   3  12
TORSDOF 3
ENDMDL
MODEL 2
REMARK VINA RESULT:      -7.6      1.448      1.575
REMARK  Name = 
REMARK  3 active torsions:
REMARK  status: ('A' for Active; 'I' for Inactive)
REMARK    1  A    between atoms: N_3  and  C_4
REMARK    2  A    between atoms: C_4  and  C_5
REMARK    3  A    between atoms: C_7  and  C_8
REMARK                            x       y       z     vdW  Elec       q    Type
REMARK                         _______ _______ _______ _____ _____    ______ ____
ROOT
ATOM      1  O   UNL     1       6.663   4.450  19.057  0.00  0.00    +0.000 OA
ATOM      2  C   UNL     1       5.439   4.437  18.942  0.00  0.00    +0.000 C 
ATOM      3  N   UNL     1       4.787   5.249  18.077  0.00  0.00    +0.000 N 
ATOM      4  N   UNL     1       4.695   3.662  19.775  0.00  0.00    +0.000 N 
ATOM      5  C   UNL     1       3.340   3.522  19.717  0.00  0.00    +0.000 A 
ATOM      6  N   UNL     1       2.511   3.888  18.768  0.00  0.00    +0.000 NA
ATOM      7  N   UNL     1       1.201   3.600  19.095  0.00  0.00    +0.000 NA
ATOM      8  C   UNL     1       1.107   3.062  20.292  0.00  0.00    +0.000 A 
ATOM      9  S   UNL     1       2.611   2.803  21.080  0.00  0.00    +0.000 S 
ATOM     10  H   UNL     1       3.790   5.109  17.915  0.00  0.00    +0.000 HD
ATOM     11  H   UNL     1       5.194   3.209  20.522  0.00  0.00    +0.000 HD
ENDROOT
BRANCH   3  12
ATOM     12  C   UNL     1       5.464   6.245  17.279  0.00  0.00    +0.000 C 
BRANCH  12  13
ATOM     13  C   UNL     1       5.970   5.622  16.033  0.00  0.00    +0.000 A 
ATOM     14  N   UNL     1       5.422   4.697  15.276  0.00  0.00    +0.000 NA
ATOM     15  C   UNL     1       6.405   4.466  14.350  0.00  0.00    +0.000 A 
ATOM     16  N   UNL     1       7.497   5.228  14.485  0.00  0.00    +0.000 NA
ATOM     17  O   UNL     1       7.209   6.006  15.611  0.00  0.00    +0.000 OA
BRANCH  15  18
ATOM     18  C   UNL     1       6.295   3.393  13.279  0.00  0.00    +0.000 C 
ATOM     19  C   UNL     1       5.324   3.631  12.135  0.00  0.00    +0.000 C 
ATOM     20  C   UNL     1       6.791   3.689  11.877  0.00  0.00    +0.000 C 
ENDBRANCH  15  18
ENDBRANCH  12  13
ENDBRANCH   3  12
TORSDOF 3
ENDMDL
MODEL 3
REMARK VINA RESULT:      -7.4      1.253      1.253
REMARK  Name = 
REMARK  3 active torsions:
REMARK  status: ('A' for Active; 'I' for Inactive)
REMARK    1  A    between atoms: N_3  and  C_4
REMARK    2  A    between atoms: C_4  and  C_5
REMARK    3  A    between atoms: C_7  and  C_8
REMARK                            x       y       z     vdW  Elec       q    Type
REMARK                         _______ _______ _______ _____ _____    ______ ____
ROOT
ATOM      1  O   UNL     1       5.207   6.507  16.999  0.00  0.00    +0.000 OA
ATOM      2  C   UNL     1       4.900   5.372  17.363  0.00  0.00    +0.000 C 
ATOM      3  N   UNL     1       5.770   4.338  17.310  0.00  0.00    +0.000 N 
ATOM      4  N   UNL     1       3.619   5.112  17.737  0.00  0.00    +0.000 N 
ATOM      5  C   UNL     1       3.166   3.915  18.206  0.00  0.00    +0.000 A 
ATOM      6  N   UNL     1       3.852   2.869  18.604  0.00  0.00    +0.000 NA
ATOM      7  N   UNL     1       3.026   1.829  18.980  0.00  0.00    +0.000 NA
ATOM      8  C   UNL     1       1.756   2.133  18.814  0.00  0.00    +0.000 A 
ATOM      9  S   UNL     1       1.472   3.731  18.252  0.00  0.00    +0.000 S 
ATOM     10  H   UNL     1       5.520   3.451  17.748  0.00  0.00    +0.000 HD
ATOM     11  H   UNL     1       2.956   5.855  17.595  0.00  0.00    +0.000 HD
ENDROOT
BRANCH   3  12
ATOM     12  C   UNL     1       7.099   4.461  16.753  0.00  0.00    +0.000 C 
BRANCH  12  13
ATOM     13  C   UNL     1       7.009   4.552  15.277  0.00  0.00    +0.000 A 
ATOM     14  N   UNL     1       6.305   3.830  14.434  0.00  0.00    +0.000 NA
ATOM     15  C   UNL     1       6.722   4.316  13.222  0.00  0.00    +0.000 A 
ATOM     16  N   UNL     1       7.608   5.317  13.292  0.00  0.00    +0.000 NA
ATOM     17  O   UNL     1       7.801   5.480  14.667  0.00  0.00    +0.000 OA
BRANCH  15  18
ATOM     18  C   UNL     1       6.260   3.737  11.895  0.00  0.00    +0.000 C 
ATOM     19  C   UNL     1       6.083   2.231  11.803  0.00  0.00    +0.000 C 
ATOM     20  C   UNL     1       4.882   3.113  11.796  0.00  0.00    +0.000 C 
ENDBRANCH  15  18
ENDBRANCH  12  13
ENDBRANCH   3  12
TORSDOF 3
ENDMDL
MODEL 4
REMARK VINA RESULT:      -7.2      1.997      2.229
REMARK  Name = 
REMARK  3 active torsions:
REMARK  status: ('A' for Active; 'I' for Inactive)
REMARK    1  A    between atoms: N_3  and  C_4
REMARK    2  A    between atoms: C_4  and  C_5
REMARK    3  A    between atoms: C_7  and  C_8
REMARK                            x       y       z     vdW  Elec       q    Type
REMARK                         _______ _______ _______ _____ _____    ______ ____
ROOT
ATOM      1  O   UNL     1       2.878   7.774  17.960  0.00  0.00    +0.000 OA
ATOM      2  C   UNL     1       3.229   6.629  18.242  0.00  0.00    +0.000 C 
ATOM      3  N   UNL     1       4.443   6.141  17.898  0.00  0.00    +0.000 N 
ATOM      4  N   UNL     1       2.341   5.782  18.828  0.00  0.00    +0.000 N 
ATOM      5  C   UNL     1       2.620   4.510  19.233  0.00  0.00    +0.000 A 
ATOM      6  N   UNL     1       3.786   3.921  19.364  0.00  0.00    +0.000 NA
ATOM      7  N   UNL     1       3.652   2.608  19.772  0.00  0.00    +0.000 NA
ATOM      8  C   UNL     1       2.387   2.266  19.896  0.00  0.00    +0.000 A 
ATOM      9  S   UNL     1       1.269   3.534  19.591  0.00  0.00    +0.000 S 
ATOM     10  H   UNL     1       4.744   5.240  18.271  0.00  0.00    +0.000 HD
ATOM     11  H   UNL     1       1.396   6.115  18.906  0.00  0.00    +0.000 HD
ENDROOT
BRANCH   3  12
ATOM     12  C   UNL     1       5.393   6.892  17.109  0.00  0.00    +0.000 C 
BRANCH  12  13
ATOM     13  C   UNL     1       5.907   6.040  16.011  0.00  0.00    +0.000 A 
ATOM     14  N   UNL     1       5.273   5.163  15.264  0.00  0.00    +0.000 NA
ATOM     15  C   UNL     1       6.293   4.634  14.516  0.00  0.00    +0.000 A 
ATOM     16  N   UNL     1       7.497   5.173  14.744  0.00  0.00    +0.000 NA
ATOM     17  O   UNL     1       7.242   6.117  15.743  0.00  0.00    +0.000 OA
BRANCH  15  18
ATOM     18  C   UNL     1       6.092   3.489  13.537  0.00  0.00    +0.000 C 
ATOM     19  C   UNL     1       5.222   3.743  12.318  0.00  0.00    +0.000 C 
ATOM     20  C   UNL     1       6.694   3.582  12.150  0.00  0.00    +0.000 C 
ENDBRANCH  15  18
ENDBRANCH  12  13
ENDBRANCH   3  12
TORSDOF 3
ENDMDL
MODEL 5
REMARK VINA RESULT:      -7.0      2.706      6.215
REMARK  Name = 
REMARK  3 active torsions:
REMARK  status: ('A' for Active; 'I' for Inactive)
REMARK    1  A    between atoms: N_3  and  C_4
REMARK    2  A    between atoms: C_4  and  C_5
REMARK    3  A    between atoms: C_7  and  C_8
REMARK                            x       y       z     vdW  Elec       q    Type
REMARK                         _______ _______ _______ _____ _____    ______ ____
ROOT
ATOM      1  O   UNL     1       7.649   6.482  17.303  0.00  0.00    +0.000 OA
ATOM      2  C   UNL     1       7.102   5.693  16.534  0.00  0.00    +0.000 C 
ATOM      3  N   UNL     1       6.235   4.749  16.967  0.00  0.00    +0.000 N 
ATOM      4  N   UNL     1       7.445   5.692  15.218  0.00  0.00    +0.000 N 
ATOM      5  C   UNL     1       6.878   4.906  14.260  0.00  0.00    +0.000 A 
ATOM      6  N   UNL     1       5.784   4.183  14.324  0.00  0.00    +0.000 NA
ATOM      7  N   UNL     1       5.557   3.497  13.147  0.00  0.00    +0.000 NA
ATOM      8  C   UNL     1       6.511   3.712  12.267  0.00  0.00    +0.000 A 
ATOM      9  S   UNL     1       7.721   4.818  12.780  0.00  0.00    +0.000 S 
ATOM     10  H   UNL     1       5.702   4.209  16.284  0.00  0.00    +0.000 HD
ATOM     11  H   UNL     1       8.219   6.282  14.962  0.00  0.00    +0.000 HD
ENDROOT
BRANCH   3  12
ATOM     12  C   UNL     1       5.943   4.538  18.366  0.00  0.00    +0.000 C 
BRANCH  12  13
ATOM     13  C   UNL     1       4.482   4.647  18.588  0.00  0.00    +0.000 A 
ATOM     14  N   UNL     1       3.759   4.259  19.616  0.00  0.00    +0.000 NA
ATOM     15  C   UNL     1       2.485   4.530  19.188  0.00  0.00    +0.000 A 
ATOM     16  N   UNL     1       2.406   5.096  17.978  0.00  0.00    +0.000 NA
ATOM     17  O   UNL     1       3.742   5.178  17.573  0.00  0.00    +0.000 OA
BRANCH  15  18
ATOM     18  C   UNL     1       1.248   4.174  19.997  0.00  0.00    +0.000 C 
ATOM     19  C   UNL     1       0.691   2.768  19.855  0.00  0.00    +0.000 C 
ATOM     20  C   UNL     1       1.362   3.168  21.124  0.00  0.00    +0.000 C 
ENDBRANCH  15  18
ENDBRANCH  12  13
ENDBRANCH   3  12
TORSDOF 3
ENDMDL
MODEL 6
REMARK VINA RESULT:      -7.0      2.744      6.273
REMARK  Name = 
REMARK  3 active torsions:
REMARK  status: ('A' for Active; 'I' for Inactive)
REMARK    1  A    between atoms: N_3  and  C_4
REMARK    2  A    between atoms: C_4  and  C_5
REMARK    3  A    between atoms: C_7  and  C_8
REMARK                            x       y       z     vdW  Elec       q    Type
REMARK                         _______ _______ _______ _____ _____    ______ ____
ROOT
ATOM      1  O   UNL     1       7.580   6.359  17.195  0.00  0.00    +0.000 OA
ATOM      2  C   UNL     1       7.060   5.577  16.401  0.00  0.00    +0.000 C 
ATOM      3  N   UNL     1       6.209   4.604  16.800  0.00  0.00    +0.000 N 
ATOM      4  N   UNL     1       7.420   5.614  15.091  0.00  0.00    +0.000 N 
ATOM      5  C   UNL     1       6.883   4.838  14.107  0.00  0.00    +0.000 A 
ATOM      6  N   UNL     1       5.805   4.091  14.139  0.00  0.00    +0.000 NA
ATOM      7  N   UNL     1       5.607   3.428  12.944  0.00  0.00    +0.000 NA
ATOM      8  C   UNL     1       6.568   3.684  12.082  0.00  0.00    +0.000 A 
ATOM      9  S   UNL     1       7.746   4.804  12.637  0.00  0.00    +0.000 S 
ATOM     10  H   UNL     1       5.696   4.069  16.098  0.00  0.00    +0.000 HD
ATOM     11  H   UNL     1       8.184   6.226  14.858  0.00  0.00    +0.000 HD
ENDROOT
BRANCH   3  12
ATOM     12  C   UNL     1       5.903   4.354  18.191  0.00  0.00    +0.000 C 
BRANCH  12  13
ATOM     13  C   UNL     1       4.528   3.813  18.305  0.00  0.00    +0.000 A 
ATOM     14  N   UNL     1       3.546   4.183  19.097  0.00  0.00    +0.000 NA
ATOM     15  C   UNL     1       2.583   3.250  18.813  0.00  0.00    +0.000 A 
ATOM     16  N   UNL     1       2.918   2.365  17.866  0.00  0.00    +0.000 NA
ATOM     17  O   UNL     1       4.220   2.740  17.521  0.00  0.00    +0.000 OA
BRANCH  15  18
ATOM     18  C   UNL     1       1.253   3.184  19.547  0.00  0.00    +0.000 C 
ATOM     19  C   UNL     1       1.276   2.829  21.024  0.00  0.00    +0.000 C 
ATOM     20  C   UNL     1       0.938   4.220  20.608  0.00  0.00    +0.000 C 
ENDBRANCH  15  18
ENDBRANCH  12  13
ENDBRANCH   3  12
TORSDOF 3
ENDMDL
MODEL 7
REMARK VINA RESULT:      -7.0      2.638      6.189
REMARK  Name = 
REMARK  3 active torsions:
REMARK  status: ('A' for Active; 'I' for Inactive)
REMARK    1  A    between atoms: N_3  and  C_4
REMARK    2  A    between atoms: C_4  and  C_5
REMARK    3  A    between atoms: C_7  and  C_8
REMARK                            x       y       z     vdW  Elec       q    Type
REMARK                         _______ _______ _______ _____ _____    ______ ____
ROOT
ATOM      1  O   UNL     1       7.852   6.870  17.556  0.00  0.00    +0.000 OA
ATOM      2  C   UNL     1       7.175   6.085  16.893  0.00  0.00    +0.000 C 
ATOM      3  N   UNL     1       6.191   5.338  17.445  0.00  0.00    +0.000 N 
ATOM      4  N   UNL     1       7.480   5.877  15.585  0.00  0.00    +0.000 N 
ATOM      5  C   UNL     1       6.780   5.075  14.734  0.00  0.00    +0.000 A 
ATOM      6  N   UNL     1       5.593   4.536  14.893  0.00  0.00    +0.000 NA
ATOM      7  N   UNL     1       5.237   3.756  13.811  0.00  0.00    +0.000 NA
ATOM      8  C   UNL     1       6.190   3.721  12.904  0.00  0.00    +0.000 A 
ATOM      9  S   UNL     1       7.561   4.688  13.269  0.00  0.00    +0.000 S 
ATOM     10  H   UNL     1       5.567   4.807  16.837  0.00  0.00    +0.000 HD
ATOM     11  H   UNL     1       8.325   6.310  15.252  0.00  0.00    +0.000 HD
ENDROOT
BRANCH   3  12
ATOM     12  C   UNL     1       5.908   5.341  18.862  0.00  0.00    +0.000 C 
BRANCH  12  13
ATOM     13  C   UNL     1       4.913   4.285  19.169  0.00  0.00    +0.000 A 
ATOM     14  N   UNL     1       3.601   4.350  19.185  0.00  0.00    +0.000 NA
ATOM     15  C   UNL     1       3.258   3.104  19.640  0.00  0.00    +0.000 A 
ATOM     16  N   UNL     1       4.291   2.281  19.860  0.00  0.00    +0.000 NA
ATOM     17  O   UNL     1       5.402   3.068  19.544  0.00  0.00    +0.000 OA
BRANCH  15  18
ATOM     18  C   UNL     1       1.822   2.694  19.925  0.00  0.00    +0.000 C 
ATOM     19  C   UNL     1       1.292   2.902  21.333  0.00  0.00    +0.000 C 
ATOM     20  C   UNL     1       0.789   3.761  20.224  0.00  0.00    +0.000 C 
ENDBRANCH  15  18
ENDBRANCH  12  13
ENDBRANCH   3  12
TORSDOF 3
ENDMDL
MODEL 8
REMARK VINA RESULT:      -7.0      1.610      1.790
REMARK  Name = 
REMARK  3 active torsions:
REMARK  status: ('A' for Active; 'I' for Inactive)
REMARK    1  A    between atoms: N_3  and  C_4
REMARK    2  A    between atoms: C_4  and  C_5
REMARK    3  A    between atoms: C_7  and  C_8
REMARK                            x       y       z     vdW  Elec       q    Type
REMARK                         _______ _______ _______ _____ _____    ______ ____
ROOT
ATOM      1  O   UNL     1       4.283   6.758  17.232  0.00  0.00    +0.000 OA
ATOM      2  C   UNL     1       4.213   5.769  17.962  0.00  0.00    +0.000 C 
ATOM      3  N   UNL     1       5.307   5.061  18.323  0.00  0.00    +0.000 N 
ATOM      4  N   UNL     1       2.994   5.302  18.341  0.00  0.00    +0.000 N 
ATOM      5  C   UNL     1       2.784   4.251  19.184  0.00  0.00    +0.000 A 
ATOM      6  N   UNL     1       3.640   3.631  19.961  0.00  0.00    +0.000 NA
ATOM      7  N   UNL     1       3.046   2.588  20.644  0.00  0.00    +0.000 NA
ATOM      8  C   UNL     1       1.778   2.454  20.319  0.00  0.00    +0.000 A 
ATOM      9  S   UNL     1       1.196   3.630  19.211  0.00  0.00    +0.000 S 
ATOM     10  H   UNL     1       5.220   4.337  19.037  0.00  0.00    +0.000 HD
ATOM     11  H   UNL     1       2.198   5.741  17.911  0.00  0.00    +0.000 HD
ENDROOT
BRANCH   3  12
ATOM     12  C   UNL     1       6.631   5.357  17.825  0.00  0.00    +0.000 C 
BRANCH  12  13
ATOM     13  C   UNL     1       6.695   5.048  16.377  0.00  0.00    +0.000 A 
ATOM     14  N   UNL     1       6.139   4.063  15.705  0.00  0.00    +0.000 NA
ATOM     15  C   UNL     1       6.648   4.253  14.447  0.00  0.00    +0.000 A 
ATOM     16  N   UNL     1       7.446   5.320  14.316  0.00  0.00    +0.000 NA
ATOM     17  O   UNL     1       7.478   5.857  15.607  0.00  0.00    +0.000 OA
BRANCH  15  18
ATOM     18  C   UNL     1       6.375   3.302  13.292  0.00  0.00    +0.000 C 
ATOM     19  C   UNL     1       5.259   3.663  12.326  0.00  0.00    +0.000 C 
ATOM     20  C   UNL     1       6.678   3.746  11.876  0.00  0.00    +0.000 C 
ENDBRANCH  15  18
ENDBRANCH  12  13
ENDBRANCH   3  12
TORSDOF 3
ENDMDL
MODEL 9
REMARK VINA RESULT:      -6.9      2.016      2.306
REMARK  Name = 
REMARK  3 active torsions:
REMARK  status: ('A' for Active; 'I' for Inactive)
REMARK    1  A    between atoms: N_3  and  C_4
REMARK    2  A    between atoms: C_4  and  C_5
REMARK    3  A    between atoms: C_7  and  C_8
REMARK                            x       y       z     vdW  Elec       q    Type
REMARK                         _______ _______ _______ _____ _____    ______ ____
ROOT
ATOM      1  O   UNL     1       5.023   3.382  19.300  0.00  0.00    +0.000 OA
ATOM      2  C   UNL     1       4.717   4.443  18.758  0.00  0.00    +0.000 C 
ATOM      3  N   UNL     1       5.429   4.958  17.729  0.00  0.00    +0.000 N 
ATOM      4  N   UNL     1       3.695   5.184  19.263  0.00  0.00    +0.000 N 
ATOM      5  C   UNL     1       3.228   6.347  18.725  0.00  0.00    +0.000 A 
ATOM      6  N   UNL     1       3.476   6.872  17.548  0.00  0.00    +0.000 NA
ATOM      7  N   UNL     1       2.836   8.085  17.385  0.00  0.00    +0.000 NA
ATOM      8  C   UNL     1       2.165   8.428  18.464  0.00  0.00    +0.000 A 
ATOM      9  S   UNL     1       2.206   7.269  19.731  0.00  0.00    +0.000 S 
ATOM     10  H   UNL     1       5.062   5.764  17.221  0.00  0.00    +0.000 HD
ATOM     11  H   UNL     1       3.304   4.864  20.132  0.00  0.00    +0.000 HD
ENDROOT
BRANCH   3  12
ATOM     12  C   UNL     1       6.644   4.349  17.236  0.00  0.00    +0.000 C 
BRANCH  12  13
ATOM     13  C   UNL     1       6.743   4.559  15.772  0.00  0.00    +0.000 A 
ATOM     14  N   UNL     1       6.078   3.983  14.795  0.00  0.00    +0.000 NA
ATOM     15  C   UNL     1       6.685   4.510  13.685  0.00  0.00    +0.000 A 
ATOM     16  N   UNL     1       7.651   5.400  13.941  0.00  0.00    +0.000 NA
ATOM     17  O   UNL     1       7.692   5.438  15.338  0.00  0.00    +0.000 OA
BRANCH  15  18
ATOM     18  C   UNL     1       6.332   4.084  12.269  0.00  0.00    +0.000 C 
ATOM     19  C   UNL     1       6.929   2.788  11.749  0.00  0.00    +0.000 C 
ATOM     20  C   UNL     1       5.472   2.855  12.055  0.00  0.00    +0.000 C 
ENDBRANCH  15  18
ENDBRANCH  12  13
ENDBRANCH   3  12
TORSDOF 3
ENDMDL
