MODEL 1
REMARK VINA RESULT:      -7.0      0.000      0.000
REMARK  Name = 
REMARK  7 active torsions:
REMARK  status: ('A' for Active; 'I' for Inactive)
REMARK    1  A    between atoms: C_1  and  C_2
REMARK    2  A    between atoms: C_2  and  O_3
REMARK    3  A    between atoms: O_3  and  C_4
REMARK    4  A    between atoms: N_10  and  C_11
REMARK    5  A    between atoms: C_11  and  C_12
REMARK    6  A    between atoms: C_12  and  C_13
REMARK    7  A    between atoms: N_16  and  C_17
REMARK                            x       y       z     vdW  Elec       q    Type
REMARK                         _______ _______ _______ _____ _____    ______ ____
ROOT
ATOM      1  C   UNL     1       1.628   3.739  18.795  0.00  0.00    +0.000 C 
ATOM      2  C   UNL     1       1.674   4.984  17.898  0.00  0.00    +0.000 C 
ATOM      3  C   UNL     1       2.586   6.065  18.488  0.00  0.00    +0.000 C 
ATOM      4  N   UNL     1       2.224   6.369  19.876  0.00  0.00    +0.000 N 
ATOM      5  C   UNL     1       1.944   7.679  20.227  0.00  0.00    +0.000 C 
ATOM      6  O   UNL     1       1.928   8.606  19.421  0.00  0.00    +0.000 OA
ATOM      7  N   UNL     1       1.660   7.873  21.556  0.00  0.00    +0.000 N 
ATOM      8  C   UNL     1       2.182   5.204  20.759  0.00  0.00    +0.000 C 
ATOM      9  C   UNL     1       1.216   4.159  20.209  0.00  0.00    +0.000 C 
ATOM     10  H   UNL     1       2.208   7.297  22.172  0.00  0.00    +0.000 HD
ENDROOT
BRANCH   1  11
ATOM     11  O   UNL     1       2.925   3.128  18.747  0.00  0.00    +0.000 OA
BRANCH  11  13
ATOM     12  C   UNL     1       3.978   0.993  18.573  0.00  0.00    +0.000 C 
ATOM     13  C   UNL     1       3.008   1.964  17.929  0.00  0.00    +0.000 C 
ENDBRANCH  11  13
ENDBRANCH   1  11
BRANCH   7  14
ATOM     14  C   UNL     1       1.375   9.209  22.066  0.00  0.00    +0.000 C 
BRANCH  14  15
ATOM     15  C   UNL     1      -0.118   9.513  21.982  0.00  0.00    +0.000 C 
BRANCH  15  16
ATOM     16  C   UNL     1      -0.493  10.354  20.811  0.00  0.00    +0.000 A 
ATOM     17  C   UNL     1       0.044  11.604  20.450  0.00  0.00    +0.000 A 
ATOM     18  C   UNL     1      -0.572  11.922  19.266  0.00  0.00    +0.000 A 
ATOM     19  N   UNL     1      -1.436  10.892  18.962  0.00  0.00    +0.000 N 
ATOM     20  N   UNL     1      -1.401   9.928  19.924  0.00  0.00    +0.000 NA
BRANCH  19  21
ATOM     21  C   UNL     1      -2.284  10.773  17.822  0.00  0.00    +0.000 A 
ATOM     22  C   UNL     1      -1.927   9.949  16.742  0.00  0.00    +0.000 A 
ATOM     23  C   UNL     1      -2.756   9.867  15.618  0.00  0.00    +0.000 A 
ATOM     24  C   UNL     1      -3.935  10.601  15.565  0.00  0.00    +0.000 A 
ATOM     25  C   UNL     1      -4.306  11.407  16.640  0.00  0.00    +0.000 A 
ATOM     26  C   UNL     1      -3.487  11.489  17.770  0.00  0.00    +0.000 A 
ENDBRANCH  19  21
ENDBRANCH  15  16
ENDBRANCH  14  15
ENDBRANCH   7  14
TORSDOF 6
ENDMDL
MODEL 2
REMARK VINA RESULT:      -7.0      3.732      6.799
REMARK  Name = 
REMARK  7 active torsions:
REMARK  status: ('A' for Active; 'I' for Inactive)
REMARK    1  A    between atoms: C_1  and  C_2
REMARK    2  A    between atoms: C_2  and  O_3
REMARK    3  A    between atoms: O_3  and  C_4
REMARK    4  A    between atoms: N_10  and  C_11
REMARK    5  A    between atoms: C_11  and  C_12
REMARK    6  A    between atoms: C_12  and  C_13
REMARK    7  A    between atoms: N_16  and  C_17
REMARK                            x       y       z     vdW  Elec       q    Type
REMARK                         _______ _______ _______ _____ _____    ______ ____
ROOT
ATOM      1  C   UNL     1       7.878   6.605  17.601  0.00  0.00    +0.000 C 
ATOM      2  C   UNL     1       7.051   6.301  16.344  0.00  0.00    +0.000 C 
ATOM      3  C   UNL     1       5.578   6.056  16.688  0.00  0.00    +0.000 C 
ATOM      4  N   UNL     1       5.436   5.037  17.731  0.00  0.00    +0.000 N 
ATOM      5  C   UNL     1       4.632   3.934  17.490  0.00  0.00    +0.000 C 
ATOM      6  O   UNL     1       4.068   3.731  16.418  0.00  0.00    +0.000 OA
ATOM      7  N   UNL     1       4.525   3.056  18.540  0.00  0.00    +0.000 N 
ATOM      8  C   UNL     1       6.203   5.303  18.948  0.00  0.00    +0.000 C 
ATOM      9  C   UNL     1       7.681   5.471  18.613  0.00  0.00    +0.000 C 
ATOM     10  H   UNL     1       4.497   3.507  19.439  0.00  0.00    +0.000 HD
ENDROOT
BRANCH   1  11
ATOM     11  O   UNL     1       7.448   7.880  18.099  0.00  0.00    +0.000 OA
BRANCH  11  13
ATOM     12  C   UNL     1       8.602   9.966  17.983  0.00  0.00    +0.000 C 
ATOM     13  C   UNL     1       8.467   8.652  18.727  0.00  0.00    +0.000 C 
ENDBRANCH  11  13
ENDBRANCH   1  11
BRANCH   7  14
ATOM     14  C   UNL     1       3.687   1.868  18.429  0.00  0.00    +0.000 C 
BRANCH  14  15
ATOM     15  C   UNL     1       2.360   2.073  19.154  0.00  0.00    +0.000 C 
BRANCH  15  16
ATOM     16  C   UNL     1       2.221   3.419  19.779  0.00  0.00    +0.000 A 
ATOM     17  C   UNL     1       2.264   3.731  21.150  0.00  0.00    +0.000 A 
ATOM     18  C   UNL     1       2.166   5.099  21.201  0.00  0.00    +0.000 A 
ATOM     19  N   UNL     1       2.066   5.553  19.903  0.00  0.00    +0.000 N 
ATOM     20  N   UNL     1       2.083   4.514  19.022  0.00  0.00    +0.000 NA
BRANCH  19  21
ATOM     21  C   UNL     1       1.954   6.903  19.457  0.00  0.00    +0.000 A 
ATOM     22  C   UNL     1       1.389   7.889  20.283  0.00  0.00    +0.000 A 
ATOM     23  C   UNL     1       1.258   9.202  19.818  0.00  0.00    +0.000 A 
ATOM     24  C   UNL     1       1.685   9.536  18.538  0.00  0.00    +0.000 A 
ATOM     25  C   UNL     1       2.262   8.567  17.719  0.00  0.00    +0.000 A 
ATOM     26  C   UNL     1       2.403   7.254  18.178  0.00  0.00    +0.000 A 
ENDBRANCH  19  21
ENDBRANCH  15  16
ENDBRANCH  14  15
ENDBRANCH   7  14
TORSDOF 6
ENDMDL
MODEL 3
REMARK VINA RESULT:      -6.9      2.180      2.671
REMARK  Name = 
REMARK  7 active torsions:
REMARK  status: ('A' for Active; 'I' for Inactive)
REMARK    1  A    between atoms: C_1  and  C_2
REMARK    2  A    between atoms: C_2  and  O_3
REMARK    3  A    between atoms: O_3  and  C_4
REMARK    4  A    between atoms: N_10  and  C_11
REMARK    5  A    between atoms: C_11  and  C_12
REMARK    6  A    between atoms: C_12  and  C_13
REMARK    7  A    between atoms: N_16  and  C_17
REMARK                            x       y       z     vdW  Elec       q    Type
REMARK                         _______ _______ _______ _____ _____    ______ ____
ROOT
ATOM      1  C   UNL     1       5.470   5.373  17.380  0.00  0.00    +0.000 C 
ATOM      2  C   UNL     1       5.043   4.394  18.483  0.00  0.00    +0.000 C 
ATOM      3  C   UNL     1       3.527   4.422  18.701  0.00  0.00    +0.000 C 
ATOM      4  N   UNL     1       3.045   5.788  18.926  0.00  0.00    +0.000 N 
ATOM      5  C   UNL     1       2.311   6.064  20.069  0.00  0.00    +0.000 C 
ATOM      6  O   UNL     1       2.084   5.231  20.943  0.00  0.00    +0.000 OA
ATOM      7  N   UNL     1       1.866   7.359  20.171  0.00  0.00    +0.000 N 
ATOM      8  C   UNL     1       3.426   6.744  17.886  0.00  0.00    +0.000 C 
ATOM      9  C   UNL     1       4.942   6.770  17.723  0.00  0.00    +0.000 C 
ATOM     10  H   UNL     1       1.589   7.759  19.292  0.00  0.00    +0.000 HD
ENDROOT
BRANCH   1  11
ATOM     11  O   UNL     1       4.956   4.870  16.139  0.00  0.00    +0.000 OA
BRANCH  11  13
ATOM     12  C   UNL     1       6.433   4.555  14.290  0.00  0.00    +0.000 C 
ATOM     13  C   UNL     1       5.785   3.904  15.497  0.00  0.00    +0.000 C 
ENDBRANCH  11  13
ENDBRANCH   1  11
BRANCH   7  14
ATOM     14  C   UNL     1       1.057   7.775  21.311  0.00  0.00    +0.000 C 
BRANCH  14  15
ATOM     15  C   UNL     1       1.197   9.275  21.553  0.00  0.00    +0.000 C 
BRANCH  15  16
ATOM     16  C   UNL     1       0.643  10.113  20.452  0.00  0.00    +0.000 A 
ATOM     17  C   UNL     1       1.288  11.163  19.771  0.00  0.00    +0.000 A 
ATOM     18  C   UNL     1       0.395  11.556  18.807  0.00  0.00    +0.000 A 
ATOM     19  N   UNL     1      -0.725  10.762  18.934  0.00  0.00    +0.000 N 
ATOM     20  N   UNL     1      -0.581   9.879  19.962  0.00  0.00    +0.000 NA
BRANCH  19  21
ATOM     21  C   UNL     1      -1.912  10.794  18.145  0.00  0.00    +0.000 A 
ATOM     22  C   UNL     1      -2.020  10.025  16.975  0.00  0.00    +0.000 A 
ATOM     23  C   UNL     1      -3.179  10.092  16.195  0.00  0.00    +0.000 A 
ATOM     24  C   UNL     1      -4.229  10.920  16.574  0.00  0.00    +0.000 A 
ATOM     25  C   UNL     1      -4.138  11.674  17.744  0.00  0.00    +0.000 A 
ATOM     26  C   UNL     1      -2.985  11.607  18.532  0.00  0.00    +0.000 A 
ENDBRANCH  19  21
ENDBRANCH  15  16
ENDBRANCH  14  15
ENDBRANCH   7  14
TORSDOF 6
ENDMDL
MODEL 4
REMARK VINA RESULT:      -6.9      7.451      9.228
REMARK  Name = 
REMARK  7 active torsions:
REMARK  status: ('A' for Active; 'I' for Inactive)
REMARK    1  A    between atoms: C_1  and  C_2
REMARK    2  A    between atoms: C_2  and  O_3
REMARK    3  A    between atoms: O_3  and  C_4
REMARK    4  A    between atoms: N_10  and  C_11
REMARK    5  A    between atoms: C_11  and  C_12
REMARK    6  A    between atoms: C_12  and  C_13
REMARK    7  A    between atoms: N_16  and  C_17
REMARK                            x       y       z     vdW  Elec       q    Type
REMARK                         _______ _______ _______ _____ _____    ______ ____
ROOT
ATOM      1  C   UNL     1       3.411   4.391  18.378  0.00  0.00    +0.000 C 
ATOM      2  C   UNL     1       4.031   4.463  16.976  0.00  0.00    +0.000 C 
ATOM      3  C   UNL     1       5.562   4.411  17.037  0.00  0.00    +0.000 C 
ATOM      4  N   UNL     1       6.094   5.422  17.955  0.00  0.00    +0.000 N 
ATOM      5  C   UNL     1       7.038   6.323  17.491  0.00  0.00    +0.000 C 
ATOM      6  O   UNL     1       7.421   6.359  16.324  0.00  0.00    +0.000 OA
ATOM      7  N   UNL     1       7.510   7.203  18.433  0.00  0.00    +0.000 N 
ATOM      8  C   UNL     1       5.530   5.372  19.304  0.00  0.00    +0.000 C 
ATOM      9  C   UNL     1       4.012   5.501  19.247  0.00  0.00    +0.000 C 
ATOM     10  H   UNL     1       7.617   6.795  19.346  0.00  0.00    +0.000 HD
ENDROOT
BRANCH   1  11
ATOM     11  O   UNL     1       3.668   3.076  18.892  0.00  0.00    +0.000 OA
BRANCH  11  13
ATOM     12  C   UNL     1       1.488   2.116  18.744  0.00  0.00    +0.000 C 
ATOM     13  C   UNL     1       2.613   2.524  19.675  0.00  0.00    +0.000 C 
ENDBRANCH  11  13
ENDBRANCH   1  11
BRANCH   7  14
ATOM     14  C   UNL     1       8.530   8.186  18.083  0.00  0.00    +0.000 C 
BRANCH  14  15
ATOM     15  C   UNL     1       7.912   9.571  17.924  0.00  0.00    +0.000 C 
BRANCH  15  16
ATOM     16  C   UNL     1       8.826  10.683  18.311  0.00  0.00    +0.000 A 
ATOM     17  C   UNL     1       9.908  10.624  19.209  0.00  0.00    +0.000 A 
ATOM     18  C   UNL     1      10.472  11.874  19.161  0.00  0.00    +0.000 A 
ATOM     19  N   UNL     1       9.734  12.625  18.269  0.00  0.00    +0.000 N 
ATOM     20  N   UNL     1       8.706  11.894  17.754  0.00  0.00    +0.000 NA
BRANCH  19  21
ATOM     21  C   UNL     1       9.947  13.980  17.884  0.00  0.00    +0.000 A 
ATOM     22  C   UNL     1       8.957  14.954  18.097  0.00  0.00    +0.000 A 
ATOM     23  C   UNL     1       9.170  16.273  17.685  0.00  0.00    +0.000 A 
ATOM     24  C   UNL     1      10.361  16.627  17.062  0.00  0.00    +0.000 A 
ATOM     25  C   UNL     1      11.356  15.672  16.862  0.00  0.00    +0.000 A 
ATOM     26  C   UNL     1      11.154  14.352  17.278  0.00  0.00    +0.000 A 
ENDBRANCH  19  21
ENDBRANCH  15  16
ENDBRANCH  14  15
ENDBRANCH   7  14
TORSDOF 6
ENDMDL
MODEL 5
REMARK VINA RESULT:      -6.9      7.461      9.331
REMARK  Name = 
REMARK  7 active torsions:
REMARK  status: ('A' for Active; 'I' for Inactive)
REMARK    1  A    between atoms: C_1  and  C_2
REMARK    2  A    between atoms: C_2  and  O_3
REMARK    3  A    between atoms: O_3  and  C_4
REMARK    4  A    between atoms: N_10  and  C_11
REMARK    5  A    between atoms: C_11  and  C_12
REMARK    6  A    between atoms: C_12  and  C_13
REMARK    7  A    between atoms: N_16  and  C_17
REMARK                            x       y       z     vdW  Elec       q    Type
REMARK                         _______ _______ _______ _____ _____    ______ ____
ROOT
ATOM      1  C   UNL     1       3.396   4.241  18.287  0.00  0.00    +0.000 C 
ATOM      2  C   UNL     1       4.033   4.240  16.890  0.00  0.00    +0.000 C 
ATOM      3  C   UNL     1       5.563   4.217  16.973  0.00  0.00    +0.000 C 
ATOM      4  N   UNL     1       6.067   5.290  17.835  0.00  0.00    +0.000 N 
ATOM      5  C   UNL     1       7.003   6.178  17.329  0.00  0.00    +0.000 C 
ATOM      6  O   UNL     1       7.400   6.151  16.167  0.00  0.00    +0.000 OA
ATOM      7  N   UNL     1       7.448   7.120  18.222  0.00  0.00    +0.000 N 
ATOM      8  C   UNL     1       5.486   5.312  19.178  0.00  0.00    +0.000 C 
ATOM      9  C   UNL     1       3.967   5.411  19.094  0.00  0.00    +0.000 C 
ATOM     10  H   UNL     1       7.549   6.769  19.159  0.00  0.00    +0.000 HD
ENDROOT
BRANCH   1  11
ATOM     11  O   UNL     1       3.667   2.964  18.882  0.00  0.00    +0.000 OA
BRANCH  11  13
ATOM     12  C   UNL     1       1.408   2.197  18.947  0.00  0.00    +0.000 C 
ATOM     13  C   UNL     1       2.653   2.487  19.762  0.00  0.00    +0.000 C 
ENDBRANCH  11  13
ENDBRANCH   1  11
BRANCH   7  14
ATOM     14  C   UNL     1       8.456   8.098  17.827  0.00  0.00    +0.000 C 
BRANCH  14  15
ATOM     15  C   UNL     1       7.865   9.504  17.806  0.00  0.00    +0.000 C 
BRANCH  15  16
ATOM     16  C   UNL     1       8.756  10.537  18.405  0.00  0.00    +0.000 A 
ATOM     17  C   UNL     1       9.597  10.392  19.524  0.00  0.00    +0.000 A 
ATOM     18  C   UNL     1      10.258  11.591  19.623  0.00  0.00    +0.000 A 
ATOM     19  N   UNL     1       9.806  12.396  18.599  0.00  0.00    +0.000 N 
ATOM     20  N   UNL     1       8.865  11.752  17.854  0.00  0.00    +0.000 NA
BRANCH  19  21
ATOM     21  C   UNL     1      10.213  13.728  18.292  0.00  0.00    +0.000 A 
ATOM     22  C   UNL     1      11.009  13.996  17.166  0.00  0.00    +0.000 A 
ATOM     23  C   UNL     1      11.425  15.304  16.896  0.00  0.00    +0.000 A 
ATOM     24  C   UNL     1      11.053  16.343  17.740  0.00  0.00    +0.000 A 
ATOM     25  C   UNL     1      10.248  16.089  18.850  0.00  0.00    +0.000 A 
ATOM     26  C   UNL     1       9.822  14.785  19.123  0.00  0.00    +0.000 A 
ENDBRANCH  19  21
ENDBRANCH  15  16
ENDBRANCH  14  15
ENDBRANCH   7  14
TORSDOF 6
ENDMDL
MODEL 6
REMARK VINA RESULT:      -6.9      2.536      7.755
REMARK  Name = 
REMARK  7 active torsions:
REMARK  status: ('A' for Active; 'I' for Inactive)
REMARK    1  A    between atoms: C_1  and  C_2
REMARK    2  A    between atoms: C_2  and  O_3
REMARK    3  A    between atoms: O_3  and  C_4
REMARK    4  A    between atoms: N_10  and  C_11
REMARK    5  A    between atoms: C_11  and  C_12
REMARK    6  A    between atoms: C_12  and  C_13
REMARK    7  A    between atoms: N_16  and  C_17
REMARK                            x       y       z     vdW  Elec       q    Type
REMARK                         _______ _______ _______ _____ _____    ______ ____
ROOT
ATOM      1  C   UNL     1      -3.699  10.650  16.745  0.00  0.00    +0.000 C 
ATOM      2  C   UNL     1      -3.446  11.748  17.789  0.00  0.00    +0.000 C 
ATOM      3  C   UNL     1      -1.948  12.019  17.962  0.00  0.00    +0.000 C 
ATOM      4  N   UNL     1      -1.209  10.783  18.236  0.00  0.00    +0.000 N 
ATOM      5  C   UNL     1      -0.413  10.711  19.368  0.00  0.00    +0.000 C 
ATOM      6  O   UNL     1      -0.332  11.615  20.195  0.00  0.00    +0.000 OA
ATOM      7  N   UNL     1       0.273   9.532  19.517  0.00  0.00    +0.000 N 
ATOM      8  C   UNL     1      -1.421   9.721  17.253  0.00  0.00    +0.000 C 
ATOM      9  C   UNL     1      -2.907   9.399  17.137  0.00  0.00    +0.000 C 
ATOM     10  H   UNL     1       0.605   9.147  18.649  0.00  0.00    +0.000 HD
ENDROOT
BRANCH   1  11
ATOM     11  O   UNL     1      -3.317  11.178  15.467  0.00  0.00    +0.000 OA
BRANCH  11  13
ATOM     12  C   UNL     1      -4.253   9.959  13.641  0.00  0.00    +0.000 C 
ATOM     13  C   UNL     1      -3.013  10.194  14.481  0.00  0.00    +0.000 C 
ENDBRANCH  11  13
ENDBRANCH   1  11
BRANCH   7  14
ATOM     14  C   UNL     1       1.170   9.335  20.651  0.00  0.00    +0.000 C 
BRANCH  14  15
ATOM     15  C   UNL     1       0.956   7.961  21.277  0.00  0.00    +0.000 C 
BRANCH  15  16
ATOM     16  C   UNL     1       1.674   6.862  20.570  0.00  0.00    +0.000 A 
ATOM     17  C   UNL     1       1.598   5.483  20.839  0.00  0.00    +0.000 A 
ATOM     18  C   UNL     1       2.375   4.895  19.872  0.00  0.00    +0.000 A 
ATOM     19  N   UNL     1       2.881   5.904  19.080  0.00  0.00    +0.000 N 
ATOM     20  N   UNL     1       2.462   7.123  19.520  0.00  0.00    +0.000 NA
BRANCH  19  21
ATOM     21  C   UNL     1       3.732   5.777  17.944  0.00  0.00    +0.000 A 
ATOM     22  C   UNL     1       4.242   6.914  17.296  0.00  0.00    +0.000 A 
ATOM     23  C   UNL     1       5.051   6.773  16.163  0.00  0.00    +0.000 A 
ATOM     24  C   UNL     1       5.352   5.508  15.673  0.00  0.00    +0.000 A 
ATOM     25  C   UNL     1       4.864   4.373  16.320  0.00  0.00    +0.000 A 
ATOM     26  C   UNL     1       4.061   4.506  17.457  0.00  0.00    +0.000 A 
ENDBRANCH  19  21
ENDBRANCH  15  16
ENDBRANCH  14  15
ENDBRANCH   7  14
TORSDOF 6
ENDMDL
MODEL 7
REMARK VINA RESULT:      -6.9      8.492     11.468
REMARK  Name = 
REMARK  7 active torsions:
REMARK  status: ('A' for Active; 'I' for Inactive)
REMARK    1  A    between atoms: C_1  and  C_2
REMARK    2  A    between atoms: C_2  and  O_3
REMARK    3  A    between atoms: O_3  and  C_4
REMARK    4  A    between atoms: N_10  and  C_11
REMARK    5  A    between atoms: C_11  and  C_12
REMARK    6  A    between atoms: C_12  and  C_13
REMARK    7  A    between atoms: N_16  and  C_17
REMARK                            x       y       z     vdW  Elec       q    Type
REMARK                         _______ _______ _______ _____ _____    ______ ____
ROOT
ATOM      1  C   UNL     1      11.651  13.535  19.415  0.00  0.00    +0.000 C 
ATOM      2  C   UNL     1      10.560  13.939  18.413  0.00  0.00    +0.000 C 
ATOM      3  C   UNL     1       9.219  13.278  18.749  0.00  0.00    +0.000 C 
ATOM      4  N   UNL     1       9.360  11.826  18.892  0.00  0.00    +0.000 N 
ATOM      5  C   UNL     1       8.559  10.993  18.129  0.00  0.00    +0.000 C 
ATOM      6  O   UNL     1       7.763  11.405  17.288  0.00  0.00    +0.000 OA
ATOM      7  N   UNL     1       8.731   9.651  18.363  0.00  0.00    +0.000 N 
ATOM      8  C   UNL     1      10.386  11.408  19.849  0.00  0.00    +0.000 C 
ATOM      9  C   UNL     1      11.736  12.006  19.469  0.00  0.00    +0.000 C 
ATOM     10  H   UNL     1       8.902   9.431  19.329  0.00  0.00    +0.000 HD
ENDROOT
BRANCH   1  11
ATOM     11  O   UNL     1      11.310  14.122  20.679  0.00  0.00    +0.000 OA
BRANCH  11  13
ATOM     12  C   UNL     1      10.261  15.988  21.734  0.00  0.00    +0.000 C 
ATOM     13  C   UNL     1      11.260  15.546  20.683  0.00  0.00    +0.000 C 
ENDBRANCH  11  13
ENDBRANCH   1  11
BRANCH   7  14
ATOM     14  C   UNL     1       7.929   8.665  17.647  0.00  0.00    +0.000 C 
BRANCH  14  15
ATOM     15  C   UNL     1       7.908   7.338  18.399  0.00  0.00    +0.000 C 
BRANCH  15  16
ATOM     16  C   UNL     1       7.381   6.201  17.592  0.00  0.00    +0.000 A 
ATOM     17  C   UNL     1       6.614   5.114  18.050  0.00  0.00    +0.000 A 
ATOM     18  C   UNL     1       6.318   4.393  16.920  0.00  0.00    +0.000 A 
ATOM     19  N   UNL     1       6.900   5.044  15.853  0.00  0.00    +0.000 N 
ATOM     20  N   UNL     1       7.572   6.154  16.268  0.00  0.00    +0.000 NA
BRANCH  19  21
ATOM     21  C   UNL     1       6.856   4.674  14.477  0.00  0.00    +0.000 A 
ATOM     22  C   UNL     1       7.745   5.244  13.550  0.00  0.00    +0.000 A 
ATOM     23  C   UNL     1       7.669   4.894  12.198  0.00  0.00    +0.000 A 
ATOM     24  C   UNL     1       6.713   3.982  11.765  0.00  0.00    +0.000 A 
ATOM     25  C   UNL     1       5.838   3.399  12.681  0.00  0.00    +0.000 A 
ATOM     26  C   UNL     1       5.912   3.739  14.035  0.00  0.00    +0.000 A 
ENDBRANCH  19  21
ENDBRANCH  15  16
ENDBRANCH  14  15
ENDBRANCH   7  14
TORSDOF 6
ENDMDL
MODEL 8
REMARK VINA RESULT:      -6.8      4.143      8.815
REMARK  Name = 
REMARK  7 active torsions:
REMARK  status: ('A' for Active; 'I' for Inactive)
REMARK    1  A    between atoms: C_1  and  C_2
REMARK    2  A    between atoms: C_2  and  O_3
REMARK    3  A    between atoms: O_3  and  C_4
REMARK    4  A    between atoms: N_10  and  C_11
REMARK    5  A    between atoms: C_11  and  C_12
REMARK    6  A    between atoms: C_12  and  C_13
REMARK    7  A    between atoms: N_16  and  C_17
REMARK                            x       y       z     vdW  Elec       q    Type
REMARK                         _______ _______ _______ _____ _____    ______ ____
ROOT
ATOM      1  C   UNL     1       0.875   9.946  18.413  0.00  0.00    +0.000 C 
ATOM      2  C   UNL     1       0.443   9.280  19.727  0.00  0.00    +0.000 C 
ATOM      3  C   UNL     1       1.608   8.537  20.389  0.00  0.00    +0.000 C 
ATOM      4  N   UNL     1       2.246   7.605  19.454  0.00  0.00    +0.000 N 
ATOM      5  C   UNL     1       2.368   6.272  19.811  0.00  0.00    +0.000 C 
ATOM      6  O   UNL     1       1.918   5.808  20.856  0.00  0.00    +0.000 OA
ATOM      7  N   UNL     1       3.017   5.485  18.892  0.00  0.00    +0.000 N 
ATOM      8  C   UNL     1       2.680   8.211  18.196  0.00  0.00    +0.000 C 
ATOM      9  C   UNL     1       1.502   8.886  17.501  0.00  0.00    +0.000 C 
ATOM     10  H   UNL     1       3.781   5.951  18.434  0.00  0.00    +0.000 HD
ENDROOT
BRANCH   1  11
ATOM     11  O   UNL     1       1.784  11.004  18.748  0.00  0.00    +0.000 OA
BRANCH  11  13
ATOM     12  C   UNL     1       2.016  13.301  19.354  0.00  0.00    +0.000 C 
ATOM     13  C   UNL     1       1.236  12.022  19.582  0.00  0.00    +0.000 C 
ENDBRANCH  11  13
ENDBRANCH   1  11
BRANCH   7  14
ATOM     14  C   UNL     1       3.239   4.068  19.156  0.00  0.00    +0.000 C 
BRANCH  14  15
ATOM     15  C   UNL     1       4.727   3.734  19.099  0.00  0.00    +0.000 C 
BRANCH  15  16
ATOM     16  C   UNL     1       5.454   4.429  18.000  0.00  0.00    +0.000 A 
ATOM     17  C   UNL     1       6.267   5.573  18.104  0.00  0.00    +0.000 A 
ATOM     18  C   UNL     1       6.763   5.768  16.840  0.00  0.00    +0.000 A 
ATOM     19  N   UNL     1       6.248   4.771  16.038  0.00  0.00    +0.000 N 
ATOM     20  N   UNL     1       5.425   3.951  16.750  0.00  0.00    +0.000 NA
BRANCH  19  21
ATOM     21  C   UNL     1       6.489   4.557  14.649  0.00  0.00    +0.000 A 
ATOM     22  C   UNL     1       5.715   3.641  13.917  0.00  0.00    +0.000 A 
ATOM     23  C   UNL     1       5.984   3.420  12.563  0.00  0.00    +0.000 A 
ATOM     24  C   UNL     1       7.019   4.104  11.935  0.00  0.00    +0.000 A 
ATOM     25  C   UNL     1       7.781   5.027  12.650  0.00  0.00    +0.000 A 
ATOM     26  C   UNL     1       7.513   5.259  14.002  0.00  0.00    +0.000 A 
ENDBRANCH  19  21
ENDBRANCH  15  16
ENDBRANCH  14  15
ENDBRANCH   7  14
TORSDOF 6
ENDMDL
MODEL 9
REMARK VINA RESULT:      -6.8      3.024      8.621
REMARK  Name = 
REMARK  7 active torsions:
REMARK  status: ('A' for Active; 'I' for Inactive)
REMARK    1  A    between atoms: C_1  and  C_2
REMARK    2  A    between atoms: C_2  and  O_3
REMARK    3  A    between atoms: O_3  and  C_4
REMARK    4  A    between atoms: N_10  and  C_11
REMARK    5  A    between atoms: C_11  and  C_12
REMARK    6  A    between atoms: C_12  and  C_13
REMARK    7  A    between atoms: N_16  and  C_17
REMARK                            x       y       z     vdW  Elec       q    Type
REMARK                         _______ _______ _______ _____ _____    ______ ____
ROOT
ATOM      1  C   UNL     1      -0.179  11.415  21.879  0.00  0.00    +0.000 C 
ATOM      2  C   UNL     1       0.820  11.320  20.717  0.00  0.00    +0.000 C 
ATOM      3  C   UNL     1       0.592  10.052  19.886  0.00  0.00    +0.000 C 
ATOM      4  N   UNL     1       0.577   8.855  20.732  0.00  0.00    +0.000 N 
ATOM      5  C   UNL     1       1.440   7.812  20.438  0.00  0.00    +0.000 C 
ATOM      6  O   UNL     1       2.267   7.854  19.531  0.00  0.00    +0.000 OA
ATOM      7  N   UNL     1       1.323   6.717  21.258  0.00  0.00    +0.000 N 
ATOM      8  C   UNL     1      -0.373   8.910  21.843  0.00  0.00    +0.000 C 
ATOM      9  C   UNL     1      -0.097  10.132  22.713  0.00  0.00    +0.000 C 
ATOM     10  H   UNL     1       0.375   6.518  21.530  0.00  0.00    +0.000 HD
ENDROOT
BRANCH   1  11
ATOM     11  O   UNL     1      -1.478  11.631  21.311  0.00  0.00    +0.000 OA
BRANCH  11  13
ATOM     12  C   UNL     1      -2.094  13.804  22.083  0.00  0.00    +0.000 C 
ATOM     13  C   UNL     1      -2.394  12.320  22.158  0.00  0.00    +0.000 C 
ENDBRANCH  11  13
ENDBRANCH   1  11
BRANCH   7  14
ATOM     14  C   UNL     1       2.153   5.537  21.040  0.00  0.00    +0.000 C 
BRANCH  14  15
ATOM     15  C   UNL     1       1.399   4.489  20.227  0.00  0.00    +0.000 C 
BRANCH  15  16
ATOM     16  C   UNL     1       2.145   4.011  19.029  0.00  0.00    +0.000 A 
ATOM     17  C   UNL     1       1.707   3.084  18.065  0.00  0.00    +0.000 A 
ATOM     18  C   UNL     1       2.715   3.041  17.135  0.00  0.00    +0.000 A 
ATOM     19  N   UNL     1       3.700   3.911  17.555  0.00  0.00    +0.000 N 
ATOM     20  N   UNL     1       3.356   4.499  18.735  0.00  0.00    +0.000 NA
BRANCH  19  21
ATOM     21  C   UNL     1       4.934   4.210  16.908  0.00  0.00    +0.000 A 
ATOM     22  C   UNL     1       5.056   4.117  15.512  0.00  0.00    +0.000 A 
ATOM     23  C   UNL     1       6.282   4.384  14.895  0.00  0.00    +0.000 A 
ATOM     24  C   UNL     1       7.386   4.741  15.661  0.00  0.00    +0.000 A 
ATOM     25  C   UNL     1       7.270   4.852  17.045  0.00  0.00    +0.000 A 
ATOM     26  C   UNL     1       6.045   4.594  17.669  0.00  0.00    +0.000 A 
ENDBRANCH  19  21
ENDBRANCH  15  16
ENDBRANCH  14  15
ENDBRANCH   7  14
TORSDOF 6
ENDMDL
