MODEL 1
REMARK VINA RESULT:      -7.7      0.000      0.000
REMARK  Name = 
REMARK  10 active torsions:
REMARK  status: ('A' for Active; 'I' for Inactive)
REMARK    1  A    between atoms: C_1  and  C_2
REMARK    2  A    between atoms: C_2  and  O_3
REMARK    3  A    between atoms: O_3  and  C_4
REMARK    4  A    between atoms: C_6  and  C_7
REMARK    5  A    between atoms: C_7  and  N_8
REMARK    6  A    between atoms: N_8  and  N_9
REMARK    7  A    between atoms: C_13  and  S_14
REMARK    8  A    between atoms: C_18  and  O_19
REMARK    9  A    between atoms: O_19  and  C_20
REMARK   10  A    between atoms: C_20  and  C_21
REMARK                            x       y       z     vdW  Elec       q    Type
REMARK                         _______ _______ _______ _____ _____    ______ ____
ROOT
ATOM      1  C   UNL     1       1.945   4.943  19.749  0.00  0.00    +0.000 A 
ATOM      2  C   UNL     1       2.655   4.091  18.892  0.00  0.00    +0.000 A 
ATOM      3  C   UNL     1       3.364   4.594  17.795  0.00  0.00    +0.000 A 
ATOM      4  C   UNL     1       3.344   5.968  17.563  0.00  0.00    +0.000 A 
ATOM      5  C   UNL     1       2.659   6.842  18.425  0.00  0.00    +0.000 A 
ATOM      6 CL   UNL     1       2.676   8.499  17.921  0.00  0.00    +0.000 Cl
ATOM      7  C   UNL     1       1.982   6.345  19.556  0.00  0.00    +0.000 A 
ENDROOT
BRANCH   1   8
ATOM      8  O   UNL     1       1.259   4.469  20.843  0.00  0.00    +0.000 OA
BRANCH   8  10
ATOM      9  C   UNL     1       2.074   2.447  21.930  0.00  0.00    +0.000 C 
ATOM     10  C   UNL     1       1.082   3.051  20.951  0.00  0.00    +0.000 C 
ENDBRANCH   8  10
ENDBRANCH   1   8
BRANCH   3  11
ATOM     11  C   UNL     1       4.088   3.655  16.861  0.00  0.00    +0.000 C 
BRANCH  11  12
ATOM     12  N   UNL     1       5.499   3.569  17.218  0.00  0.00    +0.000 N 
ATOM     13  H   UNL     1       5.816   2.607  17.088  0.00  0.00    +0.000 HD
BRANCH  12  14
ATOM     14  N   UNL     1       6.349   4.474  16.471  0.00  0.00    +0.000 N 
ATOM     15  C   UNL     1       6.559   4.527  15.121  0.00  0.00    +0.000 A 
ATOM     16  N   UNL     1       7.356   5.532  14.823  0.00  0.00    +0.000 NA
ATOM     17  N   UNL     1       7.667   6.176  15.999  0.00  0.00    +0.000 NA
ATOM     18  C   UNL     1       7.053   5.541  16.973  0.00  0.00    +0.000 A 
BRANCH  18  19
ATOM     19  S   UNL     1       7.092   5.978  18.639  0.00  0.00    +0.000 S 
ATOM     20  H   UNL     1       6.602   4.820  19.110  0.00  0.00    +0.000 HD
ENDBRANCH  18  19
ENDBRANCH  12  14
ENDBRANCH  11  12
ENDBRANCH   3  11
BRANCH   7  21
ATOM     21  O   UNL     1       1.285   7.072  20.495  0.00  0.00    +0.000 OA
BRANCH  21  22
ATOM     22  C   UNL     1       1.812   8.339  20.895  0.00  0.00    +0.000 C 
BRANCH  22  23
ATOM     23  C   UNL     1       0.741   9.266  21.421  0.00  0.00    +0.000 A 
ATOM     24  C   UNL     1       0.296   9.223  22.746  0.00  0.00    +0.000 A 
ATOM     25  C   UNL     1      -0.620  10.169  23.216  0.00  0.00    +0.000 A 
ATOM     26  C   UNL     1      -1.097  11.171  22.369  0.00  0.00    +0.000 A 
ATOM     27  C   UNL     1      -0.658  11.226  21.047  0.00  0.00    +0.000 A 
ATOM     28  C   UNL     1       0.257  10.283  20.590  0.00  0.00    +0.000 A 
ATOM     29  F   UNL     1       0.690  10.375  19.323  0.00  0.00    +0.000 F 
ENDBRANCH  22  23
ENDBRANCH  21  22
ENDBRANCH   7  21
TORSDOF 9
ENDMDL
MODEL 2
REMARK VINA RESULT:      -7.7      1.495      1.907
REMARK  Name = 
REMARK  10 active torsions:
REMARK  status: ('A' for Active; 'I' for Inactive)
REMARK    1  A    between atoms: C_1  and  C_2
REMARK    2  A    between atoms: C_2  and  O_3
REMARK    3  A    between atoms: O_3  and  C_4
REMARK    4  A    between atoms: C_6  and  C_7
REMARK    5  A    between atoms: C_7  and  N_8
REMARK    6  A    between atoms: N_8  and  N_9
REMARK    7  A    between atoms: C_13  and  S_14
REMARK    8  A    between atoms: C_18  and  O_19
REMARK    9  A    between atoms: O_19  and  C_20
REMARK   10  A    between atoms: C_20  and  C_21
REMARK                            x       y       z     vdW  Elec       q    Type
REMARK                         _______ _______ _______ _____ _____    ______ ____
ROOT
ATOM      1  C   UNL     1       2.414   5.455  20.100  0.00  0.00    +0.000 A 
ATOM      2  C   UNL     1       2.910   4.575  19.127  0.00  0.00    +0.000 A 
ATOM      3  C   UNL     1       3.260   5.031  17.852  0.00  0.00    +0.000 A 
ATOM      4  C   UNL     1       3.096   6.384  17.559  0.00  0.00    +0.000 A 
ATOM      5  C   UNL     1       2.624   7.286  18.528  0.00  0.00    +0.000 A 
ATOM      6 CL   UNL     1       2.406   8.904  17.950  0.00  0.00    +0.000 Cl
ATOM      7  C   UNL     1       2.315   6.841  19.829  0.00  0.00    +0.000 A 
ENDROOT
BRANCH   1   8
ATOM      8  O   UNL     1       2.084   5.030  21.367  0.00  0.00    +0.000 OA
BRANCH   8  10
ATOM      9  C   UNL     1       1.224   2.752  21.467  0.00  0.00    +0.000 C 
ATOM     10  C   UNL     1       2.404   3.677  21.715  0.00  0.00    +0.000 C 
ENDBRANCH   8  10
ENDBRANCH   1   8
BRANCH   3  11
ATOM     11  C   UNL     1       3.753   4.061  16.806  0.00  0.00    +0.000 C 
BRANCH  11  12
ATOM     12  N   UNL     1       5.133   3.677  17.077  0.00  0.00    +0.000 N 
ATOM     13  H   UNL     1       5.328   2.789  16.613  0.00  0.00    +0.000 HD
BRANCH  12  14
ATOM     14  N   UNL     1       6.108   4.669  16.673  0.00  0.00    +0.000 N 
ATOM     15  C   UNL     1       6.789   5.562  17.454  0.00  0.00    +0.000 A 
ATOM     16  N   UNL     1       7.634   6.257  16.720  0.00  0.00    +0.000 NA
ATOM     17  N   UNL     1       7.529   5.801  15.425  0.00  0.00    +0.000 NA
ATOM     18  C   UNL     1       6.623   4.849  15.413  0.00  0.00    +0.000 A 
BRANCH  18  19
ATOM     19  S   UNL     1       6.150   3.930  14.034  0.00  0.00    +0.000 S 
ATOM     20  H   UNL     1       7.361   3.894  13.456  0.00  0.00    +0.000 HD
ENDBRANCH  18  19
ENDBRANCH  12  14
ENDBRANCH  11  12
ENDBRANCH   3  11
BRANCH   7  21
ATOM     21  O   UNL     1       1.861   7.601  20.883  0.00  0.00    +0.000 OA
BRANCH  21  22
ATOM     22  C   UNL     1       0.449   7.738  21.056  0.00  0.00    +0.000 C 
BRANCH  22  23
ATOM     23  C   UNL     1       0.020   9.184  21.149  0.00  0.00    +0.000 A 
ATOM     24  C   UNL     1      -0.285   9.951  20.020  0.00  0.00    +0.000 A 
ATOM     25  C   UNL     1      -0.779  11.252  20.160  0.00  0.00    +0.000 A 
ATOM     26  C   UNL     1      -0.977  11.799  21.429  0.00  0.00    +0.000 A 
ATOM     27  C   UNL     1      -0.679  11.043  22.562  0.00  0.00    +0.000 A 
ATOM     28  C   UNL     1      -0.193   9.749  22.413  0.00  0.00    +0.000 A 
ATOM     29  F   UNL     1       0.056   9.028  23.517  0.00  0.00    +0.000 F 
ENDBRANCH  22  23
ENDBRANCH  21  22
ENDBRANCH   7  21
TORSDOF 9
ENDMDL
MODEL 3
REMARK VINA RESULT:      -7.6      1.926      2.516
REMARK  Name = 
REMARK  10 active torsions:
REMARK  status: ('A' for Active; 'I' for Inactive)
REMARK    1  A    between atoms: C_1  and  C_2
REMARK    2  A    between atoms: C_2  and  O_3
REMARK    3  A    between atoms: O_3  and  C_4
REMARK    4  A    between atoms: C_6  and  C_7
REMARK    5  A    between atoms: C_7  and  N_8
REMARK    6  A    between atoms: N_8  and  N_9
REMARK    7  A    between atoms: C_13  and  S_14
REMARK    8  A    between atoms: C_18  and  O_19
REMARK    9  A    between atoms: O_19  and  C_20
REMARK   10  A    between atoms: C_20  and  C_21
REMARK                            x       y       z     vdW  Elec       q    Type
REMARK                         _______ _______ _______ _____ _____    ______ ____
ROOT
ATOM      1  C   UNL     1       2.171   6.599  19.810  0.00  0.00    +0.000 A 
ATOM      2  C   UNL     1       3.103   6.106  18.885  0.00  0.00    +0.000 A 
ATOM      3  C   UNL     1       3.536   6.888  17.809  0.00  0.00    +0.000 A 
ATOM      4  C   UNL     1       3.015   8.173  17.666  0.00  0.00    +0.000 A 
ATOM      5  C   UNL     1       2.100   8.694  18.597  0.00  0.00    +0.000 A 
ATOM      6 CL   UNL     1       1.501  10.270  18.202  0.00  0.00    +0.000 Cl
ATOM      7  C   UNL     1       1.696   7.928  19.708  0.00  0.00    +0.000 A 
ENDROOT
BRANCH   1   8
ATOM      8  O   UNL     1       1.749   5.852  20.886  0.00  0.00    +0.000 OA
BRANCH   8  10
ATOM      9  C   UNL     1       2.109   3.550  21.599  0.00  0.00    +0.000 C 
ATOM     10  C   UNL     1       1.389   4.486  20.643  0.00  0.00    +0.000 C 
ENDBRANCH   8  10
ENDBRANCH   1   8
BRANCH   3  11
ATOM     11  C   UNL     1       4.507   6.324  16.800  0.00  0.00    +0.000 C 
BRANCH  11  12
ATOM     12  N   UNL     1       5.836   6.890  17.001  0.00  0.00    +0.000 N 
ATOM     13  H   UNL     1       5.764   7.691  17.630  0.00  0.00    +0.000 HD
BRANCH  12  14
ATOM     14  N   UNL     1       6.804   5.944  17.518  0.00  0.00    +0.000 N 
ATOM     15  C   UNL     1       7.328   5.863  18.779  0.00  0.00    +0.000 A 
ATOM     16  N   UNL     1       8.133   4.825  18.872  0.00  0.00    +0.000 NA
ATOM     17  N   UNL     1       8.130   4.188  17.651  0.00  0.00    +0.000 NA
ATOM     18  C   UNL     1       7.326   4.860  16.857  0.00  0.00    +0.000 A 
BRANCH  18  19
ATOM     19  S   UNL     1       6.950   4.446  15.227  0.00  0.00    +0.000 S 
ATOM     20  H   UNL     1       6.545   5.670  14.851  0.00  0.00    +0.000 HD
ENDBRANCH  18  19
ENDBRANCH  12  14
ENDBRANCH  11  12
ENDBRANCH   3  11
BRANCH   7  21
ATOM     21  O   UNL     1       0.825   8.304  20.706  0.00  0.00    +0.000 OA
BRANCH  21  22
ATOM     22  C   UNL     1       1.238   9.332  21.609  0.00  0.00    +0.000 C 
BRANCH  22  23
ATOM     23  C   UNL     1       0.161  10.368  21.831  0.00  0.00    +0.000 A 
ATOM     24  C   UNL     1      -0.233  11.267  20.835  0.00  0.00    +0.000 A 
ATOM     25  C   UNL     1      -1.306  12.137  21.051  0.00  0.00    +0.000 A 
ATOM     26  C   UNL     1      -2.000  12.115  22.263  0.00  0.00    +0.000 A 
ATOM     27  C   UNL     1      -1.619  11.221  23.262  0.00  0.00    +0.000 A 
ATOM     28  C   UNL     1      -0.553  10.356  23.036  0.00  0.00    +0.000 A 
ATOM     29  F   UNL     1      -0.224   9.482  24.000  0.00  0.00    +0.000 F 
ENDBRANCH  22  23
ENDBRANCH  21  22
ENDBRANCH   7  21
TORSDOF 9
ENDMDL
MODEL 4
REMARK VINA RESULT:      -7.6      1.103      1.392
REMARK  Name = 
REMARK  10 active torsions:
REMARK  status: ('A' for Active; 'I' for Inactive)
REMARK    1  A    between atoms: C_1  and  C_2
REMARK    2  A    between atoms: C_2  and  O_3
REMARK    3  A    between atoms: O_3  and  C_4
REMARK    4  A    between atoms: C_6  and  C_7
REMARK    5  A    between atoms: C_7  and  N_8
REMARK    6  A    between atoms: N_8  and  N_9
REMARK    7  A    between atoms: C_13  and  S_14
REMARK    8  A    between atoms: C_18  and  O_19
REMARK    9  A    between atoms: O_19  and  C_20
REMARK   10  A    between atoms: C_20  and  C_21
REMARK                            x       y       z     vdW  Elec       q    Type
REMARK                         _______ _______ _______ _____ _____    ______ ____
ROOT
ATOM      1  C   UNL     1       2.375   5.226  20.144  0.00  0.00    +0.000 A 
ATOM      2  C   UNL     1       3.168   4.405  19.329  0.00  0.00    +0.000 A 
ATOM      3  C   UNL     1       3.633   4.852  18.087  0.00  0.00    +0.000 A 
ATOM      4  C   UNL     1       3.285   6.135  17.667  0.00  0.00    +0.000 A 
ATOM      5  C   UNL     1       2.513   6.982  18.480  0.00  0.00    +0.000 A 
ATOM      6 CL   UNL     1       2.111   8.499  17.749  0.00  0.00    +0.000 Cl
ATOM      7  C   UNL     1       2.081   6.554  19.751  0.00  0.00    +0.000 A 
ENDROOT
BRANCH   1   8
ATOM      8  O   UNL     1       1.925   4.812  21.376  0.00  0.00    +0.000 OA
BRANCH   8  10
ATOM      9  C   UNL     1       1.260   2.480  21.609  0.00  0.00    +0.000 C 
ATOM     10  C   UNL     1       2.344   3.521  21.835  0.00  0.00    +0.000 C 
ENDBRANCH   8  10
ENDBRANCH   1   8
BRANCH   3  11
ATOM     11  C   UNL     1       4.450   3.937  17.207  0.00  0.00    +0.000 C 
BRANCH  11  12
ATOM     12  N   UNL     1       5.832   3.887  17.669  0.00  0.00    +0.000 N 
ATOM     13  H   UNL     1       6.316   3.129  17.184  0.00  0.00    +0.000 HD
BRANCH  12  14
ATOM     14  N   UNL     1       6.556   5.129  17.489  0.00  0.00    +0.000 N 
ATOM     15  C   UNL     1       6.999   6.003  18.444  0.00  0.00    +0.000 A 
ATOM     16  N   UNL     1       7.671   6.987  17.883  0.00  0.00    +0.000 NA
ATOM     17  N   UNL     1       7.695   6.752  16.527  0.00  0.00    +0.000 NA
ATOM     18  C   UNL     1       7.035   5.636  16.307  0.00  0.00    +0.000 A 
BRANCH  18  19
ATOM     19  S   UNL     1       6.810   4.889  14.771  0.00  0.00    +0.000 S 
ATOM     20  H   UNL     1       7.971   5.297  14.234  0.00  0.00    +0.000 HD
ENDBRANCH  18  19
ENDBRANCH  12  14
ENDBRANCH  11  12
ENDBRANCH   3  11
BRANCH   7  21
ATOM     21  O   UNL     1       1.337   7.270  20.662  0.00  0.00    +0.000 OA
BRANCH  21  22
ATOM     22  C   UNL     1       1.868   8.507  21.142  0.00  0.00    +0.000 C 
BRANCH  22  23
ATOM     23  C   UNL     1       0.786   9.459  21.595  0.00  0.00    +0.000 A 
ATOM     24  C   UNL     1       0.058   9.264  22.772  0.00  0.00    +0.000 A 
ATOM     25  C   UNL     1      -0.860  10.227  23.205  0.00  0.00    +0.000 A 
ATOM     26  C   UNL     1      -1.057  11.396  22.467  0.00  0.00    +0.000 A 
ATOM     27  C   UNL     1      -0.335  11.602  21.293  0.00  0.00    +0.000 A 
ATOM     28  C   UNL     1       0.579  10.642  20.873  0.00  0.00    +0.000 A 
ATOM     29  F   UNL     1       1.286  10.877  19.757  0.00  0.00    +0.000 F 
ENDBRANCH  22  23
ENDBRANCH  21  22
ENDBRANCH   7  21
TORSDOF 9
ENDMDL
MODEL 5
REMARK VINA RESULT:      -7.5      1.057      1.408
REMARK  Name = 
REMARK  10 active torsions:
REMARK  status: ('A' for Active; 'I' for Inactive)
REMARK    1  A    between atoms: C_1  and  C_2
REMARK    2  A    between atoms: C_2  and  O_3
REMARK    3  A    between atoms: O_3  and  C_4
REMARK    4  A    between atoms: C_6  and  C_7
REMARK    5  A    between atoms: C_7  and  N_8
REMARK    6  A    between atoms: N_8  and  N_9
REMARK    7  A    between atoms: C_13  and  S_14
REMARK    8  A    between atoms: C_18  and  O_19
REMARK    9  A    between atoms: O_19  and  C_20
REMARK   10  A    between atoms: C_20  and  C_21
REMARK                            x       y       z     vdW  Elec       q    Type
REMARK                         _______ _______ _______ _____ _____    ______ ____
ROOT
ATOM      1  C   UNL     1       2.340   5.332  20.022  0.00  0.00    +0.000 A 
ATOM      2  C   UNL     1       2.839   4.462  19.042  0.00  0.00    +0.000 A 
ATOM      3  C   UNL     1       3.253   4.940  17.794  0.00  0.00    +0.000 A 
ATOM      4  C   UNL     1       3.153   6.306  17.537  0.00  0.00    +0.000 A 
ATOM      5  C   UNL     1       2.680   7.198  18.515  0.00  0.00    +0.000 A 
ATOM      6 CL   UNL     1       2.547   8.839  17.979  0.00  0.00    +0.000 Cl
ATOM      7  C   UNL     1       2.305   6.728  19.789  0.00  0.00    +0.000 A 
ENDROOT
BRANCH   1   8
ATOM      8  O   UNL     1       1.947   4.884  21.262  0.00  0.00    +0.000 OA
BRANCH   8  10
ATOM      9  C   UNL     1       2.481   2.554  21.736  0.00  0.00    +0.000 C 
ATOM     10  C   UNL     1       1.409   3.558  21.347  0.00  0.00    +0.000 C 
ENDBRANCH   8  10
ENDBRANCH   1   8
BRANCH   3  11
ATOM     11  C   UNL     1       3.747   3.981  16.738  0.00  0.00    +0.000 C 
BRANCH  11  12
ATOM     12  N   UNL     1       5.134   3.612  16.994  0.00  0.00    +0.000 N 
ATOM     13  H   UNL     1       5.263   2.625  16.763  0.00  0.00    +0.000 HD
BRANCH  12  14
ATOM     14  N   UNL     1       6.099   4.417  16.273  0.00  0.00    +0.000 N 
ATOM     15  C   UNL     1       6.349   4.447  14.929  0.00  0.00    +0.000 A 
ATOM     16  N   UNL     1       7.260   5.358  14.656  0.00  0.00    +0.000 NA
ATOM     17  N   UNL     1       7.610   5.963  15.842  0.00  0.00    +0.000 NA
ATOM     18  C   UNL     1       6.903   5.399  16.797  0.00  0.00    +0.000 A 
BRANCH  18  19
ATOM     19  S   UNL     1       6.946   5.829  18.465  0.00  0.00    +0.000 S 
ATOM     20  H   UNL     1       6.791   4.585  18.945  0.00  0.00    +0.000 HD
ENDBRANCH  18  19
ENDBRANCH  12  14
ENDBRANCH  11  12
ENDBRANCH   3  11
BRANCH   7  21
ATOM     21  O   UNL     1       1.841   7.475  20.849  0.00  0.00    +0.000 OA
BRANCH  21  22
ATOM     22  C   UNL     1       0.431   7.670  20.970  0.00  0.00    +0.000 C 
BRANCH  22  23
ATOM     23  C   UNL     1       0.060   9.131  21.072  0.00  0.00    +0.000 A 
ATOM     24  C   UNL     1      -0.189   9.923  19.947  0.00  0.00    +0.000 A 
ATOM     25  C   UNL     1      -0.632  11.241  20.093  0.00  0.00    +0.000 A 
ATOM     26  C   UNL     1      -0.834  11.781  21.364  0.00  0.00    +0.000 A 
ATOM     27  C   UNL     1      -0.591  11.001  22.494  0.00  0.00    +0.000 A 
ATOM     28  C   UNL     1      -0.156   9.689  22.338  0.00  0.00    +0.000 A 
ATOM     29  F   UNL     1       0.041   8.946  23.438  0.00  0.00    +0.000 F 
ENDBRANCH  22  23
ENDBRANCH  21  22
ENDBRANCH   7  21
TORSDOF 9
ENDMDL
MODEL 6
REMARK VINA RESULT:      -7.5      1.806      2.293
REMARK  Name = 
REMARK  10 active torsions:
REMARK  status: ('A' for Active; 'I' for Inactive)
REMARK    1  A    between atoms: C_1  and  C_2
REMARK    2  A    between atoms: C_2  and  O_3
REMARK    3  A    between atoms: O_3  and  C_4
REMARK    4  A    between atoms: C_6  and  C_7
REMARK    5  A    between atoms: C_7  and  N_8
REMARK    6  A    between atoms: N_8  and  N_9
REMARK    7  A    between atoms: C_13  and  S_14
REMARK    8  A    between atoms: C_18  and  O_19
REMARK    9  A    between atoms: O_19  and  C_20
REMARK   10  A    between atoms: C_20  and  C_21
REMARK                            x       y       z     vdW  Elec       q    Type
REMARK                         _______ _______ _______ _____ _____    ______ ____
ROOT
ATOM      1  C   UNL     1       2.247   6.122  19.803  0.00  0.00    +0.000 A 
ATOM      2  C   UNL     1       3.134   5.565  18.869  0.00  0.00    +0.000 A 
ATOM      3  C   UNL     1       3.591   6.307  17.774  0.00  0.00    +0.000 A 
ATOM      4  C   UNL     1       3.138   7.617  17.621  0.00  0.00    +0.000 A 
ATOM      5  C   UNL     1       2.270   8.200  18.559  0.00  0.00    +0.000 A 
ATOM      6 CL   UNL     1       1.751   9.801  18.150  0.00  0.00    +0.000 Cl
ATOM      7  C   UNL     1       1.843   7.473  19.688  0.00  0.00    +0.000 A 
ENDROOT
BRANCH   1   8
ATOM      8  O   UNL     1       1.803   5.415  20.896  0.00  0.00    +0.000 OA
BRANCH   8  10
ATOM      9  C   UNL     1       1.896   3.082  21.592  0.00  0.00    +0.000 C 
ATOM     10  C   UNL     1       1.265   4.107  20.665  0.00  0.00    +0.000 C 
ENDBRANCH   8  10
ENDBRANCH   1   8
BRANCH   3  11
ATOM     11  C   UNL     1       4.512   5.676  16.759  0.00  0.00    +0.000 C 
BRANCH  11  12
ATOM     12  N   UNL     1       5.760   6.424  16.670  0.00  0.00    +0.000 N 
ATOM     13  H   UNL     1       5.549   7.423  16.665  0.00  0.00    +0.000 HD
BRANCH  12  14
ATOM     14  N   UNL     1       6.701   6.124  17.730  0.00  0.00    +0.000 N 
ATOM     15  C   UNL     1       6.904   4.936  18.378  0.00  0.00    +0.000 A 
ATOM     16  N   UNL     1       7.894   5.051  19.239  0.00  0.00    +0.000 NA
ATOM     17  N   UNL     1       8.374   6.338  19.148  0.00  0.00    +0.000 NA
ATOM     18  C   UNL     1       7.661   6.964  18.238  0.00  0.00    +0.000 A 
BRANCH  18  19
ATOM     19  S   UNL     1       7.893   8.592  17.725  0.00  0.00    +0.000 S 
ATOM     20  H   UNL     1       9.184   8.680  18.082  0.00  0.00    +0.000 HD
ENDBRANCH  18  19
ENDBRANCH  12  14
ENDBRANCH  11  12
ENDBRANCH   3  11
BRANCH   7  21
ATOM     21  O   UNL     1       1.012   7.911  20.695  0.00  0.00    +0.000 OA
BRANCH  21  22
ATOM     22  C   UNL     1       1.478   8.961  21.545  0.00  0.00    +0.000 C 
BRANCH  22  23
ATOM     23  C   UNL     1       0.436  10.035  21.754  0.00  0.00    +0.000 A 
ATOM     24  C   UNL     1       0.063  10.927  20.743  0.00  0.00    +0.000 A 
ATOM     25  C   UNL     1      -0.980  11.835  20.950  0.00  0.00    +0.000 A 
ATOM     26  C   UNL     1      -1.665  11.859  22.166  0.00  0.00    +0.000 A 
ATOM     27  C   UNL     1      -1.304  10.973  23.180  0.00  0.00    +0.000 A 
ATOM     28  C   UNL     1      -0.268  10.070  22.964  0.00  0.00    +0.000 A 
ATOM     29  F   UNL     1       0.040   9.205  23.942  0.00  0.00    +0.000 F 
ENDBRANCH  22  23
ENDBRANCH  21  22
ENDBRANCH   7  21
TORSDOF 9
ENDMDL
MODEL 7
REMARK VINA RESULT:      -7.4      4.784      7.836
REMARK  Name = 
REMARK  10 active torsions:
REMARK  status: ('A' for Active; 'I' for Inactive)
REMARK    1  A    between atoms: C_1  and  C_2
REMARK    2  A    between atoms: C_2  and  O_3
REMARK    3  A    between atoms: O_3  and  C_4
REMARK    4  A    between atoms: C_6  and  C_7
REMARK    5  A    between atoms: C_7  and  N_8
REMARK    6  A    between atoms: N_8  and  N_9
REMARK    7  A    between atoms: C_13  and  S_14
REMARK    8  A    between atoms: C_18  and  O_19
REMARK    9  A    between atoms: O_19  and  C_20
REMARK   10  A    between atoms: C_20  and  C_21
REMARK                            x       y       z     vdW  Elec       q    Type
REMARK                         _______ _______ _______ _____ _____    ______ ____
ROOT
ATOM      1  C   UNL     1       2.397   4.940  20.230  0.00  0.00    +0.000 A 
ATOM      2  C   UNL     1       1.634   5.904  20.905  0.00  0.00    +0.000 A 
ATOM      3  C   UNL     1       1.578   7.227  20.454  0.00  0.00    +0.000 A 
ATOM      4  C   UNL     1       2.307   7.576  19.319  0.00  0.00    +0.000 A 
ATOM      5  C   UNL     1       3.058   6.620  18.614  0.00  0.00    +0.000 A 
ATOM      6 CL   UNL     1       3.963   7.262  17.285  0.00  0.00    +0.000 Cl
ATOM      7  C   UNL     1       3.081   5.275  19.037  0.00  0.00    +0.000 A 
ENDROOT
BRANCH   1   8
ATOM      8  O   UNL     1       2.449   3.630  20.646  0.00  0.00    +0.000 OA
BRANCH   8  10
ATOM      9  C   UNL     1       0.753   2.575  19.250  0.00  0.00    +0.000 C 
ATOM     10  C   UNL     1       1.221   2.891  20.660  0.00  0.00    +0.000 C 
ENDBRANCH   8  10
ENDBRANCH   1   8
BRANCH   3  11
ATOM     11  C   UNL     1       0.783   8.258  21.219  0.00  0.00    +0.000 C 
BRANCH  11  12
ATOM     12  N   UNL     1       1.195   9.604  20.837  0.00  0.00    +0.000 N 
ATOM     13  H   UNL     1       1.999   9.540  20.210  0.00  0.00    +0.000 HD
BRANCH  12  14
ATOM     14  N   UNL     1       0.145  10.383  20.213  0.00  0.00    +0.000 N 
ATOM     15  C   UNL     1      -0.189  10.457  18.889  0.00  0.00    +0.000 A 
ATOM     16  N   UNL     1      -1.244  11.230  18.728  0.00  0.00    +0.000 NA
ATOM     17  N   UNL     1      -1.634  11.664  19.975  0.00  0.00    +0.000 NA
ATOM     18  C   UNL     1      -0.803  11.144  20.852  0.00  0.00    +0.000 A 
BRANCH  18  19
ATOM     19  S   UNL     1      -0.886  11.353  22.560  0.00  0.00    +0.000 S 
ATOM     20  H   UNL     1      -0.044  12.397  22.624  0.00  0.00    +0.000 HD
ENDBRANCH  18  19
ENDBRANCH  12  14
ENDBRANCH  11  12
ENDBRANCH   3  11
BRANCH   7  21
ATOM     21  O   UNL     1       3.751   4.229  18.446  0.00  0.00    +0.000 OA
BRANCH  21  22
ATOM     22  C   UNL     1       5.180   4.271  18.421  0.00  0.00    +0.000 C 
BRANCH  22  23
ATOM     23  C   UNL     1       5.727   4.357  17.015  0.00  0.00    +0.000 A 
ATOM     24  C   UNL     1       4.931   4.146  15.885  0.00  0.00    +0.000 A 
ATOM     25  C   UNL     1       5.456   4.340  14.604  0.00  0.00    +0.000 A 
ATOM     26  C   UNL     1       6.780   4.750  14.437  0.00  0.00    +0.000 A 
ATOM     27  C   UNL     1       7.583   4.966  15.557  0.00  0.00    +0.000 A 
ATOM     28  C   UNL     1       7.050   4.775  16.828  0.00  0.00    +0.000 A 
ATOM     29  F   UNL     1       7.831   5.021  17.891  0.00  0.00    +0.000 F 
ENDBRANCH  22  23
ENDBRANCH  21  22
ENDBRANCH   7  21
TORSDOF 9
ENDMDL
MODEL 8
REMARK VINA RESULT:      -7.3      5.032      8.194
REMARK  Name = 
REMARK  10 active torsions:
REMARK  status: ('A' for Active; 'I' for Inactive)
REMARK    1  A    between atoms: C_1  and  C_2
REMARK    2  A    between atoms: C_2  and  O_3
REMARK    3  A    between atoms: O_3  and  C_4
REMARK    4  A    between atoms: C_6  and  C_7
REMARK    5  A    between atoms: C_7  and  N_8
REMARK    6  A    between atoms: N_8  and  N_9
REMARK    7  A    between atoms: C_13  and  S_14
REMARK    8  A    between atoms: C_18  and  O_19
REMARK    9  A    between atoms: O_19  and  C_20
REMARK   10  A    between atoms: C_20  and  C_21
REMARK                            x       y       z     vdW  Elec       q    Type
REMARK                         _______ _______ _______ _____ _____    ______ ____
ROOT
ATOM      1  C   UNL     1       2.231   4.991  20.078  0.00  0.00    +0.000 A 
ATOM      2  C   UNL     1       1.576   5.939  20.877  0.00  0.00    +0.000 A 
ATOM      3  C   UNL     1       1.602   7.300  20.552  0.00  0.00    +0.000 A 
ATOM      4  C   UNL     1       2.302   7.701  19.416  0.00  0.00    +0.000 A 
ATOM      5  C   UNL     1       2.943   6.763  18.588  0.00  0.00    +0.000 A 
ATOM      6 CL   UNL     1       3.832   7.461  17.276  0.00  0.00    +0.000 Cl
ATOM      7  C   UNL     1       2.882   5.387  18.886  0.00  0.00    +0.000 A 
ENDROOT
BRANCH   1   8
ATOM      8  O   UNL     1       2.201   3.646  20.370  0.00  0.00    +0.000 OA
BRANCH   8  10
ATOM      9  C   UNL     1       0.772   2.306  18.921  0.00  0.00    +0.000 C 
ATOM     10  C   UNL     1       0.937   2.976  20.275  0.00  0.00    +0.000 C 
ENDBRANCH   8  10
ENDBRANCH   1   8
BRANCH   3  11
ATOM     11  C   UNL     1       0.926   8.309  21.449  0.00  0.00    +0.000 C 
BRANCH  11  12
ATOM     12  N   UNL     1       0.566   9.502  20.691  0.00  0.00    +0.000 N 
ATOM     13  H   UNL     1       0.136   9.218  19.810  0.00  0.00    +0.000 HD
BRANCH  12  14
ATOM     14  N   UNL     1      -0.317  10.404  21.403  0.00  0.00    +0.000 N 
ATOM     15  C   UNL     1      -0.570  10.466  22.746  0.00  0.00    +0.000 A 
ATOM     16  N   UNL     1      -1.387  11.465  23.009  0.00  0.00    +0.000 NA
ATOM     17  N   UNL     1      -1.668  12.096  21.818  0.00  0.00    +0.000 NA
ATOM     18  C   UNL     1      -1.016  11.459  20.870  0.00  0.00    +0.000 A 
BRANCH  18  19
ATOM     19  S   UNL     1      -1.006  11.882  19.200  0.00  0.00    +0.000 S 
ATOM     20  H   UNL     1      -1.133  13.206  19.379  0.00  0.00    +0.000 HD
ENDBRANCH  18  19
ENDBRANCH  12  14
ENDBRANCH  11  12
ENDBRANCH   3  11
BRANCH   7  21
ATOM     21  O   UNL     1       3.442   4.355  18.167  0.00  0.00    +0.000 OA
BRANCH  21  22
ATOM     22  C   UNL     1       4.856   4.165  18.249  0.00  0.00    +0.000 C 
BRANCH  22  23
ATOM     23  C   UNL     1       5.531   4.295  16.904  0.00  0.00    +0.000 A 
ATOM     24  C   UNL     1       4.820   4.264  15.700  0.00  0.00    +0.000 A 
ATOM     25  C   UNL     1       5.473   4.494  14.486  0.00  0.00    +0.000 A 
ATOM     26  C   UNL     1       6.843   4.762  14.460  0.00  0.00    +0.000 A 
ATOM     27  C   UNL     1       7.562   4.799  15.654  0.00  0.00    +0.000 A 
ATOM     28  C   UNL     1       6.903   4.573  16.858  0.00  0.00    +0.000 A 
ATOM     29  F   UNL     1       7.609   4.645  17.997  0.00  0.00    +0.000 F 
ENDBRANCH  22  23
ENDBRANCH  21  22
ENDBRANCH   7  21
TORSDOF 9
ENDMDL
MODEL 9
REMARK VINA RESULT:      -7.3      4.782      8.044
REMARK  Name = 
REMARK  10 active torsions:
REMARK  status: ('A' for Active; 'I' for Inactive)
REMARK    1  A    between atoms: C_1  and  C_2
REMARK    2  A    between atoms: C_2  and  O_3
REMARK    3  A    between atoms: O_3  and  C_4
REMARK    4  A    between atoms: C_6  and  C_7
REMARK    5  A    between atoms: C_7  and  N_8
REMARK    6  A    between atoms: N_8  and  N_9
REMARK    7  A    between atoms: C_13  and  S_14
REMARK    8  A    between atoms: C_18  and  O_19
REMARK    9  A    between atoms: O_19  and  C_20
REMARK   10  A    between atoms: C_20  and  C_21
REMARK                            x       y       z     vdW  Elec       q    Type
REMARK                         _______ _______ _______ _____ _____    ______ ____
ROOT
ATOM      1  C   UNL     1       2.474   4.581  19.808  0.00  0.00    +0.000 A 
ATOM      2  C   UNL     1       1.778   5.472  20.637  0.00  0.00    +0.000 A 
ATOM      3  C   UNL     1       1.759   6.845  20.368  0.00  0.00    +0.000 A 
ATOM      4  C   UNL     1       2.456   7.316  19.256  0.00  0.00    +0.000 A 
ATOM      5  C   UNL     1       3.138   6.436  18.399  0.00  0.00    +0.000 A 
ATOM      6 CL   UNL     1       4.015   7.217  17.126  0.00  0.00    +0.000 Cl
ATOM      7  C   UNL     1       3.122   5.047  18.639  0.00  0.00    +0.000 A 
ENDROOT
BRANCH   1   8
ATOM      8  O   UNL     1       2.488   3.225  20.045  0.00  0.00    +0.000 OA
BRANCH   8  10
ATOM      9  C   UNL     1       1.354   2.394  22.035  0.00  0.00    +0.000 C 
ATOM     10  C   UNL     1       2.674   2.792  21.398  0.00  0.00    +0.000 C 
ENDBRANCH   8  10
ENDBRANCH   1   8
BRANCH   3  11
ATOM     11  C   UNL     1       1.040   7.793  21.296  0.00  0.00    +0.000 C 
BRANCH  11  12
ATOM     12  N   UNL     1       1.254   9.174  20.881  0.00  0.00    +0.000 N 
ATOM     13  H   UNL     1       1.035   9.259  19.887  0.00  0.00    +0.000 HD
BRANCH  12  14
ATOM     14  N   UNL     1       0.487  10.141  21.639  0.00  0.00    +0.000 N 
ATOM     15  C   UNL     1      -0.167   9.966  22.828  0.00  0.00    +0.000 A 
ATOM     16  N   UNL     1      -0.699  11.103  23.227  0.00  0.00    +0.000 NA
ATOM     17  N   UNL     1      -0.374  12.062  22.293  0.00  0.00    +0.000 NA
ATOM     18  C   UNL     1       0.341  11.476  21.358  0.00  0.00    +0.000 A 
BRANCH  18  19
ATOM     19  S   UNL     1       1.025  12.256  19.982  0.00  0.00    +0.000 S 
ATOM     20  H   UNL     1       2.100  12.756  20.611  0.00  0.00    +0.000 HD
ENDBRANCH  18  19
ENDBRANCH  12  14
ENDBRANCH  11  12
ENDBRANCH   3  11
BRANCH   7  21
ATOM     21  O   UNL     1       3.724   4.065  17.886  0.00  0.00    +0.000 OA
BRANCH  21  22
ATOM     22  C   UNL     1       5.149   3.962  17.929  0.00  0.00    +0.000 C 
BRANCH  22  23
ATOM     23  C   UNL     1       5.781   4.172  16.572  0.00  0.00    +0.000 A 
ATOM     24  C   UNL     1       5.102   3.907  15.379  0.00  0.00    +0.000 A 
ATOM     25  C   UNL     1       5.688   4.216  14.148  0.00  0.00    +0.000 A 
ATOM     26  C   UNL     1       6.957   4.798  14.096  0.00  0.00    +0.000 A 
ATOM     27  C   UNL     1       7.642   5.069  15.279  0.00  0.00    +0.000 A 
ATOM     28  C   UNL     1       7.049   4.762  16.499  0.00  0.00    +0.000 A 
ATOM     29  F   UNL     1       7.713   5.062  17.626  0.00  0.00    +0.000 F 
ENDBRANCH  22  23
ENDBRANCH  21  22
ENDBRANCH   7  21
TORSDOF 9
ENDMDL
