MODEL 1
REMARK VINA RESULT:      -7.7      0.000      0.000
REMARK  Name = 
REMARK  5 active torsions:
REMARK  status: ('A' for Active; 'I' for Inactive)
REMARK    1  A    between atoms: C_1  and  S_2
REMARK    2  A    between atoms: S_2  and  N_5
REMARK    3  A    between atoms: C_13  and  C_15
REMARK    4  A    between atoms: C_15  and  C_16
REMARK    5  A    between atoms: C_16  and  N_17
REMARK                            x       y       z     vdW  Elec       q    Type
REMARK                         _______ _______ _______ _____ _____    ______ ____
ROOT
ATOM      1  N   UNL     1       4.567   3.675  18.157  0.00  0.00    +0.000 NA
ATOM      2  C   UNL     1       4.457   2.813  19.352  0.00  0.00    +0.000 C 
ATOM      3  C   UNL     1       3.159   3.032  20.160  0.00  0.00    +0.000 C 
ATOM      4  C   UNL     1       1.999   2.207  19.568  0.00  0.00    +0.000 C 
ATOM      5  C   UNL     1       1.257   2.960  18.468  0.00  0.00    +0.000 C 
ATOM      6  C   UNL     1       2.078   4.128  17.908  0.00  0.00    +0.000 C 
ATOM      7  C   UNL     1       3.398   3.662  17.232  0.00  0.00    +0.000 C 
ATOM      8  N   UNL     1       2.326   5.091  18.997  0.00  0.00    +0.000 N 
ATOM      9  C   UNL     1       2.195   6.446  18.727  0.00  0.00    +0.000 C 
ATOM     10  O   UNL     1       1.796   6.851  17.634  0.00  0.00    +0.000 OA
ATOM     11  C   UNL     1       2.740   4.512  20.283  0.00  0.00    +0.000 C 
ENDROOT
BRANCH   1  13
ATOM     12  C   UNL     1       7.078   4.532  17.632  0.00  0.00    +0.000 C 
ATOM     13  S   UNL     1       5.511   5.086  18.261  0.00  0.00    +0.000 S 
ATOM     14  O   UNL     1       5.706   5.400  19.663  0.00  0.00    +0.000 OA
ATOM     15  O   UNL     1       5.014   6.077  17.335  0.00  0.00    +0.000 OA
ENDBRANCH   1  13
BRANCH   9  16
ATOM     16  C   UNL     1       2.573   7.427  19.824  0.00  0.00    +0.000 C 
BRANCH  16  17
ATOM     17  C   UNL     1       1.335   7.774  20.643  0.00  0.00    +0.000 C 
BRANCH  17  18
ATOM     18  N   UNL     1       0.887   9.142  20.468  0.00  0.00    +0.000 N 
ATOM     19  C   UNL     1       1.027   9.869  19.318  0.00  0.00    +0.000 A 
ATOM     20  N   UNL     1       0.395  11.019  19.386  0.00  0.00    +0.000 NA
ATOM     21  C   UNL     1      -0.179  11.038  20.633  0.00  0.00    +0.000 A 
ATOM     22  C   UNL     1      -0.997  12.015  21.220  0.00  0.00    +0.000 A 
ATOM     23  C   UNL     1      -1.461  11.811  22.526  0.00  0.00    +0.000 A 
ATOM     24  C   UNL     1      -1.115  10.658  23.232  0.00  0.00    +0.000 A 
ATOM     25  C   UNL     1      -0.314   9.664  22.658  0.00  0.00    +0.000 A 
ATOM     26  C   UNL     1       0.134   9.883  21.349  0.00  0.00    +0.000 A 
ENDBRANCH  17  18
ENDBRANCH  16  17
ENDBRANCH   9  16
TORSDOF 4
ENDMDL
MODEL 2
REMARK VINA RESULT:      -7.7      2.296      3.731
REMARK  Name = 
REMARK  5 active torsions:
REMARK  status: ('A' for Active; 'I' for Inactive)
REMARK    1  A    between atoms: C_1  and  S_2
REMARK    2  A    between atoms: S_2  and  N_5
REMARK    3  A    between atoms: C_13  and  C_15
REMARK    4  A    between atoms: C_15  and  C_16
REMARK    5  A    between atoms: C_16  and  N_17
REMARK                            x       y       z     vdW  Elec       q    Type
REMARK                         _______ _______ _______ _____ _____    ______ ____
ROOT
ATOM      1  N   UNL     1       3.088   3.434  18.733  0.00  0.00    +0.000 NA
ATOM      2  C   UNL     1       3.875   3.237  17.498  0.00  0.00    +0.000 C 
ATOM      3  C   UNL     1       4.605   4.509  17.016  0.00  0.00    +0.000 C 
ATOM      4  C   UNL     1       5.954   4.676  17.742  0.00  0.00    +0.000 C 
ATOM      5  C   UNL     1       5.814   5.443  19.053  0.00  0.00    +0.000 C 
ATOM      6  C   UNL     1       4.365   5.473  19.556  0.00  0.00    +0.000 C 
ATOM      7  C   UNL     1       3.814   4.055  19.879  0.00  0.00    +0.000 C 
ATOM      8  N   UNL     1       3.537   6.173  18.558  0.00  0.00    +0.000 N 
ATOM      9  C   UNL     1       2.587   7.082  19.002  0.00  0.00    +0.000 C 
ATOM     10  O   UNL     1       2.483   7.376  20.195  0.00  0.00    +0.000 OA
ATOM     11  C   UNL     1       3.771   5.800  17.155  0.00  0.00    +0.000 C 
ENDROOT
BRANCH   1  13
ATOM     12  C   UNL     1       0.775   2.033  18.713  0.00  0.00    +0.000 C 
ATOM     13  S   UNL     1       1.413   3.687  18.594  0.00  0.00    +0.000 S 
ATOM     14  O   UNL     1       1.134   4.153  17.250  0.00  0.00    +0.000 OA
ATOM     15  O   UNL     1       0.929   4.407  19.749  0.00  0.00    +0.000 OA
ENDBRANCH   1  13
BRANCH   9  16
ATOM     16  C   UNL     1       1.660   7.700  17.970  0.00  0.00    +0.000 C 
BRANCH  16  17
ATOM     17  C   UNL     1       1.860   9.212  17.951  0.00  0.00    +0.000 C 
BRANCH  17  18
ATOM     18  N   UNL     1       0.857   9.940  18.704  0.00  0.00    +0.000 N 
ATOM     19  C   UNL     1       1.091  10.613  19.871  0.00  0.00    +0.000 A 
ATOM     20  N   UNL     1       0.046  11.310  20.254  0.00  0.00    +0.000 NA
ATOM     21  C   UNL     1      -0.907  11.080  19.293  0.00  0.00    +0.000 A 
ATOM     22  C   UNL     1      -2.205  11.604  19.184  0.00  0.00    +0.000 A 
ATOM     23  C   UNL     1      -3.004  11.208  18.104  0.00  0.00    +0.000 A 
ATOM     24  C   UNL     1      -2.521  10.308  17.153  0.00  0.00    +0.000 A 
ATOM     25  C   UNL     1      -1.223   9.787  17.234  0.00  0.00    +0.000 A 
ATOM     26  C   UNL     1      -0.438  10.201  18.318  0.00  0.00    +0.000 A 
ENDBRANCH  17  18
ENDBRANCH  16  17
ENDBRANCH   9  16
TORSDOF 4
ENDMDL
MODEL 3
REMARK VINA RESULT:      -7.6      2.250      4.045
REMARK  Name = 
REMARK  5 active torsions:
REMARK  status: ('A' for Active; 'I' for Inactive)
REMARK    1  A    between atoms: C_1  and  S_2
REMARK    2  A    between atoms: S_2  and  N_5
REMARK    3  A    between atoms: C_13  and  C_15
REMARK    4  A    between atoms: C_15  and  C_16
REMARK    5  A    between atoms: C_16  and  N_17
REMARK                            x       y       z     vdW  Elec       q    Type
REMARK                         _______ _______ _______ _____ _____    ______ ____
ROOT
ATOM      1  N   UNL     1       7.245   5.212  16.140  0.00  0.00    +0.000 NA
ATOM      2  C   UNL     1       7.677   6.624  16.182  0.00  0.00    +0.000 C 
ATOM      3  C   UNL     1       7.213   7.379  17.447  0.00  0.00    +0.000 C 
ATOM      4  C   UNL     1       8.187   7.140  18.618  0.00  0.00    +0.000 C 
ATOM      5  C   UNL     1       7.829   5.894  19.421  0.00  0.00    +0.000 C 
ATOM      6  C   UNL     1       6.901   4.949  18.646  0.00  0.00    +0.000 C 
ATOM      7  C   UNL     1       7.557   4.396  17.350  0.00  0.00    +0.000 C 
ATOM      8  N   UNL     1       5.639   5.658  18.367  0.00  0.00    +0.000 N 
ATOM      9  C   UNL     1       4.442   4.975  18.533  0.00  0.00    +0.000 C 
ATOM     10  O   UNL     1       4.411   3.829  18.987  0.00  0.00    +0.000 OA
ATOM     11  C   UNL     1       5.773   7.041  17.885  0.00  0.00    +0.000 C 
ENDROOT
BRANCH   1  13
ATOM     12  C   UNL     1       6.600   4.270  13.689  0.00  0.00    +0.000 C 
ATOM     13  S   UNL     1       5.874   4.812  15.217  0.00  0.00    +0.000 S 
ATOM     14  O   UNL     1       5.148   6.033  14.931  0.00  0.00    +0.000 OA
ATOM     15  O   UNL     1       5.211   3.666  15.796  0.00  0.00    +0.000 OA
ENDBRANCH   1  13
BRANCH   9  16
ATOM     16  C   UNL     1       3.161   5.679  18.123  0.00  0.00    +0.000 C 
BRANCH  16  17
ATOM     17  C   UNL     1       2.528   6.333  19.346  0.00  0.00    +0.000 C 
BRANCH  17  18
ATOM     18  N   UNL     1       2.121   7.707  19.125  0.00  0.00    +0.000 N 
ATOM     19  C   UNL     1       2.235   8.375  17.936  0.00  0.00    +0.000 A 
ATOM     20  N   UNL     1       1.647   9.550  17.975  0.00  0.00    +0.000 NA
ATOM     21  C   UNL     1       1.130   9.647  19.243  0.00  0.00    +0.000 A 
ATOM     22  C   UNL     1       0.372  10.680  19.817  0.00  0.00    +0.000 A 
ATOM     23  C   UNL     1      -0.040  10.554  21.150  0.00  0.00    +0.000 A 
ATOM     24  C   UNL     1       0.297   9.424  21.896  0.00  0.00    +0.000 A 
ATOM     25  C   UNL     1       1.037   8.374  21.336  0.00  0.00    +0.000 A 
ATOM     26  C   UNL     1       1.434   8.516  20.000  0.00  0.00    +0.000 A 
ENDBRANCH  17  18
ENDBRANCH  16  17
ENDBRANCH   9  16
TORSDOF 4
ENDMDL
MODEL 4
REMARK VINA RESULT:      -7.6      0.770      1.402
REMARK  Name = 
REMARK  5 active torsions:
REMARK  status: ('A' for Active; 'I' for Inactive)
REMARK    1  A    between atoms: C_1  and  S_2
REMARK    2  A    between atoms: S_2  and  N_5
REMARK    3  A    between atoms: C_13  and  C_15
REMARK    4  A    between atoms: C_15  and  C_16
REMARK    5  A    between atoms: C_16  and  N_17
REMARK                            x       y       z     vdW  Elec       q    Type
REMARK                         _______ _______ _______ _____ _____    ______ ____
ROOT
ATOM      1  N   UNL     1       4.615   3.722  18.194  0.00  0.00    +0.000 NA
ATOM      2  C   UNL     1       4.471   2.872  19.394  0.00  0.00    +0.000 C 
ATOM      3  C   UNL     1       3.130   3.064  20.136  0.00  0.00    +0.000 C 
ATOM      4  C   UNL     1       2.023   2.201  19.501  0.00  0.00    +0.000 C 
ATOM      5  C   UNL     1       1.313   2.919  18.357  0.00  0.00    +0.000 C 
ATOM      6  C   UNL     1       2.128   4.102  17.821  0.00  0.00    +0.000 C 
ATOM      7  C   UNL     1       3.491   3.665  17.214  0.00  0.00    +0.000 C 
ATOM      8  N   UNL     1       2.298   5.085  18.907  0.00  0.00    +0.000 N 
ATOM      9  C   UNL     1       2.143   6.433  18.613  0.00  0.00    +0.000 C 
ATOM     10  O   UNL     1       1.786   6.813  17.497  0.00  0.00    +0.000 OA
ATOM     11  C   UNL     1       2.666   4.533  20.219  0.00  0.00    +0.000 C 
ENDROOT
BRANCH   1  13
ATOM     12  C   UNL     1       7.120   4.645  17.764  0.00  0.00    +0.000 C 
ATOM     13  S   UNL     1       5.514   5.159  18.323  0.00  0.00    +0.000 S 
ATOM     14  O   UNL     1       5.641   5.490  19.729  0.00  0.00    +0.000 OA
ATOM     15  O   UNL     1       5.028   6.128  17.368  0.00  0.00    +0.000 OA
ENDBRANCH   1  13
BRANCH   9  16
ATOM     16  C   UNL     1       2.442   7.436  19.713  0.00  0.00    +0.000 C 
BRANCH  16  17
ATOM     17  C   UNL     1       1.590   8.684  19.506  0.00  0.00    +0.000 C 
BRANCH  17  18
ATOM     18  N   UNL     1       0.980   9.179  20.725  0.00  0.00    +0.000 N 
ATOM     19  C   UNL     1       1.367   8.832  21.991  0.00  0.00    +0.000 A 
ATOM     20  N   UNL     1       0.750   9.545  22.905  0.00  0.00    +0.000 NA
ATOM     21  C   UNL     1      -0.072  10.392  22.203  0.00  0.00    +0.000 A 
ATOM     22  C   UNL     1      -0.931  11.395  22.678  0.00  0.00    +0.000 A 
ATOM     23  C   UNL     1      -1.684  12.131  21.756  0.00  0.00    +0.000 A 
ATOM     24  C   UNL     1      -1.585  11.874  20.388  0.00  0.00    +0.000 A 
ATOM     25  C   UNL     1      -0.720  10.890  19.892  0.00  0.00    +0.000 A 
ATOM     26  C   UNL     1       0.030  10.169  20.830  0.00  0.00    +0.000 A 
ENDBRANCH  17  18
ENDBRANCH  16  17
ENDBRANCH   9  16
TORSDOF 4
ENDMDL
MODEL 5
REMARK VINA RESULT:      -7.3      2.351      3.825
REMARK  Name = 
REMARK  5 active torsions:
REMARK  status: ('A' for Active; 'I' for Inactive)
REMARK    1  A    between atoms: C_1  and  S_2
REMARK    2  A    between atoms: S_2  and  N_5
REMARK    3  A    between atoms: C_13  and  C_15
REMARK    4  A    between atoms: C_15  and  C_16
REMARK    5  A    between atoms: C_16  and  N_17
REMARK                            x       y       z     vdW  Elec       q    Type
REMARK                         _______ _______ _______ _____ _____    ______ ____
ROOT
ATOM      1  N   UNL     1       3.142   3.386  18.697  0.00  0.00    +0.000 NA
ATOM      2  C   UNL     1       3.934   3.225  17.460  0.00  0.00    +0.000 C 
ATOM      3  C   UNL     1       4.684   4.504  17.031  0.00  0.00    +0.000 C 
ATOM      4  C   UNL     1       6.031   4.625  17.771  0.00  0.00    +0.000 C 
ATOM      5  C   UNL     1       5.892   5.344  19.109  0.00  0.00    +0.000 C 
ATOM      6  C   UNL     1       4.440   5.375  19.604  0.00  0.00    +0.000 C 
ATOM      7  C   UNL     1       3.868   3.954  19.869  0.00  0.00    +0.000 C 
ATOM      8  N   UNL     1       3.629   6.123  18.628  0.00  0.00    +0.000 N 
ATOM      9  C   UNL     1       2.688   7.028  19.100  0.00  0.00    +0.000 C 
ATOM     10  O   UNL     1       2.581   7.278  20.302  0.00  0.00    +0.000 OA
ATOM     11  C   UNL     1       3.867   5.800  17.213  0.00  0.00    +0.000 C 
ENDROOT
BRANCH   1  13
ATOM     12  C   UNL     1       0.807   2.022  18.637  0.00  0.00    +0.000 C 
ATOM     13  S   UNL     1       1.471   3.668  18.557  0.00  0.00    +0.000 S 
ATOM     14  O   UNL     1       1.205   4.166  17.222  0.00  0.00    +0.000 OA
ATOM     15  O   UNL     1       0.993   4.370  19.726  0.00  0.00    +0.000 OA
ENDBRANCH   1  13
BRANCH   9  16
ATOM     16  C   UNL     1       1.777   7.698  18.086  0.00  0.00    +0.000 C 
BRANCH  16  17
ATOM     17  C   UNL     1       2.230   9.138  17.871  0.00  0.00    +0.000 C 
BRANCH  17  18
ATOM     18  N   UNL     1       1.383  10.117  18.525  0.00  0.00    +0.000 N 
ATOM     19  C   UNL     1       0.295   9.818  19.299  0.00  0.00    +0.000 A 
ATOM     20  N   UNL     1      -0.193  10.883  19.892  0.00  0.00    +0.000 NA
ATOM     21  C   UNL     1       0.614  11.918  19.487  0.00  0.00    +0.000 A 
ATOM     22  C   UNL     1       0.570  13.274  19.847  0.00  0.00    +0.000 A 
ATOM     23  C   UNL     1       1.507  14.151  19.288  0.00  0.00    +0.000 A 
ATOM     24  C   UNL     1       2.468  13.688  18.388  0.00  0.00    +0.000 A 
ATOM     25  C   UNL     1       2.541  12.336  18.031  0.00  0.00    +0.000 A 
ATOM     26  C   UNL     1       1.599  11.473  18.606  0.00  0.00    +0.000 A 
ENDBRANCH  17  18
ENDBRANCH  16  17
ENDBRANCH   9  16
TORSDOF 4
ENDMDL
MODEL 6
REMARK VINA RESULT:      -7.2      1.056      1.691
REMARK  Name = 
REMARK  5 active torsions:
REMARK  status: ('A' for Active; 'I' for Inactive)
REMARK    1  A    between atoms: C_1  and  S_2
REMARK    2  A    between atoms: S_2  and  N_5
REMARK    3  A    between atoms: C_13  and  C_15
REMARK    4  A    between atoms: C_15  and  C_16
REMARK    5  A    between atoms: C_16  and  N_17
REMARK                            x       y       z     vdW  Elec       q    Type
REMARK                         _______ _______ _______ _____ _____    ______ ____
ROOT
ATOM      1  N   UNL     1       4.754   3.772  18.077  0.00  0.00    +0.000 NA
ATOM      2  C   UNL     1       4.610   2.830  19.206  0.00  0.00    +0.000 C 
ATOM      3  C   UNL     1       3.261   2.951  19.949  0.00  0.00    +0.000 C 
ATOM      4  C   UNL     1       2.168   2.128  19.239  0.00  0.00    +0.000 C 
ATOM      5  C   UNL     1       1.460   2.926  18.149  0.00  0.00    +0.000 C 
ATOM      6  C   UNL     1       2.267   4.156  17.713  0.00  0.00    +0.000 C 
ATOM      7  C   UNL     1       3.639   3.780  17.086  0.00  0.00    +0.000 C 
ATOM      8  N   UNL     1       2.418   5.052  18.873  0.00  0.00    +0.000 N 
ATOM      9  C   UNL     1       2.251   6.418  18.683  0.00  0.00    +0.000 C 
ATOM     10  O   UNL     1       1.899   6.880  17.597  0.00  0.00    +0.000 OA
ATOM     11  C   UNL     1       2.781   4.404  20.142  0.00  0.00    +0.000 C 
ENDROOT
BRANCH   1  13
ATOM     12  C   UNL     1       7.265   4.734  17.790  0.00  0.00    +0.000 C 
ATOM     13  S   UNL     1       5.637   5.203  18.325  0.00  0.00    +0.000 S 
ATOM     14  O   UNL     1       5.715   5.448  19.751  0.00  0.00    +0.000 OA
ATOM     15  O   UNL     1       5.176   6.227  17.415  0.00  0.00    +0.000 OA
ENDBRANCH   1  13
BRANCH   9  16
ATOM     16  C   UNL     1       2.531   7.336  19.860  0.00  0.00    +0.000 C 
BRANCH  16  17
ATOM     17  C   UNL     1       1.318   7.359  20.784  0.00  0.00    +0.000 C 
BRANCH  17  18
ATOM     18  N   UNL     1       0.885   8.697  21.139  0.00  0.00    +0.000 N 
ATOM     19  C   UNL     1       1.030   9.265  22.375  0.00  0.00    +0.000 A 
ATOM     20  N   UNL     1       0.694  10.534  22.375  0.00  0.00    +0.000 NA
ATOM     21  C   UNL     1       0.315  10.802  21.083  0.00  0.00    +0.000 A 
ATOM     22  C   UNL     1      -0.104  12.014  20.512  0.00  0.00    +0.000 A 
ATOM     23  C   UNL     1      -0.451  12.037  19.156  0.00  0.00    +0.000 A 
ATOM     24  C   UNL     1      -0.384  10.877  18.384  0.00  0.00    +0.000 A 
ATOM     25  C   UNL     1       0.049   9.662  18.930  0.00  0.00    +0.000 A 
ATOM     26  C   UNL     1       0.398   9.661  20.287  0.00  0.00    +0.000 A 
ENDBRANCH  17  18
ENDBRANCH  16  17
ENDBRANCH   9  16
TORSDOF 4
ENDMDL
MODEL 7
REMARK VINA RESULT:      -7.2      2.975      8.077
REMARK  Name = 
REMARK  5 active torsions:
REMARK  status: ('A' for Active; 'I' for Inactive)
REMARK    1  A    between atoms: C_1  and  S_2
REMARK    2  A    between atoms: S_2  and  N_5
REMARK    3  A    between atoms: C_13  and  C_15
REMARK    4  A    between atoms: C_15  and  C_16
REMARK    5  A    between atoms: C_16  and  N_17
REMARK                            x       y       z     vdW  Elec       q    Type
REMARK                         _______ _______ _______ _____ _____    ______ ____
ROOT
ATOM      1  N   UNL     1      -0.459  11.530  21.157  0.00  0.00    +0.000 NA
ATOM      2  C   UNL     1       0.377  12.731  21.361  0.00  0.00    +0.000 C 
ATOM      3  C   UNL     1       1.146  13.175  20.098  0.00  0.00    +0.000 C 
ATOM      4  C   UNL     1       0.259  14.056  19.196  0.00  0.00    +0.000 C 
ATOM      5  C   UNL     1      -0.565  13.231  18.213  0.00  0.00    +0.000 C 
ATOM      6  C   UNL     1      -0.667  11.759  18.633  0.00  0.00    +0.000 C 
ATOM      7  C   UNL     1      -1.393  11.574  19.995  0.00  0.00    +0.000 C 
ATOM      8  N   UNL     1       0.690  11.182  18.648  0.00  0.00    +0.000 N 
ATOM      9  C   UNL     1       0.877   9.912  18.119  0.00  0.00    +0.000 C 
ATOM     10  O   UNL     1      -0.039   9.302  17.564  0.00  0.00    +0.000 OA
ATOM     11  C   UNL     1       1.732  12.007  19.278  0.00  0.00    +0.000 C 
ENDROOT
BRANCH   1  13
ATOM     12  C   UNL     1      -0.529   9.873  23.293  0.00  0.00    +0.000 C 
ATOM     13  S   UNL     1       0.151  10.024  21.658  0.00  0.00    +0.000 S 
ATOM     14  O   UNL     1       1.588  10.143  21.807  0.00  0.00    +0.000 OA
ATOM     15  O   UNL     1      -0.433   8.969  20.862  0.00  0.00    +0.000 OA
ENDBRANCH   1  13
BRANCH   9  16
ATOM     16  C   UNL     1       2.253   9.284  18.255  0.00  0.00    +0.000 C 
BRANCH  16  17
ATOM     17  C   UNL     1       2.111   7.865  18.795  0.00  0.00    +0.000 C 
BRANCH  17  18
ATOM     18  N   UNL     1       2.910   6.888  18.079  0.00  0.00    +0.000 N 
ATOM     19  C   UNL     1       4.126   7.141  17.506  0.00  0.00    +0.000 A 
ATOM     20  N   UNL     1       4.696   6.044  17.061  0.00  0.00    +0.000 NA
ATOM     21  C   UNL     1       3.811   5.037  17.359  0.00  0.00    +0.000 A 
ATOM     22  C   UNL     1       3.930   3.656  17.140  0.00  0.00    +0.000 A 
ATOM     23  C   UNL     1       2.877   2.818  17.528  0.00  0.00    +0.000 A 
ATOM     24  C   UNL     1       1.729   3.345  18.121  0.00  0.00    +0.000 A 
ATOM     25  C   UNL     1       1.599   4.718  18.365  0.00  0.00    +0.000 A 
ATOM     26  C   UNL     1       2.666   5.538  17.976  0.00  0.00    +0.000 A 
ENDBRANCH  17  18
ENDBRANCH  16  17
ENDBRANCH   9  16
TORSDOF 4
ENDMDL
MODEL 8
REMARK VINA RESULT:      -7.1      2.139      3.372
REMARK  Name = 
REMARK  5 active torsions:
REMARK  status: ('A' for Active; 'I' for Inactive)
REMARK    1  A    between atoms: C_1  and  S_2
REMARK    2  A    between atoms: S_2  and  N_5
REMARK    3  A    between atoms: C_13  and  C_15
REMARK    4  A    between atoms: C_15  and  C_16
REMARK    5  A    between atoms: C_16  and  N_17
REMARK                            x       y       z     vdW  Elec       q    Type
REMARK                         _______ _______ _______ _____ _____    ______ ____
ROOT
ATOM      1  N   UNL     1       3.103   3.414  18.755  0.00  0.00    +0.000 NA
ATOM      2  C   UNL     1       3.908   3.202  17.535  0.00  0.00    +0.000 C 
ATOM      3  C   UNL     1       4.660   4.464  17.059  0.00  0.00    +0.000 C 
ATOM      4  C   UNL     1       5.998   4.621  17.807  0.00  0.00    +0.000 C 
ATOM      5  C   UNL     1       5.844   5.397  19.111  0.00  0.00    +0.000 C 
ATOM      6  C   UNL     1       4.387   5.444  19.589  0.00  0.00    +0.000 C 
ATOM      7  C   UNL     1       3.816   4.034  19.909  0.00  0.00    +0.000 C 
ATOM      8  N   UNL     1       3.584   6.147  18.573  0.00  0.00    +0.000 N 
ATOM      9  C   UNL     1       2.636   7.069  18.997  0.00  0.00    +0.000 C 
ATOM     10  O   UNL     1       2.516   7.371  20.185  0.00  0.00    +0.000 OA
ATOM     11  C   UNL     1       3.838   5.765  17.176  0.00  0.00    +0.000 C 
ENDROOT
BRANCH   1  13
ATOM     12  C   UNL     1       0.775   2.039  18.701  0.00  0.00    +0.000 C 
ATOM     13  S   UNL     1       1.433   3.685  18.586  0.00  0.00    +0.000 S 
ATOM     14  O   UNL     1       1.182   4.147  17.235  0.00  0.00    +0.000 OA
ATOM     15  O   UNL     1       0.937   4.416  19.730  0.00  0.00    +0.000 OA
ENDBRANCH   1  13
BRANCH   9  16
ATOM     16  C   UNL     1       1.734   7.692  17.945  0.00  0.00    +0.000 C 
BRANCH  16  17
ATOM     17  C   UNL     1       1.863   9.210  18.002  0.00  0.00    +0.000 C 
BRANCH  17  18
ATOM     18  N   UNL     1       0.606   9.891  18.249  0.00  0.00    +0.000 N 
ATOM     19  C   UNL     1      -0.563   9.641  17.583  0.00  0.00    +0.000 A 
ATOM     20  N   UNL     1      -1.577  10.287  18.112  0.00  0.00    +0.000 NA
ATOM     21  C   UNL     1      -1.043  10.985  19.167  0.00  0.00    +0.000 A 
ATOM     22  C   UNL     1      -1.685  11.814  20.101  0.00  0.00    +0.000 A 
ATOM     23  C   UNL     1      -0.916  12.432  21.095  0.00  0.00    +0.000 A 
ATOM     24  C   UNL     1       0.463  12.230  21.157  0.00  0.00    +0.000 A 
ATOM     25  C   UNL     1       1.120  11.392  20.246  0.00  0.00    +0.000 A 
ATOM     26  C   UNL     1       0.332  10.778  19.264  0.00  0.00    +0.000 A 
ENDBRANCH  17  18
ENDBRANCH  16  17
ENDBRANCH   9  16
TORSDOF 4
ENDMDL
MODEL 9
REMARK VINA RESULT:      -7.0      1.889      3.193
REMARK  Name = 
REMARK  5 active torsions:
REMARK  status: ('A' for Active; 'I' for Inactive)
REMARK    1  A    between atoms: C_1  and  S_2
REMARK    2  A    between atoms: S_2  and  N_5
REMARK    3  A    between atoms: C_13  and  C_15
REMARK    4  A    between atoms: C_15  and  C_16
REMARK    5  A    between atoms: C_16  and  N_17
REMARK                            x       y       z     vdW  Elec       q    Type
REMARK                         _______ _______ _______ _____ _____    ______ ____
ROOT
ATOM      1  N   UNL     1       3.083   3.256  18.651  0.00  0.00    +0.000 NA
ATOM      2  C   UNL     1       3.808   3.161  17.367  0.00  0.00    +0.000 C 
ATOM      3  C   UNL     1       4.558   4.455  16.979  0.00  0.00    +0.000 C 
ATOM      4  C   UNL     1       5.942   4.510  17.654  0.00  0.00    +0.000 C 
ATOM      5  C   UNL     1       5.884   5.146  19.040  0.00  0.00    +0.000 C 
ATOM      6  C   UNL     1       4.461   5.166  19.611  0.00  0.00    +0.000 C 
ATOM      7  C   UNL     1       3.878   3.739  19.817  0.00  0.00    +0.000 C 
ATOM      8  N   UNL     1       3.613   5.985  18.726  0.00  0.00    +0.000 N 
ATOM      9  C   UNL     1       2.713   6.871  19.302  0.00  0.00    +0.000 C 
ATOM     10  O   UNL     1       2.672   7.047  20.521  0.00  0.00    +0.000 OA
ATOM     11  C   UNL     1       3.773   5.748  17.283  0.00  0.00    +0.000 C 
ENDROOT
BRANCH   1  13
ATOM     12  C   UNL     1       0.725   1.931  18.660  0.00  0.00    +0.000 C 
ATOM     13  S   UNL     1       1.412   3.569  18.616  0.00  0.00    +0.000 S 
ATOM     14  O   UNL     1       1.083   4.131  17.321  0.00  0.00    +0.000 OA
ATOM     15  O   UNL     1       1.011   4.225  19.839  0.00  0.00    +0.000 OA
ENDBRANCH   1  13
BRANCH   9  16
ATOM     16  C   UNL     1       1.763   7.616  18.380  0.00  0.00    +0.000 C 
BRANCH  16  17
ATOM     17  C   UNL     1       2.032   9.114  18.477  0.00  0.00    +0.000 C 
BRANCH  17  18
ATOM     18  N   UNL     1       0.948   9.860  19.085  0.00  0.00    +0.000 N 
ATOM     19  C   UNL     1      -0.019  10.538  18.395  0.00  0.00    +0.000 A 
ATOM     20  N   UNL     1      -0.962  10.992  19.189  0.00  0.00    +0.000 NA
ATOM     21  C   UNL     1      -0.591  10.590  20.449  0.00  0.00    +0.000 A 
ATOM     22  C   UNL     1      -1.254  10.773  21.672  0.00  0.00    +0.000 A 
ATOM     23  C   UNL     1      -0.666  10.273  22.840  0.00  0.00    +0.000 A 
ATOM     24  C   UNL     1       0.559   9.605  22.791  0.00  0.00    +0.000 A 
ATOM     25  C   UNL     1       1.228   9.397  21.579  0.00  0.00    +0.000 A 
ATOM     26  C   UNL     1       0.620   9.899  20.421  0.00  0.00    +0.000 A 
ENDBRANCH  17  18
ENDBRANCH  16  17
ENDBRANCH   9  16
TORSDOF 4
ENDMDL
