MODEL 1
REMARK VINA RESULT:      -6.9      0.000      0.000
REMARK  Name = 
REMARK  7 active torsions:
REMARK  status: ('A' for Active; 'I' for Inactive)
REMARK    1  A    between atoms: CG_2  and  OD2_3
REMARK    2  A    between atoms: CG_2  and  CB_4
REMARK    3  A    between atoms: CB_4  and  CA_5
REMARK    4  A    between atoms: CA_5  and  N_6
REMARK    5  A    between atoms: CA_5  and  C_15
REMARK    6  A    between atoms: C_7  and  C_9
REMARK    7  A    between atoms: C_15  and  OXT_17
REMARK                            x       y       z     vdW  Elec       q    Type
REMARK                         _______ _______ _______ _____ _____    ______ ____
ROOT
ATOM      1  CA  ASP A   1       6.060   6.336  16.833  0.00  0.00    +0.000 C 
ENDROOT
BRANCH   1   2
ATOM      2  N   ASP A   1       5.008   5.617  17.559  0.00  0.00    +0.000 N 
ATOM      3  C   UNK A   0       3.818   6.214  17.895  0.00  0.00    +0.000 C 
ATOM      4  O   UNK A   0       3.562   7.379  17.619  0.00  0.00    +0.000 OA
ATOM      5  H   ASP A   1       5.124   4.611  17.648  0.00  0.00    +0.000 HD
BRANCH   3   6
ATOM      6  C   UNK A   0       2.821   5.359  18.596  0.00  0.00    +0.000 A 
ATOM      7  C   UNK A   0       2.469   5.577  19.935  0.00  0.00    +0.000 A 
ATOM      8  C   UNK A   0       1.534   4.745  20.554  0.00  0.00    +0.000 A 
ATOM      9  C   UNK A   0       0.944   3.702  19.840  0.00  0.00    +0.000 A 
ATOM     10  C   UNK A   0       1.272   3.498  18.501  0.00  0.00    +0.000 A 
ATOM     11  C   UNK A   0       2.205   4.327  17.876  0.00  0.00    +0.000 A 
ENDBRANCH   3   6
ENDBRANCH   1   2
BRANCH   1  12
ATOM     12  C   ASP A   1       6.415   5.488  15.603  0.00  0.00    +0.000 C 
ATOM     13  O   ASP A   1       7.555   5.394  15.163  0.00  0.00    +0.000 OA
BRANCH  12  14
ATOM     14  OXT ASP A   1       5.369   4.862  15.022  0.00  0.00    +0.000 OA
ATOM     15  HXT ASP A   1       4.694   4.509  15.653  0.00  0.00    +0.000 HD
ENDBRANCH  12  14
ENDBRANCH   1  12
BRANCH   1  16
ATOM     16  CB  ASP A   1       7.295   6.532  17.712  0.00  0.00    +0.000 C 
BRANCH  16  18
ATOM     17  OD1 ASP A   1       7.159   5.473  19.864  0.00  0.00    +0.000 OA
ATOM     18  CG  ASP A   1       7.420   5.385  18.670  0.00  0.00    +0.000 C 
BRANCH  18  19
ATOM     19  OD2 ASP A   1       7.882   4.253  18.106  0.00  0.00    +0.000 OA
ATOM     20  HD2 ASP A   1       7.487   3.431  18.460  0.00  0.00    +0.000 HD
ENDBRANCH  18  19
ENDBRANCH  16  18
ENDBRANCH   1  16
TORSDOF 7
ENDMDL
MODEL 2
REMARK VINA RESULT:      -6.9      0.113      1.098
REMARK  Name = 
REMARK  7 active torsions:
REMARK  status: ('A' for Active; 'I' for Inactive)
REMARK    1  A    between atoms: CG_2  and  OD2_3
REMARK    2  A    between atoms: CG_2  and  CB_4
REMARK    3  A    between atoms: CB_4  and  CA_5
REMARK    4  A    between atoms: CA_5  and  N_6
REMARK    5  A    between atoms: CA_5  and  C_15
REMARK    6  A    between atoms: C_7  and  C_9
REMARK    7  A    between atoms: C_15  and  OXT_17
REMARK                            x       y       z     vdW  Elec       q    Type
REMARK                         _______ _______ _______ _____ _____    ______ ____
ROOT
ATOM      1  CA  ASP A   1       5.976   6.389  16.876  0.00  0.00    +0.000 C 
ENDROOT
BRANCH   1   2
ATOM      2  N   ASP A   1       4.947   5.653  17.618  0.00  0.00    +0.000 N 
ATOM      3  C   UNK A   0       3.734   6.215  17.930  0.00  0.00    +0.000 C 
ATOM      4  O   UNK A   0       3.436   7.361  17.617  0.00  0.00    +0.000 OA
ATOM      5  H   ASP A   1       5.099   4.655  17.738  0.00  0.00    +0.000 HD
BRANCH   3   6
ATOM      6  C   UNK A   0       2.765   5.345  18.653  0.00  0.00    +0.000 A 
ATOM      7  C   UNK A   0       2.450   5.548  20.002  0.00  0.00    +0.000 A 
ATOM      8  C   UNK A   0       1.541   4.702  20.641  0.00  0.00    +0.000 A 
ATOM      9  C   UNK A   0       0.939   3.661  19.935  0.00  0.00    +0.000 A 
ATOM     10  C   UNK A   0       1.230   3.471  18.585  0.00  0.00    +0.000 A 
ATOM     11  C   UNK A   0       2.137   4.314  17.941  0.00  0.00    +0.000 A 
ENDBRANCH   3   6
ENDBRANCH   1   2
BRANCH   1  12
ATOM     12  C   ASP A   1       6.290   5.569  15.616  0.00  0.00    +0.000 C 
ATOM     13  O   ASP A   1       5.436   4.942  14.997  0.00  0.00    +0.000 OA
BRANCH  12  14
ATOM     14  OXT ASP A   1       7.588   5.570  15.243  0.00  0.00    +0.000 OA
ATOM     15  HXT ASP A   1       7.763   5.189  14.347  0.00  0.00    +0.000 HD
ENDBRANCH  12  14
ENDBRANCH   1  12
BRANCH   1  16
ATOM     16  CB  ASP A   1       7.238   6.564  17.719  0.00  0.00    +0.000 C 
BRANCH  16  18
ATOM     17  OD1 ASP A   1       7.951   4.310  18.145  0.00  0.00    +0.000 OA
ATOM     18  CG  ASP A   1       7.452   5.346  18.568  0.00  0.00    +0.000 C 
BRANCH  18  19
ATOM     19  OD2 ASP A   1       7.011   5.480  19.833  0.00  0.00    +0.000 OA
ATOM     20  HD2 ASP A   1       7.717   5.573  20.503  0.00  0.00    +0.000 HD
ENDBRANCH  18  19
ENDBRANCH  16  18
ENDBRANCH   1  16
TORSDOF 7
ENDMDL
MODEL 3
REMARK VINA RESULT:      -6.9      0.395      1.457
REMARK  Name = 
REMARK  7 active torsions:
REMARK  status: ('A' for Active; 'I' for Inactive)
REMARK    1  A    between atoms: CG_2  and  OD2_3
REMARK    2  A    between atoms: CG_2  and  CB_4
REMARK    3  A    between atoms: CB_4  and  CA_5
REMARK    4  A    between atoms: CA_5  and  N_6
REMARK    5  A    between atoms: CA_5  and  C_15
REMARK    6  A    between atoms: C_7  and  C_9
REMARK    7  A    between atoms: C_15  and  OXT_17
REMARK                            x       y       z     vdW  Elec       q    Type
REMARK                         _______ _______ _______ _____ _____    ______ ____
ROOT
ATOM      1  CA  ASP A   1       5.859   6.061  16.500  0.00  0.00    +0.000 C 
ENDROOT
BRANCH   1   2
ATOM      2  N   ASP A   1       4.825   5.313  17.224  0.00  0.00    +0.000 N 
ATOM      3  C   UNK A   0       3.732   5.933  17.778  0.00  0.00    +0.000 C 
ATOM      4  O   UNK A   0       3.554   7.142  17.710  0.00  0.00    +0.000 OA
ATOM      5  H   ASP A   1       4.859   4.300  17.147  0.00  0.00    +0.000 HD
BRANCH   3   6
ATOM      6  C   UNK A   0       2.739   5.051  18.451  0.00  0.00    +0.000 A 
ATOM      7  C   UNK A   0       2.174   3.944  17.805  0.00  0.00    +0.000 A 
ATOM      8  C   UNK A   0       1.240   3.148  18.474  0.00  0.00    +0.000 A 
ATOM      9  C   UNK A   0       0.876   3.450  19.786  0.00  0.00    +0.000 A 
ATOM     10  C   UNK A   0       1.455   4.535  20.441  0.00  0.00    +0.000 A 
ATOM     11  C   UNK A   0       2.389   5.333  19.778  0.00  0.00    +0.000 A 
ENDBRANCH   3   6
ENDBRANCH   1   2
BRANCH   1  12
ATOM     12  C   ASP A   1       6.241   5.221  15.272  0.00  0.00    +0.000 C 
ATOM     13  O   ASP A   1       5.436   4.525  14.664  0.00  0.00    +0.000 OA
BRANCH  12  14
ATOM     14  OXT ASP A   1       7.542   5.289  14.918  0.00  0.00    +0.000 OA
ATOM     15  HXT ASP A   1       8.126   5.754  15.568  0.00  0.00    +0.000 HD
ENDBRANCH  12  14
ENDBRANCH   1  12
BRANCH   1  16
ATOM     16  CB  ASP A   1       7.084   6.293  17.382  0.00  0.00    +0.000 C 
BRANCH  16  18
ATOM     17  OD1 ASP A   1       6.842   5.159  19.486  0.00  0.00    +0.000 OA
ATOM     18  CG  ASP A   1       7.249   5.143  18.331  0.00  0.00    +0.000 C 
BRANCH  18  19
ATOM     19  OD2 ASP A   1       7.921   4.099  17.808  0.00  0.00    +0.000 OA
ATOM     20  HD2 ASP A   1       8.578   4.338  17.125  0.00  0.00    +0.000 HD
ENDBRANCH  18  19
ENDBRANCH  16  18
ENDBRANCH   1  16
TORSDOF 7
ENDMDL
MODEL 4
REMARK VINA RESULT:      -6.9      0.488      1.484
REMARK  Name = 
REMARK  7 active torsions:
REMARK  status: ('A' for Active; 'I' for Inactive)
REMARK    1  A    between atoms: CG_2  and  OD2_3
REMARK    2  A    between atoms: CG_2  and  CB_4
REMARK    3  A    between atoms: CB_4  and  CA_5
REMARK    4  A    between atoms: CA_5  and  N_6
REMARK    5  A    between atoms: CA_5  and  C_15
REMARK    6  A    between atoms: C_7  and  C_9
REMARK    7  A    between atoms: C_15  and  OXT_17
REMARK                            x       y       z     vdW  Elec       q    Type
REMARK                         _______ _______ _______ _____ _____    ______ ____
ROOT
ATOM      1  CA  ASP A   1       6.138   5.995  16.703  0.00  0.00    +0.000 C 
ENDROOT
BRANCH   1   2
ATOM      2  N   ASP A   1       5.059   5.322  17.435  0.00  0.00    +0.000 N 
ATOM      3  C   UNK A   0       3.910   5.979  17.802  0.00  0.00    +0.000 C 
ATOM      4  O   UNK A   0       3.716   7.161  17.551  0.00  0.00    +0.000 OA
ATOM      5  H   ASP A   1       5.120   4.310  17.504  0.00  0.00    +0.000 HD
BRANCH   3   6
ATOM      6  C   UNK A   0       2.879   5.168  18.505  0.00  0.00    +0.000 A 
ATOM      7  C   UNK A   0       2.206   4.114  17.873  0.00  0.00    +0.000 A 
ATOM      8  C   UNK A   0       1.240   3.385  18.570  0.00  0.00    +0.000 A 
ATOM      9  C   UNK A   0       0.951   3.698  19.898  0.00  0.00    +0.000 A 
ATOM     10  C   UNK A   0       1.637   4.728  20.540  0.00  0.00    +0.000 A 
ATOM     11  C   UNK A   0       2.603   5.460  19.848  0.00  0.00    +0.000 A 
ENDBRANCH   3   6
ENDBRANCH   1   2
BRANCH   1  12
ATOM     12  C   ASP A   1       6.689   4.983  15.688  0.00  0.00    +0.000 C 
ATOM     13  O   ASP A   1       7.448   5.297  14.777  0.00  0.00    +0.000 OA
BRANCH  12  14
ATOM     14  OXT ASP A   1       6.260   3.714  15.858  0.00  0.00    +0.000 OA
ATOM     15  HXT ASP A   1       6.257   3.163  15.037  0.00  0.00    +0.000 HD
ENDBRANCH  12  14
ENDBRANCH   1  12
BRANCH   1  16
ATOM     16  CB  ASP A   1       7.246   6.444  17.654  0.00  0.00    +0.000 C 
BRANCH  16  18
ATOM     17  OD1 ASP A   1       8.140   4.313  18.310  0.00  0.00    +0.000 OA
ATOM     18  CG  ASP A   1       7.556   5.343  18.625  0.00  0.00    +0.000 C 
BRANCH  18  19
ATOM     19  OD2 ASP A   1       7.101   5.572  19.871  0.00  0.00    +0.000 OA
ATOM     20  HD2 ASP A   1       6.482   4.895  20.210  0.00  0.00    +0.000 HD
ENDBRANCH  18  19
ENDBRANCH  16  18
ENDBRANCH   1  16
TORSDOF 7
ENDMDL
MODEL 5
REMARK VINA RESULT:      -6.8      1.172      1.620
REMARK  Name = 
REMARK  7 active torsions:
REMARK  status: ('A' for Active; 'I' for Inactive)
REMARK    1  A    between atoms: CG_2  and  OD2_3
REMARK    2  A    between atoms: CG_2  and  CB_4
REMARK    3  A    between atoms: CB_4  and  CA_5
REMARK    4  A    between atoms: CA_5  and  N_6
REMARK    5  A    between atoms: CA_5  and  C_15
REMARK    6  A    between atoms: C_7  and  C_9
REMARK    7  A    between atoms: C_15  and  OXT_17
REMARK                            x       y       z     vdW  Elec       q    Type
REMARK                         _______ _______ _______ _____ _____    ______ ____
ROOT
ATOM      1  CA  ASP A   1       6.210   5.714  16.173  0.00  0.00    +0.000 C 
ENDROOT
BRANCH   1   2
ATOM      2  N   ASP A   1       5.262   4.777  16.785  0.00  0.00    +0.000 N 
ATOM      3  C   UNK A   0       4.074   5.197  17.332  0.00  0.00    +0.000 C 
ATOM      4  O   UNK A   0       3.735   6.373  17.350  0.00  0.00    +0.000 OA
ATOM      5  H   ASP A   1       5.438   3.787  16.631  0.00  0.00    +0.000 HD
BRANCH   3   6
ATOM      6  C   UNK A   0       3.187   4.138  17.885  0.00  0.00    +0.000 A 
ATOM      7  C   UNK A   0       1.902   4.424  18.366  0.00  0.00    +0.000 A 
ATOM      8  C   UNK A   0       1.107   3.399  18.883  0.00  0.00    +0.000 A 
ATOM      9  C   UNK A   0       1.585   2.089  18.912  0.00  0.00    +0.000 A 
ATOM     10  C   UNK A   0       2.852   1.795  18.410  0.00  0.00    +0.000 A 
ATOM     11  C   UNK A   0       3.651   2.816  17.892  0.00  0.00    +0.000 A 
ENDBRANCH   3   6
ENDBRANCH   1   2
BRANCH   1  12
ATOM     12  C   ASP A   1       6.877   4.974  15.003  0.00  0.00    +0.000 C 
ATOM     13  O   ASP A   1       7.818   5.440  14.370  0.00  0.00    +0.000 OA
BRANCH  12  14
ATOM     14  OXT ASP A   1       6.338   3.773  14.707  0.00  0.00    +0.000 OA
ATOM     15  HXT ASP A   1       6.610   3.036  15.310  0.00  0.00    +0.000 HD
ENDBRANCH  12  14
ENDBRANCH   1  12
BRANCH   1  16
ATOM     16  CB  ASP A   1       7.265   6.162  17.183  0.00  0.00    +0.000 C 
BRANCH  16  18
ATOM     17  OD1 ASP A   1       8.333   4.097  17.789  0.00  0.00    +0.000 OA
ATOM     18  CG  ASP A   1       7.598   5.026  18.104  0.00  0.00    +0.000 C 
BRANCH  18  19
ATOM     19  OD2 ASP A   1       6.986   5.098  19.301  0.00  0.00    +0.000 OA
ATOM     20  HD2 ASP A   1       7.589   5.223  20.061  0.00  0.00    +0.000 HD
ENDBRANCH  18  19
ENDBRANCH  16  18
ENDBRANCH   1  16
TORSDOF 7
ENDMDL
MODEL 6
REMARK VINA RESULT:      -6.7      0.971      1.840
REMARK  Name = 
REMARK  7 active torsions:
REMARK  status: ('A' for Active; 'I' for Inactive)
REMARK    1  A    between atoms: CG_2  and  OD2_3
REMARK    2  A    between atoms: CG_2  and  CB_4
REMARK    3  A    between atoms: CB_4  and  CA_5
REMARK    4  A    between atoms: CA_5  and  N_6
REMARK    5  A    between atoms: CA_5  and  C_15
REMARK    6  A    between atoms: C_7  and  C_9
REMARK    7  A    between atoms: C_15  and  OXT_17
REMARK                            x       y       z     vdW  Elec       q    Type
REMARK                         _______ _______ _______ _____ _____    ______ ____
ROOT
ATOM      1  CA  ASP A   1       6.129   5.748  16.171  0.00  0.00    +0.000 C 
ENDROOT
BRANCH   1   2
ATOM      2  N   ASP A   1       5.120   4.894  16.807  0.00  0.00    +0.000 N 
ATOM      3  C   UNK A   0       3.987   5.412  17.385  0.00  0.00    +0.000 C 
ATOM      4  O   UNK A   0       3.750   6.613  17.412  0.00  0.00    +0.000 OA
ATOM      5  H   ASP A   1       5.206   3.893  16.649  0.00  0.00    +0.000 HD
BRANCH   3   6
ATOM      6  C   UNK A   0       3.027   4.431  17.960  0.00  0.00    +0.000 A 
ATOM      7  C   UNK A   0       2.975   3.101  17.524  0.00  0.00    +0.000 A 
ATOM      8  C   UNK A   0       2.053   2.217  18.088  0.00  0.00    +0.000 A 
ATOM      9  C   UNK A   0       1.188   2.654  19.091  0.00  0.00    +0.000 A 
ATOM     10  C   UNK A   0       1.253   3.970  19.547  0.00  0.00    +0.000 A 
ATOM     11  C   UNK A   0       2.174   4.858  18.987  0.00  0.00    +0.000 A 
ENDBRANCH   3   6
ENDBRANCH   1   2
BRANCH   1  12
ATOM     12  C   ASP A   1       6.756   4.928  15.034  0.00  0.00    +0.000 C 
ATOM     13  O   ASP A   1       6.338   3.825  14.698  0.00  0.00    +0.000 OA
BRANCH  12  14
ATOM     14  OXT ASP A   1       7.821   5.503  14.437  0.00  0.00    +0.000 OA
ATOM     15  HXT ASP A   1       8.621   4.924  14.367  0.00  0.00    +0.000 HD
ENDBRANCH  12  14
ENDBRANCH   1  12
BRANCH   1  16
ATOM     16  CB  ASP A   1       7.203   6.165  17.174  0.00  0.00    +0.000 C 
BRANCH  16  18
ATOM     17  OD1 ASP A   1       8.285   4.093  17.728  0.00  0.00    +0.000 OA
ATOM     18  CG  ASP A   1       7.541   5.006  18.065  0.00  0.00    +0.000 C 
BRANCH  18  19
ATOM     19  OD2 ASP A   1       6.921   5.039  19.259  0.00  0.00    +0.000 OA
ATOM     20  HD2 ASP A   1       6.039   5.462  19.250  0.00  0.00    +0.000 HD
ENDBRANCH  18  19
ENDBRANCH  16  18
ENDBRANCH   1  16
TORSDOF 7
ENDMDL
MODEL 7
REMARK VINA RESULT:      -6.6      1.076      1.655
REMARK  Name = 
REMARK  7 active torsions:
REMARK  status: ('A' for Active; 'I' for Inactive)
REMARK    1  A    between atoms: CG_2  and  OD2_3
REMARK    2  A    between atoms: CG_2  and  CB_4
REMARK    3  A    between atoms: CB_4  and  CA_5
REMARK    4  A    between atoms: CA_5  and  N_6
REMARK    5  A    between atoms: CA_5  and  C_15
REMARK    6  A    between atoms: C_7  and  C_9
REMARK    7  A    between atoms: C_15  and  OXT_17
REMARK                            x       y       z     vdW  Elec       q    Type
REMARK                         _______ _______ _______ _____ _____    ______ ____
ROOT
ATOM      1  CA  ASP A   1       6.341   5.189  17.030  0.00  0.00    +0.000 C 
ENDROOT
BRANCH   1   2
ATOM      2  N   ASP A   1       5.173   4.596  17.690  0.00  0.00    +0.000 N 
ATOM      3  C   UNK A   0       4.013   5.303  17.888  0.00  0.00    +0.000 C 
ATOM      4  O   UNK A   0       3.880   6.468  17.535  0.00  0.00    +0.000 OA
ATOM      5  H   ASP A   1       5.196   3.590  17.837  0.00  0.00    +0.000 HD
BRANCH   3   6
ATOM      6  C   UNK A   0       2.891   4.569  18.536  0.00  0.00    +0.000 A 
ATOM      7  C   UNK A   0       2.262   3.481  17.917  0.00  0.00    +0.000 A 
ATOM      8  C   UNK A   0       1.208   2.827  18.559  0.00  0.00    +0.000 A 
ATOM      9  C   UNK A   0       0.787   3.249  19.819  0.00  0.00    +0.000 A 
ATOM     10  C   UNK A   0       1.427   4.315  20.451  0.00  0.00    +0.000 A 
ATOM     11  C   UNK A   0       2.481   4.972  19.814  0.00  0.00    +0.000 A 
ENDBRANCH   3   6
ENDBRANCH   1   2
BRANCH   1  12
ATOM     12  C   ASP A   1       6.409   4.588  15.618  0.00  0.00    +0.000 C 
ATOM     13  O   ASP A   1       6.627   5.261  14.616  0.00  0.00    +0.000 OA
BRANCH  12  14
ATOM     14  OXT ASP A   1       6.192   3.258  15.554  0.00  0.00    +0.000 OA
ATOM     15  HXT ASP A   1       6.596   2.735  16.291  0.00  0.00    +0.000 HD
ENDBRANCH  12  14
ENDBRANCH   1  12
BRANCH   1  16
ATOM     16  CB  ASP A   1       7.623   4.874  17.799  0.00  0.00    +0.000 C 
BRANCH  16  18
ATOM     17  OD1 ASP A   1       7.096   5.342  20.096  0.00  0.00    +0.000 OA
ATOM     18  CG  ASP A   1       7.664   5.679  19.064  0.00  0.00    +0.000 C 
BRANCH  18  19
ATOM     19  OD2 ASP A   1       8.354   6.830  18.954  0.00  0.00    +0.000 OA
ATOM     20  HD2 ASP A   1       8.126   7.508  19.620  0.00  0.00    +0.000 HD
ENDBRANCH  18  19
ENDBRANCH  16  18
ENDBRANCH   1  16
TORSDOF 7
ENDMDL
MODEL 8
REMARK VINA RESULT:      -6.6      1.256      1.367
REMARK  Name = 
REMARK  7 active torsions:
REMARK  status: ('A' for Active; 'I' for Inactive)
REMARK    1  A    between atoms: CG_2  and  OD2_3
REMARK    2  A    between atoms: CG_2  and  CB_4
REMARK    3  A    between atoms: CB_4  and  CA_5
REMARK    4  A    between atoms: CA_5  and  N_6
REMARK    5  A    between atoms: CA_5  and  C_15
REMARK    6  A    between atoms: C_7  and  C_9
REMARK    7  A    between atoms: C_15  and  OXT_17
REMARK                            x       y       z     vdW  Elec       q    Type
REMARK                         _______ _______ _______ _____ _____    ______ ____
ROOT
ATOM      1  CA  ASP A   1       6.508   4.991  17.221  0.00  0.00    +0.000 C 
ENDROOT
BRANCH   1   2
ATOM      2  N   ASP A   1       5.296   4.412  17.810  0.00  0.00    +0.000 N 
ATOM      3  C   UNK A   0       4.190   5.175  18.095  0.00  0.00    +0.000 C 
ATOM      4  O   UNK A   0       4.147   6.380  17.885  0.00  0.00    +0.000 OA
ATOM      5  H   ASP A   1       5.242   3.397  17.834  0.00  0.00    +0.000 HD
BRANCH   3   6
ATOM      6  C   UNK A   0       3.013   4.455  18.653  0.00  0.00    +0.000 A 
ATOM      7  C   UNK A   0       2.391   4.860  19.842  0.00  0.00    +0.000 A 
ATOM      8  C   UNK A   0       1.294   4.149  20.332  0.00  0.00    +0.000 A 
ATOM      9  C   UNK A   0       0.810   3.042  19.636  0.00  0.00    +0.000 A 
ATOM     10  C   UNK A   0       1.408   2.651  18.440  0.00  0.00    +0.000 A 
ATOM     11  C   UNK A   0       2.505   3.358  17.945  0.00  0.00    +0.000 A 
ENDBRANCH   3   6
ENDBRANCH   1   2
BRANCH   1  12
ATOM     12  C   ASP A   1       6.697   4.331  15.847  0.00  0.00    +0.000 C 
ATOM     13  O   ASP A   1       7.376   4.828  14.956  0.00  0.00    +0.000 OA
BRANCH  12  14
ATOM     14  OXT ASP A   1       6.041   3.163  15.681  0.00  0.00    +0.000 OA
ATOM     15  HXT ASP A   1       6.622   2.384  15.492  0.00  0.00    +0.000 HD
ENDBRANCH  12  14
ENDBRANCH   1  12
BRANCH   1  16
ATOM     16  CB  ASP A   1       7.726   4.725  18.105  0.00  0.00    +0.000 C 
BRANCH  16  18
ATOM     17  OD1 ASP A   1       8.142   7.015  18.697  0.00  0.00    +0.000 OA
ATOM     18  CG  ASP A   1       7.917   5.867  19.059  0.00  0.00    +0.000 C 
BRANCH  18  19
ATOM     19  OD2 ASP A   1       7.855   5.509  20.355  0.00  0.00    +0.000 OA
ATOM     20  HD2 ASP A   1       7.035   5.042  20.611  0.00  0.00    +0.000 HD
ENDBRANCH  18  19
ENDBRANCH  16  18
ENDBRANCH   1  16
TORSDOF 7
ENDMDL
MODEL 9
REMARK VINA RESULT:      -6.6      3.213      5.742
REMARK  Name = 
REMARK  7 active torsions:
REMARK  status: ('A' for Active; 'I' for Inactive)
REMARK    1  A    between atoms: CG_2  and  OD2_3
REMARK    2  A    between atoms: CG_2  and  CB_4
REMARK    3  A    between atoms: CB_4  and  CA_5
REMARK    4  A    between atoms: CA_5  and  N_6
REMARK    5  A    between atoms: CA_5  and  C_15
REMARK    6  A    between atoms: C_7  and  C_9
REMARK    7  A    between atoms: C_15  and  OXT_17
REMARK                            x       y       z     vdW  Elec       q    Type
REMARK                         _______ _______ _______ _____ _____    ______ ____
ROOT
ATOM      1  CA  ASP A   1       2.373   3.296  19.407  0.00  0.00    +0.000 C 
ENDROOT
BRANCH   1   2
ATOM      2  N   ASP A   1       3.377   4.268  18.962  0.00  0.00    +0.000 N 
ATOM      3  C   UNK A   0       4.720   4.074  19.171  0.00  0.00    +0.000 C 
ATOM      4  O   UNK A   0       5.164   3.088  19.744  0.00  0.00    +0.000 OA
ATOM      5  H   ASP A   1       3.052   5.003  18.338  0.00  0.00    +0.000 HD
BRANCH   3   6
ATOM      6  C   UNK A   0       5.633   5.120  18.633  0.00  0.00    +0.000 A 
ATOM      7  C   UNK A   0       6.901   5.350  19.182  0.00  0.00    +0.000 A 
ATOM      8  C   UNK A   0       7.721   6.347  18.649  0.00  0.00    +0.000 A 
ATOM      9  C   UNK A   0       7.283   7.109  17.566  0.00  0.00    +0.000 A 
ATOM     10  C   UNK A   0       6.033   6.866  17.000  0.00  0.00    +0.000 A 
ATOM     11  C   UNK A   0       5.209   5.870  17.528  0.00  0.00    +0.000 A 
ENDBRANCH   3   6
ENDBRANCH   1   2
BRANCH   1  12
ATOM     12  C   ASP A   1       1.369   3.131  18.257  0.00  0.00    +0.000 C 
ATOM     13  O   ASP A   1       1.501   3.686  17.171  0.00  0.00    +0.000 OA
BRANCH  12  14
ATOM     14  OXT ASP A   1       0.310   2.340  18.533  0.00  0.00    +0.000 OA
ATOM     15  HXT ASP A   1       0.186   1.580  17.912  0.00  0.00    +0.000 HD
ENDBRANCH  12  14
ENDBRANCH   1  12
BRANCH   1  16
ATOM     16  CB  ASP A   1       1.657   3.786  20.665  0.00  0.00    +0.000 C 
BRANCH  16  18
ATOM     17  OD1 ASP A   1       1.030   2.500  22.595  0.00  0.00    +0.000 OA
ATOM     18  CG  ASP A   1       1.896   2.823  21.790  0.00  0.00    +0.000 C 
BRANCH  18  19
ATOM     19  OD2 ASP A   1       3.162   2.372  21.860  0.00  0.00    +0.000 OA
ATOM     20  HD2 ASP A   1       3.751   2.696  21.150  0.00  0.00    +0.000 HD
ENDBRANCH  18  19
ENDBRANCH  16  18
ENDBRANCH   1  16
TORSDOF 7
ENDMDL
