MODEL 1
REMARK VINA RESULT:      -8.0      0.000      0.000
REMARK  Name = 
REMARK  10 active torsions:
REMARK  status: ('A' for Active; 'I' for Inactive)
REMARK    1  A    between atoms: C_1  and  O_2
REMARK    2  A    between atoms: O_2  and  C_3
REMARK    3  A    between atoms: C_6  and  C_7
REMARK    4  A    between atoms: C_7  and  N_8
REMARK    5  A    between atoms: C_9  and  C_11
REMARK    6  A    between atoms: N_14  and  C_15
REMARK    7  A    between atoms: C_21  and  C_22
REMARK    8  A    between atoms: C_23  and  C_24
REMARK    9  A    between atoms: C_28  and  O_29
REMARK   10  A    between atoms: O_29  and  C_30
REMARK                            x       y       z     vdW  Elec       q    Type
REMARK                         _______ _______ _______ _____ _____    ______ ____
ROOT
ATOM      1  C   UNL     1       2.069   7.421  18.479  0.00  0.00    +0.000 C 
ATOM      2  C   UNL     1       1.787   8.753  17.753  0.00  0.00    +0.000 C 
ATOM      3  C   UNL     1       1.778   9.975  18.672  0.00  0.00    +0.000 C 
ATOM      4  N   UNL     1       0.917   9.627  19.795  0.00  0.00    +0.000 N 
ATOM      5  C   UNL     1       1.570   8.684  20.692  0.00  0.00    +0.000 C 
ATOM      6  C   UNL     1       1.632   7.343  19.953  0.00  0.00    +0.000 C 
ENDROOT
BRANCH   4   7
ATOM      7  C   UNL     1       0.072  10.587  20.323  0.00  0.00    +0.000 A 
ATOM      8  N   UNL     1       0.428  11.260  21.450  0.00  0.00    +0.000 NA
ATOM      9  C   UNL     1      -0.360  12.254  21.912  0.00  0.00    +0.000 A 
ATOM     10  N   UNL     1      -1.485  12.731  21.376  0.00  0.00    +0.000 NA
ATOM     11  C   UNL     1      -1.803  12.070  20.257  0.00  0.00    +0.000 A 
ATOM     12  O   UNL     1      -2.903  12.387  19.514  0.00  0.00    +0.000 OA
ATOM     13  C   UNL     1      -2.926  11.543  18.453  0.00  0.00    +0.000 A 
ATOM     14  C   UNL     1      -4.036  11.668  17.485  0.00  0.00    +0.000 C 
ATOM     15  C   UNL     1      -1.852  10.680  18.483  0.00  0.00    +0.000 A 
ATOM     16  C   UNL     1      -1.592   9.664  17.441  0.00  0.00    +0.000 C 
ATOM     17  C   UNL     1      -1.116  11.007  19.672  0.00  0.00    +0.000 A 
ENDBRANCH   4   7
BRANCH   1  19
ATOM     18  N   UNL     1       3.892   5.941  18.989  0.00  0.00    +0.000 N 
ATOM     19  C   UNL     1       3.515   7.028  18.211  0.00  0.00    +0.000 C 
ATOM     20  O   UNL     1       4.215   7.553  17.368  0.00  0.00    +0.000 OA
ATOM     21  H   UNL     1       3.246   5.600  19.686  0.00  0.00    +0.000 HD
BRANCH  18  22
ATOM     22  C   UNL     1       5.171   5.243  18.921  0.00  0.00    +0.000 C 
BRANCH  22  26
ATOM     23  C   UNL     1       6.455   4.257  14.883  0.00  0.00    +0.000 A 
ATOM     24  C   UNL     1       5.244   3.782  15.375  0.00  0.00    +0.000 A 
ATOM     25  C   UNL     1       4.835   4.089  16.674  0.00  0.00    +0.000 A 
ATOM     26  C   UNL     1       5.623   4.896  17.513  0.00  0.00    +0.000 A 
ATOM     27  C   UNL     1       6.852   5.381  17.008  0.00  0.00    +0.000 A 
ATOM     28  C   UNL     1       7.259   5.048  15.703  0.00  0.00    +0.000 A 
BRANCH  23  30
ATOM     29  C   UNL     1       5.625   3.574  12.757  0.00  0.00    +0.000 C 
ATOM     30  O   UNL     1       6.729   3.887  13.596  0.00  0.00    +0.000 OA
ENDBRANCH  23  30
BRANCH  27  31
ATOM     31  O   UNL     1       7.585   6.189  17.846  0.00  0.00    +0.000 OA
ATOM     32  C   UNL     1       7.614   7.583  17.543  0.00  0.00    +0.000 C 
ENDBRANCH  27  31
ENDBRANCH  22  26
ENDBRANCH  18  22
ENDBRANCH   1  19
TORSDOF 6
ENDMDL
MODEL 2
REMARK VINA RESULT:      -8.0      0.865      1.723
REMARK  Name = 
REMARK  10 active torsions:
REMARK  status: ('A' for Active; 'I' for Inactive)
REMARK    1  A    between atoms: C_1  and  O_2
REMARK    2  A    between atoms: O_2  and  C_3
REMARK    3  A    between atoms: C_6  and  C_7
REMARK    4  A    between atoms: C_7  and  N_8
REMARK    5  A    between atoms: C_9  and  C_11
REMARK    6  A    between atoms: N_14  and  C_15
REMARK    7  A    between atoms: C_21  and  C_22
REMARK    8  A    between atoms: C_23  and  C_24
REMARK    9  A    between atoms: C_28  and  O_29
REMARK   10  A    between atoms: O_29  and  C_30
REMARK                            x       y       z     vdW  Elec       q    Type
REMARK                         _______ _______ _______ _____ _____    ______ ____
ROOT
ATOM      1  C   UNL     1       2.062   7.415  18.578  0.00  0.00    +0.000 C 
ATOM      2  C   UNL     1       1.739   8.720  17.820  0.00  0.00    +0.000 C 
ATOM      3  C   UNL     1       1.728   9.969  18.701  0.00  0.00    +0.000 C 
ATOM      4  N   UNL     1       0.897   9.640  19.852  0.00  0.00    +0.000 N 
ATOM      5  C   UNL     1       1.587   8.737  20.763  0.00  0.00    +0.000 C 
ATOM      6  C   UNL     1       1.658   7.375  20.064  0.00  0.00    +0.000 C 
ENDROOT
BRANCH   4   7
ATOM      7  C   UNL     1       0.046  10.600  20.370  0.00  0.00    +0.000 A 
ATOM      8  N   UNL     1       0.388  11.273  21.502  0.00  0.00    +0.000 NA
ATOM      9  C   UNL     1      -0.405  12.268  21.953  0.00  0.00    +0.000 A 
ATOM     10  N   UNL     1      -1.523  12.745  21.403  0.00  0.00    +0.000 NA
ATOM     11  C   UNL     1      -1.827  12.084  20.280  0.00  0.00    +0.000 A 
ATOM     12  O   UNL     1      -2.917  12.402  19.523  0.00  0.00    +0.000 OA
ATOM     13  C   UNL     1      -2.927  11.559  18.461  0.00  0.00    +0.000 A 
ATOM     14  C   UNL     1      -4.024  11.685  17.479  0.00  0.00    +0.000 C 
ATOM     15  C   UNL     1      -1.854  10.695  18.505  0.00  0.00    +0.000 A 
ATOM     16  C   UNL     1      -1.581   9.678  17.466  0.00  0.00    +0.000 C 
ATOM     17  C   UNL     1      -1.133  11.022  19.703  0.00  0.00    +0.000 A 
ENDBRANCH   4   7
BRANCH   1  19
ATOM     18  N   UNL     1       3.896   5.929  19.029  0.00  0.00    +0.000 N 
ATOM     19  C   UNL     1       3.508   7.041  18.291  0.00  0.00    +0.000 C 
ATOM     20  O   UNL     1       4.202   7.598  17.464  0.00  0.00    +0.000 OA
ATOM     21  H   UNL     1       3.254   5.561  19.716  0.00  0.00    +0.000 HD
BRANCH  18  22
ATOM     22  C   UNL     1       5.177   5.241  18.932  0.00  0.00    +0.000 C 
BRANCH  22  26
ATOM     23  C   UNL     1       6.294   4.054  14.898  0.00  0.00    +0.000 A 
ATOM     24  C   UNL     1       7.133   4.866  15.653  0.00  0.00    +0.000 A 
ATOM     25  C   UNL     1       6.771   5.256  16.944  0.00  0.00    +0.000 A 
ATOM     26  C   UNL     1       5.564   4.829  17.521  0.00  0.00    +0.000 A 
ATOM     27  C   UNL     1       4.714   3.999  16.752  0.00  0.00    +0.000 A 
ATOM     28  C   UNL     1       5.085   3.629  15.446  0.00  0.00    +0.000 A 
BRANCH  23  30
ATOM     29  C   UNL     1       5.819   3.510  12.628  0.00  0.00    +0.000 C 
ATOM     30  O   UNL     1       6.773   3.742  13.656  0.00  0.00    +0.000 OA
ENDBRANCH  23  30
BRANCH  27  31
ATOM     31  O   UNL     1       3.553   3.578  17.357  0.00  0.00    +0.000 OA
ATOM     32  C   UNL     1       3.539   2.251  17.884  0.00  0.00    +0.000 C 
ENDBRANCH  27  31
ENDBRANCH  22  26
ENDBRANCH  18  22
ENDBRANCH   1  19
TORSDOF 6
ENDMDL
MODEL 3
REMARK VINA RESULT:      -7.6      2.616      4.662
REMARK  Name = 
REMARK  10 active torsions:
REMARK  status: ('A' for Active; 'I' for Inactive)
REMARK    1  A    between atoms: C_1  and  O_2
REMARK    2  A    between atoms: O_2  and  C_3
REMARK    3  A    between atoms: C_6  and  C_7
REMARK    4  A    between atoms: C_7  and  N_8
REMARK    5  A    between atoms: C_9  and  C_11
REMARK    6  A    between atoms: N_14  and  C_15
REMARK    7  A    between atoms: C_21  and  C_22
REMARK    8  A    between atoms: C_23  and  C_24
REMARK    9  A    between atoms: C_28  and  O_29
REMARK   10  A    between atoms: O_29  and  C_30
REMARK                            x       y       z     vdW  Elec       q    Type
REMARK                         _______ _______ _______ _____ _____    ______ ____
ROOT
ATOM      1  C   UNL     1       0.859  11.134  19.326  0.00  0.00    +0.000 C 
ATOM      2  C   UNL     1      -0.229  10.090  19.652  0.00  0.00    +0.000 C 
ATOM      3  C   UNL     1      -1.542  10.299  18.898  0.00  0.00    +0.000 C 
ATOM      4  N   UNL     1      -1.887  11.704  19.074  0.00  0.00    +0.000 N 
ATOM      5  C   UNL     1      -1.033  12.565  18.268  0.00  0.00    +0.000 C 
ATOM      6  C   UNL     1       0.359  12.529  18.908  0.00  0.00    +0.000 C 
ENDROOT
BRANCH   4   7
ATOM      7  C   UNL     1      -3.211  12.057  19.269  0.00  0.00    +0.000 A 
ATOM      8  N   UNL     1      -4.106  11.923  18.254  0.00  0.00    +0.000 NA
ATOM      9  C   UNL     1      -5.411  12.188  18.475  0.00  0.00    +0.000 A 
ATOM     10  N   UNL     1      -5.998  12.547  19.618  0.00  0.00    +0.000 NA
ATOM     11  C   UNL     1      -5.102  12.651  20.607  0.00  0.00    +0.000 A 
ATOM     12  O   UNL     1      -5.461  12.986  21.880  0.00  0.00    +0.000 OA
ATOM     13  C   UNL     1      -4.329  12.990  22.628  0.00  0.00    +0.000 A 
ATOM     14  C   UNL     1      -4.439  13.337  24.060  0.00  0.00    +0.000 C 
ATOM     15  C   UNL     1      -3.231  12.654  21.865  0.00  0.00    +0.000 A 
ATOM     16  C   UNL     1      -1.861  12.545  22.410  0.00  0.00    +0.000 C 
ATOM     17  C   UNL     1      -3.725  12.443  20.533  0.00  0.00    +0.000 A 
ENDBRANCH   4   7
BRANCH   1  19
ATOM     18  N   UNL     1       1.911   9.119  18.548  0.00  0.00    +0.000 N 
ATOM     19  C   UNL     1       1.863  10.497  18.377  0.00  0.00    +0.000 C 
ATOM     20  O   UNL     1       2.480  11.111  17.529  0.00  0.00    +0.000 OA
ATOM     21  H   UNL     1       1.384   8.709  19.305  0.00  0.00    +0.000 HD
BRANCH  18  22
ATOM     22  C   UNL     1       2.688   8.183  17.744  0.00  0.00    +0.000 C 
BRANCH  22  26
ATOM     23  C   UNL     1       3.402   4.338  19.651  0.00  0.00    +0.000 A 
ATOM     24  C   UNL     1       2.461   5.220  20.170  0.00  0.00    +0.000 A 
ATOM     25  C   UNL     1       2.237   6.458  19.565  0.00  0.00    +0.000 A 
ATOM     26  C   UNL     1       2.942   6.841  18.411  0.00  0.00    +0.000 A 
ATOM     27  C   UNL     1       3.896   5.940  17.883  0.00  0.00    +0.000 A 
ATOM     28  C   UNL     1       4.122   4.703  18.514  0.00  0.00    +0.000 A 
BRANCH  23  30
ATOM     29  C   UNL     1       4.269   2.121  19.728  0.00  0.00    +0.000 C 
ATOM     30  O   UNL     1       3.514   3.160  20.336  0.00  0.00    +0.000 OA
ENDBRANCH  23  30
BRANCH  27  31
ATOM     31  O   UNL     1       4.548   6.335  16.738  0.00  0.00    +0.000 OA
ATOM     32  C   UNL     1       5.953   6.565  16.838  0.00  0.00    +0.000 C 
ENDBRANCH  27  31
ENDBRANCH  22  26
ENDBRANCH  18  22
ENDBRANCH   1  19
TORSDOF 6
ENDMDL
MODEL 4
REMARK VINA RESULT:      -7.6      3.981      5.573
REMARK  Name = 
REMARK  10 active torsions:
REMARK  status: ('A' for Active; 'I' for Inactive)
REMARK    1  A    between atoms: C_1  and  O_2
REMARK    2  A    between atoms: O_2  and  C_3
REMARK    3  A    between atoms: C_6  and  C_7
REMARK    4  A    between atoms: C_7  and  N_8
REMARK    5  A    between atoms: C_9  and  C_11
REMARK    6  A    between atoms: N_14  and  C_15
REMARK    7  A    between atoms: C_21  and  C_22
REMARK    8  A    between atoms: C_23  and  C_24
REMARK    9  A    between atoms: C_28  and  O_29
REMARK   10  A    between atoms: O_29  and  C_30
REMARK                            x       y       z     vdW  Elec       q    Type
REMARK                         _______ _______ _______ _____ _____    ______ ____
ROOT
ATOM      1  C   UNL     1       0.199  11.528  20.560  0.00  0.00    +0.000 C 
ATOM      2  C   UNL     1       0.871  11.518  19.170  0.00  0.00    +0.000 C 
ATOM      3  C   UNL     1       2.080  12.445  19.054  0.00  0.00    +0.000 C 
ATOM      4  N   UNL     1       1.650  13.734  19.581  0.00  0.00    +0.000 N 
ATOM      5  C   UNL     1       1.539  13.702  21.033  0.00  0.00    +0.000 C 
ATOM      6  C   UNL     1       0.318  12.836  21.363  0.00  0.00    +0.000 C 
ENDROOT
BRANCH   4   7
ATOM      7  C   UNL     1       2.077  14.895  18.962  0.00  0.00    +0.000 A 
ATOM      8  N   UNL     1       3.342  14.977  18.467  0.00  0.00    +0.000 NA
ATOM      9  C   UNL     1       3.724  16.080  17.789  0.00  0.00    +0.000 A 
ATOM     10  N   UNL     1       2.993  17.152  17.479  0.00  0.00    +0.000 NA
ATOM     11  C   UNL     1       1.748  17.040  17.956  0.00  0.00    +0.000 A 
ATOM     12  O   UNL     1       0.802  18.002  17.750  0.00  0.00    +0.000 OA
ATOM     13  C   UNL     1      -0.339  17.576  18.346  0.00  0.00    +0.000 A 
ATOM     14  C   UNL     1      -1.530  18.449  18.281  0.00  0.00    +0.000 C 
ATOM     15  C   UNL     1      -0.160  16.342  18.934  0.00  0.00    +0.000 A 
ATOM     16  C   UNL     1      -1.235  15.607  19.635  0.00  0.00    +0.000 C 
ATOM     17  C   UNL     1       1.211  15.987  18.696  0.00  0.00    +0.000 A 
ENDBRANCH   4   7
BRANCH   1  19
ATOM     18  N   UNL     1       0.853   9.219  20.427  0.00  0.00    +0.000 N 
ATOM     19  C   UNL     1       0.625  10.271  21.305  0.00  0.00    +0.000 C 
ATOM     20  O   UNL     1       0.816  10.226  22.504  0.00  0.00    +0.000 OA
ATOM     21  H   UNL     1       0.631   9.351  19.450  0.00  0.00    +0.000 HD
BRANCH  18  22
ATOM     22  C   UNL     1       1.364   7.901  20.784  0.00  0.00    +0.000 C 
BRANCH  22  26
ATOM     23  C   UNL     1       3.726   5.988  17.671  0.00  0.00    +0.000 A 
ATOM     24  C   UNL     1       3.383   7.331  17.572  0.00  0.00    +0.000 A 
ATOM     25  C   UNL     1       2.617   7.944  18.565  0.00  0.00    +0.000 A 
ATOM     26  C   UNL     1       2.185   7.230  19.695  0.00  0.00    +0.000 A 
ATOM     27  C   UNL     1       2.540   5.864  19.796  0.00  0.00    +0.000 A 
ATOM     28  C   UNL     1       3.298   5.256  18.778  0.00  0.00    +0.000 A 
BRANCH  23  30
ATOM     29  C   UNL     1       4.833   4.140  16.654  0.00  0.00    +0.000 C 
ATOM     30  O   UNL     1       4.484   5.517  16.635  0.00  0.00    +0.000 OA
ENDBRANCH  23  30
BRANCH  27  31
ATOM     31  O   UNL     1       2.124   5.202  20.927  0.00  0.00    +0.000 OA
ATOM     32  C   UNL     1       1.359   4.012  20.739  0.00  0.00    +0.000 C 
ENDBRANCH  27  31
ENDBRANCH  22  26
ENDBRANCH  18  22
ENDBRANCH   1  19
TORSDOF 6
ENDMDL
MODEL 5
REMARK VINA RESULT:      -7.5      2.339      3.583
REMARK  Name = 
REMARK  10 active torsions:
REMARK  status: ('A' for Active; 'I' for Inactive)
REMARK    1  A    between atoms: C_1  and  O_2
REMARK    2  A    between atoms: O_2  and  C_3
REMARK    3  A    between atoms: C_6  and  C_7
REMARK    4  A    between atoms: C_7  and  N_8
REMARK    5  A    between atoms: C_9  and  C_11
REMARK    6  A    between atoms: N_14  and  C_15
REMARK    7  A    between atoms: C_21  and  C_22
REMARK    8  A    between atoms: C_23  and  C_24
REMARK    9  A    between atoms: C_28  and  O_29
REMARK   10  A    between atoms: O_29  and  C_30
REMARK                            x       y       z     vdW  Elec       q    Type
REMARK                         _______ _______ _______ _____ _____    ______ ____
ROOT
ATOM      1  C   UNL     1      -0.091  10.010  18.629  0.00  0.00    +0.000 C 
ATOM      2  C   UNL     1      -0.709  11.221  17.899  0.00  0.00    +0.000 C 
ATOM      3  C   UNL     1      -0.954  12.434  18.797  0.00  0.00    +0.000 C 
ATOM      4  N   UNL     1      -1.655  11.930  19.970  0.00  0.00    +0.000 N 
ATOM      5  C   UNL     1      -0.758  11.188  20.846  0.00  0.00    +0.000 C 
ATOM      6  C   UNL     1      -0.424   9.877  20.126  0.00  0.00    +0.000 C 
ENDROOT
BRANCH   4   7
ATOM      7  C   UNL     1      -2.671  12.685  20.528  0.00  0.00    +0.000 A 
ATOM      8  N   UNL     1      -2.396  13.554  21.538  0.00  0.00    +0.000 NA
ATOM      9  C   UNL     1      -3.375  14.349  22.020  0.00  0.00    +0.000 A 
ATOM     10  N   UNL     1      -4.640  14.444  21.605  0.00  0.00    +0.000 NA
ATOM     11  C   UNL     1      -4.880  13.597  20.598  0.00  0.00    +0.000 A 
ATOM     12  O   UNL     1      -6.099  13.523  19.987  0.00  0.00    +0.000 OA
ATOM     13  C   UNL     1      -6.001  12.586  19.011  0.00  0.00    +0.000 A 
ATOM     14  C   UNL     1      -7.200  12.299  18.196  0.00  0.00    +0.000 C 
ATOM     15  C   UNL     1      -4.733  12.049  18.965  0.00  0.00    +0.000 A 
ATOM     16  C   UNL     1      -4.314  11.026  17.984  0.00  0.00    +0.000 C 
ATOM     17  C   UNL     1      -3.992  12.696  20.013  0.00  0.00    +0.000 A 
ENDBRANCH   4   7
BRANCH   1  19
ATOM     18  N   UNL     1       1.820   8.641  18.131  0.00  0.00    +0.000 N 
ATOM     19  C   UNL     1       1.391   9.953  18.289  0.00  0.00    +0.000 C 
ATOM     20  O   UNL     1       2.083  10.935  18.103  0.00  0.00    +0.000 OA
ATOM     21  H   UNL     1       1.173   7.895  18.343  0.00  0.00    +0.000 HD
BRANCH  18  22
ATOM     22  C   UNL     1       3.151   8.221  17.710  0.00  0.00    +0.000 C 
BRANCH  22  26
ATOM     23  C   UNL     1       3.775   3.915  17.773  0.00  0.00    +0.000 A 
ATOM     24  C   UNL     1       2.559   4.459  18.171  0.00  0.00    +0.000 A 
ATOM     25  C   UNL     1       2.360   5.840  18.161  0.00  0.00    +0.000 A 
ATOM     26  C   UNL     1       3.372   6.717  17.736  0.00  0.00    +0.000 A 
ATOM     27  C   UNL     1       4.607   6.161  17.327  0.00  0.00    +0.000 A 
ATOM     28  C   UNL     1       4.798   4.768  17.360  0.00  0.00    +0.000 A 
BRANCH  23  30
ATOM     29  C   UNL     1       2.639   1.860  18.175  0.00  0.00    +0.000 C 
ATOM     30  O   UNL     1       3.831   2.550  17.826  0.00  0.00    +0.000 OA
ENDBRANCH  23  30
BRANCH  27  31
ATOM     31  O   UNL     1       5.566   7.046  16.892  0.00  0.00    +0.000 OA
ATOM     32  C   UNL     1       6.909   6.807  17.313  0.00  0.00    +0.000 C 
ENDBRANCH  27  31
ENDBRANCH  22  26
ENDBRANCH  18  22
ENDBRANCH   1  19
TORSDOF 6
ENDMDL
MODEL 6
REMARK VINA RESULT:      -7.5      2.164      9.246
REMARK  Name = 
REMARK  10 active torsions:
REMARK  status: ('A' for Active; 'I' for Inactive)
REMARK    1  A    between atoms: C_1  and  O_2
REMARK    2  A    between atoms: O_2  and  C_3
REMARK    3  A    between atoms: C_6  and  C_7
REMARK    4  A    between atoms: C_7  and  N_8
REMARK    5  A    between atoms: C_9  and  C_11
REMARK    6  A    between atoms: N_14  and  C_15
REMARK    7  A    between atoms: C_21  and  C_22
REMARK    8  A    between atoms: C_23  and  C_24
REMARK    9  A    between atoms: C_28  and  O_29
REMARK   10  A    between atoms: O_29  and  C_30
REMARK                            x       y       z     vdW  Elec       q    Type
REMARK                         _______ _______ _______ _____ _____    ______ ____
ROOT
ATOM      1  C   UNL     1       1.910   8.138  20.317  0.00  0.00    +0.000 C 
ATOM      2  C   UNL     1       2.097   7.980  18.794  0.00  0.00    +0.000 C 
ATOM      3  C   UNL     1       1.663   6.620  18.248  0.00  0.00    +0.000 C 
ATOM      4  N   UNL     1       2.290   5.624  19.107  0.00  0.00    +0.000 N 
ATOM      5  C   UNL     1       1.636   5.557  20.407  0.00  0.00    +0.000 C 
ATOM      6  C   UNL     1       2.000   6.847  21.151  0.00  0.00    +0.000 C 
ENDROOT
BRANCH   4   7
ATOM      7  C   UNL     1       2.794   4.465  18.544  0.00  0.00    +0.000 A 
ATOM      8  N   UNL     1       2.135   3.286  18.711  0.00  0.00    +0.000 NA
ATOM      9  C   UNL     1       2.584   2.176  18.088  0.00  0.00    +0.000 A 
ATOM     10  N   UNL     1       3.619   2.060  17.253  0.00  0.00    +0.000 NA
ATOM     11  C   UNL     1       4.237   3.235  17.088  0.00  0.00    +0.000 A 
ATOM     12  O   UNL     1       5.315   3.378  16.261  0.00  0.00    +0.000 OA
ATOM     13  C   UNL     1       5.687   4.681  16.312  0.00  0.00    +0.000 A 
ATOM     14  C   UNL     1       6.851   5.106  15.507  0.00  0.00    +0.000 C 
ATOM     15  C   UNL     1       4.865   5.399  17.153  0.00  0.00    +0.000 A 
ATOM     16  C   UNL     1       5.005   6.852  17.388  0.00  0.00    +0.000 C 
ATOM     17  C   UNL     1       3.918   4.456  17.679  0.00  0.00    +0.000 A 
ENDBRANCH   4   7
BRANCH   1  19
ATOM     18  N   UNL     1       0.720  10.173  19.851  0.00  0.00    +0.000 N 
ATOM     19  C   UNL     1       0.666   8.980  20.561  0.00  0.00    +0.000 C 
ATOM     20  O   UNL     1      -0.281   8.612  21.227  0.00  0.00    +0.000 OA
ATOM     21  H   UNL     1       1.569  10.399  19.353  0.00  0.00    +0.000 HD
BRANCH  18  22
ATOM     22  C   UNL     1      -0.340  11.171  19.773  0.00  0.00    +0.000 C 
BRANCH  22  26
ATOM     23  C   UNL     1      -3.187  10.515  16.549  0.00  0.00    +0.000 A 
ATOM     24  C   UNL     1      -2.012   9.774  16.616  0.00  0.00    +0.000 A 
ATOM     25  C   UNL     1      -1.093   9.991  17.645  0.00  0.00    +0.000 A 
ATOM     26  C   UNL     1      -1.333  10.947  18.646  0.00  0.00    +0.000 A 
ATOM     27  C   UNL     1      -2.531  11.696  18.577  0.00  0.00    +0.000 A 
ATOM     28  C   UNL     1      -3.440  11.479  17.525  0.00  0.00    +0.000 A 
BRANCH  23  30
ATOM     29  C   UNL     1      -3.415  10.181  14.202  0.00  0.00    +0.000 C 
ATOM     30  O   UNL     1      -4.000  10.197  15.497  0.00  0.00    +0.000 OA
ENDBRANCH  23  30
BRANCH  27  31
ATOM     31  O   UNL     1      -2.748  12.604  19.587  0.00  0.00    +0.000 OA
ATOM     32  C   UNL     1      -4.045  12.619  20.181  0.00  0.00    +0.000 C 
ENDBRANCH  27  31
ENDBRANCH  22  26
ENDBRANCH  18  22
ENDBRANCH   1  19
TORSDOF 6
ENDMDL
MODEL 7
REMARK VINA RESULT:      -7.4      2.466      3.875
REMARK  Name = 
REMARK  10 active torsions:
REMARK  status: ('A' for Active; 'I' for Inactive)
REMARK    1  A    between atoms: C_1  and  O_2
REMARK    2  A    between atoms: O_2  and  C_3
REMARK    3  A    between atoms: C_6  and  C_7
REMARK    4  A    between atoms: C_7  and  N_8
REMARK    5  A    between atoms: C_9  and  C_11
REMARK    6  A    between atoms: N_14  and  C_15
REMARK    7  A    between atoms: C_21  and  C_22
REMARK    8  A    between atoms: C_23  and  C_24
REMARK    9  A    between atoms: C_28  and  O_29
REMARK   10  A    between atoms: O_29  and  C_30
REMARK                            x       y       z     vdW  Elec       q    Type
REMARK                         _______ _______ _______ _____ _____    ______ ____
ROOT
ATOM      1  C   UNL     1       0.021  10.159  19.014  0.00  0.00    +0.000 C 
ATOM      2  C   UNL     1      -0.436  11.595  18.680  0.00  0.00    +0.000 C 
ATOM      3  C   UNL     1      -0.353  12.567  19.857  0.00  0.00    +0.000 C 
ATOM      4  N   UNL     1      -1.005  11.899  20.976  0.00  0.00    +0.000 N 
ATOM      5  C   UNL     1      -0.173  10.832  21.515  0.00  0.00    +0.000 C 
ATOM      6  C   UNL     1      -0.169   9.708  20.474  0.00  0.00    +0.000 C 
ENDROOT
BRANCH   4   7
ATOM      7  C   UNL     1      -1.797  12.638  21.837  0.00  0.00    +0.000 A 
ATOM      8  N   UNL     1      -1.269  13.140  22.985  0.00  0.00    +0.000 NA
ATOM      9  C   UNL     1      -2.022  13.931  23.778  0.00  0.00    +0.000 A 
ATOM     10  N   UNL     1      -3.272  14.351  23.575  0.00  0.00    +0.000 NA
ATOM     11  C   UNL     1      -3.764  13.863  22.429  0.00  0.00    +0.000 A 
ATOM     12  O   UNL     1      -5.019  14.168  21.990  0.00  0.00    +0.000 OA
ATOM     13  C   UNL     1      -5.196  13.529  20.807  0.00  0.00    +0.000 A 
ATOM     14  C   UNL     1      -6.492  13.683  20.115  0.00  0.00    +0.000 C 
ATOM     15  C   UNL     1      -4.070  12.814  20.458  0.00  0.00    +0.000 A 
ATOM     16  C   UNL     1      -3.951  12.038  19.205  0.00  0.00    +0.000 C 
ATOM     17  C   UNL     1      -3.128  13.015  21.523  0.00  0.00    +0.000 A 
ENDBRANCH   4   7
BRANCH   1  19
ATOM     18  N   UNL     1       1.737   8.611  18.355  0.00  0.00    +0.000 N 
ATOM     19  C   UNL     1       1.421   9.961  18.453  0.00  0.00    +0.000 C 
ATOM     20  O   UNL     1       2.133  10.868  18.069  0.00  0.00    +0.000 OA
ATOM     21  H   UNL     1       1.088   7.937  18.735  0.00  0.00    +0.000 HD
BRANCH  18  22
ATOM     22  C   UNL     1       2.952   8.056  17.772  0.00  0.00    +0.000 C 
BRANCH  22  26
ATOM     23  C   UNL     1       3.563   3.827  18.591  0.00  0.00    +0.000 A 
ATOM     24  C   UNL     1       2.598   4.549  19.285  0.00  0.00    +0.000 A 
ATOM     25  C   UNL     1       2.408   5.908  19.030  0.00  0.00    +0.000 A 
ATOM     26  C   UNL     1       3.170   6.580  18.060  0.00  0.00    +0.000 A 
ATOM     27  C   UNL     1       4.148   5.842  17.352  0.00  0.00    +0.000 A 
ATOM     28  C   UNL     1       4.340   4.477  17.632  0.00  0.00    +0.000 A 
BRANCH  23  30
ATOM     29  C   UNL     1       4.383   2.175  20.098  0.00  0.00    +0.000 C 
ATOM     30  O   UNL     1       3.639   2.506  18.933  0.00  0.00    +0.000 OA
ENDBRANCH  23  30
BRANCH  27  31
ATOM     31  O   UNL     1       4.857   6.524  16.391  0.00  0.00    +0.000 OA
ATOM     32  C   UNL     1       5.455   5.748  15.353  0.00  0.00    +0.000 C 
ENDBRANCH  27  31
ENDBRANCH  22  26
ENDBRANCH  18  22
ENDBRANCH   1  19
TORSDOF 6
ENDMDL
MODEL 8
REMARK VINA RESULT:      -7.4      3.033     10.622
REMARK  Name = 
REMARK  10 active torsions:
REMARK  status: ('A' for Active; 'I' for Inactive)
REMARK    1  A    between atoms: C_1  and  O_2
REMARK    2  A    between atoms: O_2  and  C_3
REMARK    3  A    between atoms: C_6  and  C_7
REMARK    4  A    between atoms: C_7  and  N_8
REMARK    5  A    between atoms: C_9  and  C_11
REMARK    6  A    between atoms: N_14  and  C_15
REMARK    7  A    between atoms: C_21  and  C_22
REMARK    8  A    between atoms: C_23  and  C_24
REMARK    9  A    between atoms: C_28  and  O_29
REMARK   10  A    between atoms: O_29  and  C_30
REMARK                            x       y       z     vdW  Elec       q    Type
REMARK                         _______ _______ _______ _____ _____    ______ ____
ROOT
ATOM      1  C   UNL     1       0.068   9.269  20.436  0.00  0.00    +0.000 C 
ATOM      2  C   UNL     1       0.895   8.156  21.113  0.00  0.00    +0.000 C 
ATOM      3  C   UNL     1       2.281   7.949  20.503  0.00  0.00    +0.000 C 
ATOM      4  N   UNL     1       2.075   7.849  19.064  0.00  0.00    +0.000 N 
ATOM      5  C   UNL     1       1.773   9.149  18.480  0.00  0.00    +0.000 C 
ATOM      6  C   UNL     1       0.361   9.523  18.946  0.00  0.00    +0.000 C 
ENDROOT
BRANCH   4   7
ATOM      7  C   UNL     1       2.820   6.939  18.335  0.00  0.00    +0.000 A 
ATOM      8  N   UNL     1       3.797   7.376  17.496  0.00  0.00    +0.000 NA
ATOM      9  C   UNL     1       4.576   6.481  16.853  0.00  0.00    +0.000 A 
ATOM     10  N   UNL     1       4.556   5.150  16.950  0.00  0.00    +0.000 NA
ATOM     11  C   UNL     1       3.602   4.744  17.796  0.00  0.00    +0.000 A 
ATOM     12  O   UNL     1       3.396   3.425  18.080  0.00  0.00    +0.000 OA
ATOM     13  C   UNL     1       2.377   3.361  18.972  0.00  0.00    +0.000 A 
ATOM     14  C   UNL     1       1.941   2.029  19.441  0.00  0.00    +0.000 C 
ATOM     15  C   UNL     1       1.914   4.621  19.286  0.00  0.00    +0.000 A 
ATOM     16  C   UNL     1       0.827   4.873  20.255  0.00  0.00    +0.000 C 
ATOM     17  C   UNL     1       2.702   5.536  18.508  0.00  0.00    +0.000 A 
ENDBRANCH   4   7
BRANCH   1  19
ATOM     18  N   UNL     1      -1.114  10.724  21.939  0.00  0.00    +0.000 N 
ATOM     19  C   UNL     1       0.112  10.504  21.324  0.00  0.00    +0.000 C 
ATOM     20  O   UNL     1       1.115  11.159  21.524  0.00  0.00    +0.000 OA
ATOM     21  H   UNL     1      -1.896  10.140  21.677  0.00  0.00    +0.000 HD
BRANCH  18  22
ATOM     22  C   UNL     1      -1.403  11.757  22.927  0.00  0.00    +0.000 C 
BRANCH  22  26
ATOM     23  C   UNL     1      -5.432  13.385  22.722  0.00  0.00    +0.000 A 
ATOM     24  C   UNL     1      -4.923  12.910  23.925  0.00  0.00    +0.000 A 
ATOM     25  C   UNL     1      -3.634  12.378  23.990  0.00  0.00    +0.000 A 
ATOM     26  C   UNL     1      -2.812  12.322  22.852  0.00  0.00    +0.000 A 
ATOM     27  C   UNL     1      -3.331  12.809  21.630  0.00  0.00    +0.000 A 
ATOM     28  C   UNL     1      -4.639  13.327  21.576  0.00  0.00    +0.000 A 
BRANCH  23  30
ATOM     29  C   UNL     1      -7.155  14.322  24.075  0.00  0.00    +0.000 C 
ATOM     30  O   UNL     1      -6.703  13.884  22.800  0.00  0.00    +0.000 OA
ENDBRANCH  23  30
BRANCH  27  31
ATOM     31  O   UNL     1      -2.491  12.764  20.543  0.00  0.00    +0.000 OA
ATOM     32  C   UNL     1      -2.999  12.157  19.354  0.00  0.00    +0.000 C 
ENDBRANCH  27  31
ENDBRANCH  22  26
ENDBRANCH  18  22
ENDBRANCH   1  19
TORSDOF 6
ENDMDL
MODEL 9
REMARK VINA RESULT:      -7.3      3.182     10.617
REMARK  Name = 
REMARK  10 active torsions:
REMARK  status: ('A' for Active; 'I' for Inactive)
REMARK    1  A    between atoms: C_1  and  O_2
REMARK    2  A    between atoms: O_2  and  C_3
REMARK    3  A    between atoms: C_6  and  C_7
REMARK    4  A    between atoms: C_7  and  N_8
REMARK    5  A    between atoms: C_9  and  C_11
REMARK    6  A    between atoms: N_14  and  C_15
REMARK    7  A    between atoms: C_21  and  C_22
REMARK    8  A    between atoms: C_23  and  C_24
REMARK    9  A    between atoms: C_28  and  O_29
REMARK   10  A    between atoms: O_29  and  C_30
REMARK                            x       y       z     vdW  Elec       q    Type
REMARK                         _______ _______ _______ _____ _____    ______ ____
ROOT
ATOM      1  C   UNL     1      -0.154   9.145  21.070  0.00  0.00    +0.000 C 
ATOM      2  C   UNL     1       0.708   7.968  21.572  0.00  0.00    +0.000 C 
ATOM      3  C   UNL     1       2.080   7.869  20.905  0.00  0.00    +0.000 C 
ATOM      4  N   UNL     1       1.836   7.957  19.471  0.00  0.00    +0.000 N 
ATOM      5  C   UNL     1       1.499   9.317  19.074  0.00  0.00    +0.000 C 
ATOM      6  C   UNL     1       0.095   9.601  19.620  0.00  0.00    +0.000 C 
ENDROOT
BRANCH   4   7
ATOM      7  C   UNL     1       2.574   7.166  18.609  0.00  0.00    +0.000 A 
ATOM      8  N   UNL     1       3.471   7.737  17.761  0.00  0.00    +0.000 NA
ATOM      9  C   UNL     1       4.248   6.953  16.984  0.00  0.00    +0.000 A 
ATOM     10  N   UNL     1       4.299   5.620  16.946  0.00  0.00    +0.000 NA
ATOM     11  C   UNL     1       3.424   5.081  17.803  0.00  0.00    +0.000 A 
ATOM     12  O   UNL     1       3.302   3.731  17.963  0.00  0.00    +0.000 OA
ATOM     13  C   UNL     1       2.349   3.524  18.905  0.00  0.00    +0.000 A 
ATOM     14  C   UNL     1       2.011   2.130  19.262  0.00  0.00    +0.000 C 
ATOM     15  C   UNL     1       1.847   4.719  19.373  0.00  0.00    +0.000 A 
ATOM     16  C   UNL     1       0.816   4.815  20.428  0.00  0.00    +0.000 C 
ATOM     17  C   UNL     1       2.537   5.748  18.646  0.00  0.00    +0.000 A 
ENDBRANCH   4   7
BRANCH   1  19
ATOM     18  N   UNL     1      -0.341  11.495  21.538  0.00  0.00    +0.000 N 
ATOM     19  C   UNL     1      -0.104  10.252  22.113  0.00  0.00    +0.000 C 
ATOM     20  O   UNL     1       0.045  10.057  23.303  0.00  0.00    +0.000 OA
ATOM     21  H   UNL     1      -0.419  11.553  20.533  0.00  0.00    +0.000 HD
BRANCH  18  22
ATOM     22  C   UNL     1      -0.463  12.760  22.253  0.00  0.00    +0.000 C 
BRANCH  22  26
ATOM     23  C   UNL     1      -4.516  13.721  23.510  0.00  0.00    +0.000 A 
ATOM     24  C   UNL     1      -4.292  12.796  22.498  0.00  0.00    +0.000 A 
ATOM     25  C   UNL     1      -2.992  12.493  22.086  0.00  0.00    +0.000 A 
ATOM     26  C   UNL     1      -1.878  13.100  22.691  0.00  0.00    +0.000 A 
ATOM     27  C   UNL     1      -2.109  14.039  23.724  0.00  0.00    +0.000 A 
ATOM     28  C   UNL     1      -3.426  14.346  24.115  0.00  0.00    +0.000 A 
BRANCH  23  30
ATOM     29  C   UNL     1      -6.644  12.762  23.985  0.00  0.00    +0.000 C 
ATOM     30  O   UNL     1      -5.833  13.918  23.819  0.00  0.00    +0.000 OA
ENDBRANCH  23  30
BRANCH  27  31
ATOM     31  O   UNL     1      -0.997  14.593  24.311  0.00  0.00    +0.000 OA
ATOM     32  C   UNL     1      -1.211  15.430  25.448  0.00  0.00    +0.000 C 
ENDBRANCH  27  31
ENDBRANCH  22  26
ENDBRANCH  18  22
ENDBRANCH   1  19
TORSDOF 6
ENDMDL
