MODEL 1
REMARK VINA RESULT:      -7.6      0.000      0.000
REMARK  Name = 
REMARK  6 active torsions:
REMARK  status: ('A' for Active; 'I' for Inactive)
REMARK    1  A    between atoms: C_2  and  O_3
REMARK    2  A    between atoms: C_2  and  C_4
REMARK    3  A    between atoms: C_4  and  C_5
REMARK    4  A    between atoms: C_5  and  C_6
REMARK    5  A    between atoms: C_6  and  C_7
REMARK    6  A    between atoms: C_12  and  C_13
REMARK                            x       y       z     vdW  Elec       q    Type
REMARK                         _______ _______ _______ _____ _____    ______ ____
ROOT
ATOM      1  C   UNL     1       4.221   3.130  19.246  0.00  0.00    +0.000 C 
ATOM      2  O   UNL     1       3.979   2.357  18.321  0.00  0.00    +0.000 OA
ATOM      3  N   UNL     1       5.218   4.082  19.250  0.00  0.00    +0.000 N 
ATOM      4  C   UNL     1       6.009   4.296  18.147  0.00  0.00    +0.000 A 
ATOM      5  C   UNL     1       5.620   4.251  16.790  0.00  0.00    +0.000 A 
ATOM      6  C   UNL     1       6.771   4.498  16.078  0.00  0.00    +0.000 A 
ATOM      7  N   UNL     1       7.754   4.627  17.014  0.00  0.00    +0.000 N 
ATOM      8  N   UNL     1       7.298   4.611  18.287  0.00  0.00    +0.000 NA
ATOM      9  H   UNL     1       5.604   4.425  20.117  0.00  0.00    +0.000 HD
ATOM     10  H   UNL     1       8.749   4.747  16.847  0.00  0.00    +0.000 HD
ENDROOT
BRANCH   6  11
ATOM     11  C   UNL     1       6.993   4.603  14.676  0.00  0.00    +0.000 A 
ATOM     12  C   UNL     1       6.358   3.912  13.656  0.00  0.00    +0.000 A 
ATOM     13  C   UNL     1       6.912   4.363  12.435  0.00  0.00    +0.000 A 
ATOM     14  C   UNL     1       7.861   5.293  12.775  0.00  0.00    +0.000 A 
ATOM     15  O   UNL     1       7.911   5.459  14.125  0.00  0.00    +0.000 OA
ENDBRANCH   6  11
BRANCH   1  16
ATOM     16  C   UNL     1       3.464   3.031  20.551  0.00  0.00    +0.000 C 
BRANCH  16  17
ATOM     17  C   UNL     1       2.298   4.021  20.627  0.00  0.00    +0.000 C 
BRANCH  17  18
ATOM     18  C   UNL     1       0.946   3.450  20.191  0.00  0.00    +0.000 C 
BRANCH  18  20
ATOM     19  O   UNL     1       0.936   3.766  17.789  0.00  0.00    +0.000 OA
ATOM     20  C   UNL     1       0.944   3.011  18.748  0.00  0.00    +0.000 C 
BRANCH  20  21
ATOM     21  O   UNL     1       0.930   1.666  18.603  0.00  0.00    +0.000 OA
ATOM     22  H   UNL     1       0.082   1.297  18.286  0.00  0.00    +0.000 HD
ENDBRANCH  20  21
ENDBRANCH  18  20
ENDBRANCH  17  18
ENDBRANCH  16  17
ENDBRANCH   1  16
TORSDOF 6
ENDMDL
MODEL 2
REMARK VINA RESULT:      -7.5      0.944      1.028
REMARK  Name = 
REMARK  6 active torsions:
REMARK  status: ('A' for Active; 'I' for Inactive)
REMARK    1  A    between atoms: C_2  and  O_3
REMARK    2  A    between atoms: C_2  and  C_4
REMARK    3  A    between atoms: C_4  and  C_5
REMARK    4  A    between atoms: C_5  and  C_6
REMARK    5  A    between atoms: C_6  and  C_7
REMARK    6  A    between atoms: C_12  and  C_13
REMARK                            x       y       z     vdW  Elec       q    Type
REMARK                         _______ _______ _______ _____ _____    ______ ____
ROOT
ATOM      1  C   UNL     1       3.706   4.730  18.988  0.00  0.00    +0.000 C 
ATOM      2  O   UNL     1       3.156   4.206  18.019  0.00  0.00    +0.000 OA
ATOM      3  N   UNL     1       5.042   5.059  19.063  0.00  0.00    +0.000 N 
ATOM      4  C   UNL     1       5.886   4.884  17.993  0.00  0.00    +0.000 A 
ATOM      5  C   UNL     1       5.589   5.079  16.626  0.00  0.00    +0.000 A 
ATOM      6  C   UNL     1       6.743   4.742  15.956  0.00  0.00    +0.000 A 
ATOM      7  N   UNL     1       7.616   4.338  16.922  0.00  0.00    +0.000 N 
ATOM      8  N   UNL     1       7.153   4.513  18.181  0.00  0.00    +0.000 NA
ATOM      9  H   UNL     1       5.507   5.140  19.956  0.00  0.00    +0.000 HD
ATOM     10  H   UNL     1       8.546   3.952  16.788  0.00  0.00    +0.000 HD
ENDROOT
BRANCH   6  11
ATOM     11  C   UNL     1       7.053   4.764  14.567  0.00  0.00    +0.000 A 
ATOM     12  C   UNL     1       6.505   3.990  13.557  0.00  0.00    +0.000 A 
ATOM     13  C   UNL     1       7.124   4.379  12.347  0.00  0.00    +0.000 A 
ATOM     14  C   UNL     1       8.022   5.360  12.684  0.00  0.00    +0.000 A 
ATOM     15  O   UNL     1       7.980   5.613  14.020  0.00  0.00    +0.000 OA
ENDBRANCH   6  11
BRANCH   1  16
ATOM     16  C   UNL     1       2.939   4.981  20.266  0.00  0.00    +0.000 C 
BRANCH  16  17
ATOM     17  C   UNL     1       2.392   3.689  20.881  0.00  0.00    +0.000 C 
BRANCH  17  18
ATOM     18  C   UNL     1       0.978   3.315  20.427  0.00  0.00    +0.000 C 
BRANCH  18  20
ATOM     19  O   UNL     1       0.075   2.228  18.460  0.00  0.00    +0.000 OA
ATOM     20  C   UNL     1       0.981   2.350  19.269  0.00  0.00    +0.000 C 
BRANCH  20  21
ATOM     21  O   UNL     1       2.100   1.592  19.212  0.00  0.00    +0.000 OA
ATOM     22  H   UNL     1       2.792   1.835  19.859  0.00  0.00    +0.000 HD
ENDBRANCH  20  21
ENDBRANCH  18  20
ENDBRANCH  17  18
ENDBRANCH  16  17
ENDBRANCH   1  16
TORSDOF 6
ENDMDL
MODEL 3
REMARK VINA RESULT:      -7.3      1.550      2.091
REMARK  Name = 
REMARK  6 active torsions:
REMARK  status: ('A' for Active; 'I' for Inactive)
REMARK    1  A    between atoms: C_2  and  O_3
REMARK    2  A    between atoms: C_2  and  C_4
REMARK    3  A    between atoms: C_4  and  C_5
REMARK    4  A    between atoms: C_5  and  C_6
REMARK    5  A    between atoms: C_6  and  C_7
REMARK    6  A    between atoms: C_12  and  C_13
REMARK                            x       y       z     vdW  Elec       q    Type
REMARK                         _______ _______ _______ _____ _____    ______ ____
ROOT
ATOM      1  C   UNL     1       2.524   4.392  18.181  0.00  0.00    +0.000 C 
ATOM      2  O   UNL     1       2.179   3.837  17.138  0.00  0.00    +0.000 OA
ATOM      3  N   UNL     1       3.810   4.781  18.488  0.00  0.00    +0.000 N 
ATOM      4  C   UNL     1       4.838   4.635  17.587  0.00  0.00    +0.000 A 
ATOM      5  C   UNL     1       4.782   4.806  16.187  0.00  0.00    +0.000 A 
ATOM      6  C   UNL     1       6.051   4.516  15.739  0.00  0.00    +0.000 A 
ATOM      7  N   UNL     1       6.754   4.159  16.851  0.00  0.00    +0.000 N 
ATOM      8  N   UNL     1       6.067   4.322  18.004  0.00  0.00    +0.000 NA
ATOM      9  H   UNL     1       4.105   4.888  19.447  0.00  0.00    +0.000 HD
ATOM     10  H   UNL     1       7.708   3.813  16.889  0.00  0.00    +0.000 HD
ENDROOT
BRANCH   6  11
ATOM     11  C   UNL     1       6.602   4.542  14.427  0.00  0.00    +0.000 A 
ATOM     12  C   UNL     1       6.218   3.796  13.324  0.00  0.00    +0.000 A 
ATOM     13  C   UNL     1       7.054   4.176  12.248  0.00  0.00    +0.000 A 
ATOM     14  C   UNL     1       7.908   5.122  12.754  0.00  0.00    +0.000 A 
ATOM     15  O   UNL     1       7.638   5.364  14.066  0.00  0.00    +0.000 OA
ENDBRANCH   6  11
BRANCH   1  16
ATOM     16  C   UNL     1       1.532   4.618  19.298  0.00  0.00    +0.000 C 
BRANCH  16  17
ATOM     17  C   UNL     1       0.805   3.332  19.703  0.00  0.00    +0.000 C 
BRANCH  17  18
ATOM     18  C   UNL     1       1.728   2.166  20.070  0.00  0.00    +0.000 C 
BRANCH  18  20
ATOM     19  O   UNL     1       2.459   2.906  22.258  0.00  0.00    +0.000 OA
ATOM     20  C   UNL     1       2.736   2.541  21.126  0.00  0.00    +0.000 C 
BRANCH  20  21
ATOM     21  O   UNL     1       4.015   2.457  20.693  0.00  0.00    +0.000 OA
ATOM     22  H   UNL     1       4.359   1.546  20.605  0.00  0.00    +0.000 HD
ENDBRANCH  20  21
ENDBRANCH  18  20
ENDBRANCH  17  18
ENDBRANCH  16  17
ENDBRANCH   1  16
TORSDOF 6
ENDMDL
MODEL 4
REMARK VINA RESULT:      -7.3      1.300      1.642
REMARK  Name = 
REMARK  6 active torsions:
REMARK  status: ('A' for Active; 'I' for Inactive)
REMARK    1  A    between atoms: C_2  and  O_3
REMARK    2  A    between atoms: C_2  and  C_4
REMARK    3  A    between atoms: C_4  and  C_5
REMARK    4  A    between atoms: C_5  and  C_6
REMARK    5  A    between atoms: C_6  and  C_7
REMARK    6  A    between atoms: C_12  and  C_13
REMARK                            x       y       z     vdW  Elec       q    Type
REMARK                         _______ _______ _______ _____ _____    ______ ____
ROOT
ATOM      1  C   UNL     1       3.185   5.613  18.860  0.00  0.00    +0.000 C 
ATOM      2  O   UNL     1       2.585   5.249  17.850  0.00  0.00    +0.000 OA
ATOM      3  N   UNL     1       4.552   5.570  19.034  0.00  0.00    +0.000 N 
ATOM      4  C   UNL     1       5.391   5.163  18.024  0.00  0.00    +0.000 A 
ATOM      5  C   UNL     1       5.256   5.418  16.642  0.00  0.00    +0.000 A 
ATOM      6  C   UNL     1       6.321   4.776  16.052  0.00  0.00    +0.000 A 
ATOM      7  N   UNL     1       6.981   4.160  17.073  0.00  0.00    +0.000 N 
ATOM      8  N   UNL     1       6.494   4.465  18.298  0.00  0.00    +0.000 NA
ATOM      9  H   UNL     1       4.956   5.529  19.958  0.00  0.00    +0.000 HD
ATOM     10  H   UNL     1       7.779   3.536  17.001  0.00  0.00    +0.000 HD
ENDROOT
BRANCH   6  11
ATOM     11  C   UNL     1       6.723   4.701  14.689  0.00  0.00    +0.000 A 
ATOM     12  C   UNL     1       6.198   3.902  13.686  0.00  0.00    +0.000 A 
ATOM     13  C   UNL     1       6.919   4.186  12.503  0.00  0.00    +0.000 A 
ATOM     14  C   UNL     1       7.850   5.132  12.849  0.00  0.00    +0.000 A 
ATOM     15  O   UNL     1       7.733   5.464  14.164  0.00  0.00    +0.000 OA
ENDBRANCH   6  11
BRANCH   1  16
ATOM     16  C   UNL     1       2.426   6.073  20.084  0.00  0.00    +0.000 C 
BRANCH  16  17
ATOM     17  C   UNL     1       1.313   5.098  20.481  0.00  0.00    +0.000 C 
BRANCH  17  18
ATOM     18  C   UNL     1       1.801   3.706  20.891  0.00  0.00    +0.000 C 
BRANCH  18  20
ATOM     19  O   UNL     1       2.181   1.876  19.350  0.00  0.00    +0.000 OA
ATOM     20  C   UNL     1       1.405   2.641  19.899  0.00  0.00    +0.000 C 
BRANCH  20  21
ATOM     21  O   UNL     1       0.076   2.620  19.646  0.00  0.00    +0.000 OA
ATOM     22  H   UNL     1      -0.475   2.283  20.380  0.00  0.00    +0.000 HD
ENDBRANCH  20  21
ENDBRANCH  18  20
ENDBRANCH  17  18
ENDBRANCH  16  17
ENDBRANCH   1  16
TORSDOF 6
ENDMDL
MODEL 5
REMARK VINA RESULT:      -7.2      1.779      2.086
REMARK  Name = 
REMARK  6 active torsions:
REMARK  status: ('A' for Active; 'I' for Inactive)
REMARK    1  A    between atoms: C_2  and  O_3
REMARK    2  A    between atoms: C_2  and  C_4
REMARK    3  A    between atoms: C_4  and  C_5
REMARK    4  A    between atoms: C_5  and  C_6
REMARK    5  A    between atoms: C_6  and  C_7
REMARK    6  A    between atoms: C_12  and  C_13
REMARK                            x       y       z     vdW  Elec       q    Type
REMARK                         _______ _______ _______ _____ _____    ______ ____
ROOT
ATOM      1  C   UNL     1       2.816   2.788  18.434  0.00  0.00    +0.000 C 
ATOM      2  O   UNL     1       2.758   2.089  17.423  0.00  0.00    +0.000 OA
ATOM      3  N   UNL     1       3.821   3.686  18.724  0.00  0.00    +0.000 N 
ATOM      4  C   UNL     1       4.844   3.930  17.839  0.00  0.00    +0.000 A 
ATOM      5  C   UNL     1       4.762   3.992  16.431  0.00  0.00    +0.000 A 
ATOM      6  C   UNL     1       6.050   4.226  16.007  0.00  0.00    +0.000 A 
ATOM      7  N   UNL     1       6.806   4.245  17.141  0.00  0.00    +0.000 N 
ATOM      8  N   UNL     1       6.080   4.170  18.280  0.00  0.00    +0.000 NA
ATOM      9  H   UNL     1       4.018   3.953  19.678  0.00  0.00    +0.000 HD
ATOM     10  H   UNL     1       7.817   4.324  17.205  0.00  0.00    +0.000 HD
ENDROOT
BRANCH   6  11
ATOM     11  C   UNL     1       6.580   4.410  14.699  0.00  0.00    +0.000 A 
ATOM     12  C   UNL     1       6.152   3.830  13.515  0.00  0.00    +0.000 A 
ATOM     13  C   UNL     1       6.982   4.325  12.481  0.00  0.00    +0.000 A 
ATOM     14  C   UNL     1       7.876   5.168  13.090  0.00  0.00    +0.000 A 
ATOM     15  O   UNL     1       7.636   5.240  14.428  0.00  0.00    +0.000 OA
ENDBRANCH   6  11
BRANCH   1  16
ATOM     16  C   UNL     1       1.787   2.643  19.531  0.00  0.00    +0.000 C 
BRANCH  16  17
ATOM     17  C   UNL     1       2.001   3.648  20.668  0.00  0.00    +0.000 C 
BRANCH  17  18
ATOM     18  C   UNL     1       1.104   4.886  20.603  0.00  0.00    +0.000 C 
BRANCH  18  20
ATOM     19  O   UNL     1       1.446   7.274  20.828  0.00  0.00    +0.000 OA
ATOM     20  C   UNL     1       1.895   6.169  20.566  0.00  0.00    +0.000 C 
BRANCH  20  21
ATOM     21  O   UNL     1       3.180   5.990  20.185  0.00  0.00    +0.000 OA
ATOM     22  H   UNL     1       3.367   6.217  19.253  0.00  0.00    +0.000 HD
ENDBRANCH  20  21
ENDBRANCH  18  20
ENDBRANCH  17  18
ENDBRANCH  16  17
ENDBRANCH   1  16
TORSDOF 6
ENDMDL
MODEL 6
REMARK VINA RESULT:      -7.1      1.458      1.475
REMARK  Name = 
REMARK  6 active torsions:
REMARK  status: ('A' for Active; 'I' for Inactive)
REMARK    1  A    between atoms: C_2  and  O_3
REMARK    2  A    between atoms: C_2  and  C_4
REMARK    3  A    between atoms: C_4  and  C_5
REMARK    4  A    between atoms: C_5  and  C_6
REMARK    5  A    between atoms: C_6  and  C_7
REMARK    6  A    between atoms: C_12  and  C_13
REMARK                            x       y       z     vdW  Elec       q    Type
REMARK                         _______ _______ _______ _____ _____    ______ ____
ROOT
ATOM      1  C   UNL     1       3.823   4.542  19.447  0.00  0.00    +0.000 C 
ATOM      2  O   UNL     1       4.414   3.498  19.172  0.00  0.00    +0.000 OA
ATOM      3  N   UNL     1       3.937   5.728  18.754  0.00  0.00    +0.000 N 
ATOM      4  C   UNL     1       4.699   5.822  17.614  0.00  0.00    +0.000 A 
ATOM      5  C   UNL     1       4.854   4.849  16.603  0.00  0.00    +0.000 A 
ATOM      6  C   UNL     1       5.736   5.403  15.703  0.00  0.00    +0.000 A 
ATOM      7  N   UNL     1       6.079   6.612  16.232  0.00  0.00    +0.000 N 
ATOM      8  N   UNL     1       5.382   6.937  17.344  0.00  0.00    +0.000 NA
ATOM      9  H   UNL     1       3.739   6.611  19.201  0.00  0.00    +0.000 HD
ATOM     10  H   UNL     1       6.767   7.267  15.871  0.00  0.00    +0.000 HD
ENDROOT
BRANCH   6  11
ATOM     11  C   UNL     1       6.248   4.902  14.473  0.00  0.00    +0.000 A 
ATOM     12  C   UNL     1       5.775   3.837  13.722  0.00  0.00    +0.000 A 
ATOM     13  C   UNL     1       6.604   3.729  12.580  0.00  0.00    +0.000 A 
ATOM     14  C   UNL     1       7.542   4.723  12.703  0.00  0.00    +0.000 A 
ATOM     15  O   UNL     1       7.330   5.449  13.834  0.00  0.00    +0.000 OA
ENDBRANCH   6  11
BRANCH   1  16
ATOM     16  C   UNL     1       2.954   4.634  20.680  0.00  0.00    +0.000 C 
BRANCH  16  17
ATOM     17  C   UNL     1       1.460   4.643  20.342  0.00  0.00    +0.000 C 
BRANCH  17  18
ATOM     18  C   UNL     1       0.873   3.268  20.010  0.00  0.00    +0.000 C 
BRANCH  18  20
ATOM     19  O   UNL     1       0.987   3.422  17.596  0.00  0.00    +0.000 OA
ATOM     20  C   UNL     1       1.234   2.807  18.621  0.00  0.00    +0.000 C 
BRANCH  20  21
ATOM     21  O   UNL     1       1.856   1.607  18.605  0.00  0.00    +0.000 OA
ATOM     22  H   UNL     1       2.139   1.303  17.720  0.00  0.00    +0.000 HD
ENDBRANCH  20  21
ENDBRANCH  18  20
ENDBRANCH  17  18
ENDBRANCH  16  17
ENDBRANCH   1  16
TORSDOF 6
ENDMDL
MODEL 7
REMARK VINA RESULT:      -7.0      1.839      2.282
REMARK  Name = 
REMARK  6 active torsions:
REMARK  status: ('A' for Active; 'I' for Inactive)
REMARK    1  A    between atoms: C_2  and  O_3
REMARK    2  A    between atoms: C_2  and  C_4
REMARK    3  A    between atoms: C_4  and  C_5
REMARK    4  A    between atoms: C_5  and  C_6
REMARK    5  A    between atoms: C_6  and  C_7
REMARK    6  A    between atoms: C_12  and  C_13
REMARK                            x       y       z     vdW  Elec       q    Type
REMARK                         _______ _______ _______ _____ _____    ______ ____
ROOT
ATOM      1  C   UNL     1       3.333   5.786  18.553  0.00  0.00    +0.000 C 
ATOM      2  O   UNL     1       2.646   5.264  17.675  0.00  0.00    +0.000 OA
ATOM      3  N   UNL     1       4.710   5.798  18.585  0.00  0.00    +0.000 N 
ATOM      4  C   UNL     1       5.457   5.266  17.561  0.00  0.00    +0.000 A 
ATOM      5  C   UNL     1       5.172   5.312  16.179  0.00  0.00    +0.000 A 
ATOM      6  C   UNL     1       6.195   4.614  15.578  0.00  0.00    +0.000 A 
ATOM      7  N   UNL     1       6.978   4.169  16.601  0.00  0.00    +0.000 N 
ATOM      8  N   UNL     1       6.608   4.640  17.814  0.00  0.00    +0.000 NA
ATOM      9  H   UNL     1       5.208   5.903  19.457  0.00  0.00    +0.000 HD
ATOM     10  H   UNL     1       7.787   3.558  16.535  0.00  0.00    +0.000 HD
ENDROOT
BRANCH   6  11
ATOM     11  C   UNL     1       6.458   4.348  14.205  0.00  0.00    +0.000 A 
ATOM     12  C   UNL     1       7.428   4.919  13.395  0.00  0.00    +0.000 A 
ATOM     13  C   UNL     1       7.305   4.329  12.115  0.00  0.00    +0.000 A 
ATOM     14  C   UNL     1       6.263   3.442  12.209  0.00  0.00    +0.000 A 
ATOM     15  O   UNL     1       5.752   3.433  13.470  0.00  0.00    +0.000 OA
ENDBRANCH   6  11
BRANCH   1  16
ATOM     16  C   UNL     1       2.686   6.404  19.771  0.00  0.00    +0.000 C 
BRANCH  16  17
ATOM     17  C   UNL     1       1.728   5.439  20.477  0.00  0.00    +0.000 C 
BRANCH  17  18
ATOM     18  C   UNL     1       2.398   4.198  21.072  0.00  0.00    +0.000 C 
BRANCH  18  20
ATOM     19  O   UNL     1       1.456   2.298  22.243  0.00  0.00    +0.000 OA
ATOM     20  C   UNL     1       1.424   3.069  21.298  0.00  0.00    +0.000 C 
BRANCH  20  21
ATOM     21  O   UNL     1       0.494   2.968  20.321  0.00  0.00    +0.000 OA
ATOM     22  H   UNL     1       0.106   2.077  20.215  0.00  0.00    +0.000 HD
ENDBRANCH  20  21
ENDBRANCH  18  20
ENDBRANCH  17  18
ENDBRANCH  16  17
ENDBRANCH   1  16
TORSDOF 6
ENDMDL
MODEL 8
REMARK VINA RESULT:      -7.0      1.115      1.432
REMARK  Name = 
REMARK  6 active torsions:
REMARK  status: ('A' for Active; 'I' for Inactive)
REMARK    1  A    between atoms: C_2  and  O_3
REMARK    2  A    between atoms: C_2  and  C_4
REMARK    3  A    between atoms: C_4  and  C_5
REMARK    4  A    between atoms: C_5  and  C_6
REMARK    5  A    between atoms: C_6  and  C_7
REMARK    6  A    between atoms: C_12  and  C_13
REMARK                            x       y       z     vdW  Elec       q    Type
REMARK                         _______ _______ _______ _____ _____    ______ ____
ROOT
ATOM      1  C   UNL     1       4.135   2.881  19.143  0.00  0.00    +0.000 C 
ATOM      2  O   UNL     1       3.978   2.098  18.206  0.00  0.00    +0.000 OA
ATOM      3  N   UNL     1       5.063   3.899  19.182  0.00  0.00    +0.000 N 
ATOM      4  C   UNL     1       5.873   4.175  18.106  0.00  0.00    +0.000 A 
ATOM      5  C   UNL     1       5.531   4.111  16.738  0.00  0.00    +0.000 A 
ATOM      6  C   UNL     1       6.685   4.443  16.064  0.00  0.00    +0.000 A 
ATOM      7  N   UNL     1       7.625   4.634  17.032  0.00  0.00    +0.000 N 
ATOM      8  N   UNL     1       7.131   4.578  18.289  0.00  0.00    +0.000 NA
ATOM      9  H   UNL     1       5.397   4.263  20.063  0.00  0.00    +0.000 HD
ATOM     10  H   UNL     1       8.614   4.824  16.898  0.00  0.00    +0.000 HD
ENDROOT
BRANCH   6  11
ATOM     11  C   UNL     1       6.943   4.572  14.671  0.00  0.00    +0.000 A 
ATOM     12  C   UNL     1       6.328   3.906  13.622  0.00  0.00    +0.000 A 
ATOM     13  C   UNL     1       6.918   4.375  12.424  0.00  0.00    +0.000 A 
ATOM     14  C   UNL     1       7.865   5.289  12.806  0.00  0.00    +0.000 A 
ATOM     15  O   UNL     1       7.882   5.429  14.160  0.00  0.00    +0.000 OA
ENDBRANCH   6  11
BRANCH   1  16
ATOM     16  C   UNL     1       3.346   2.720  20.422  0.00  0.00    +0.000 C 
BRANCH  16  17
ATOM     17  C   UNL     1       1.856   3.015  20.229  0.00  0.00    +0.000 C 
BRANCH  17  18
ATOM     18  C   UNL     1       1.414   4.404  20.699  0.00  0.00    +0.000 C 
BRANCH  18  20
ATOM     19  O   UNL     1       2.174   6.623  20.095  0.00  0.00    +0.000 OA
ATOM     20  C   UNL     1       1.848   5.497  19.755  0.00  0.00    +0.000 C 
BRANCH  20  21
ATOM     21  O   UNL     1       1.824   5.118  18.457  0.00  0.00    +0.000 OA
ATOM     22  H   UNL     1       2.228   5.756  17.836  0.00  0.00    +0.000 HD
ENDBRANCH  20  21
ENDBRANCH  18  20
ENDBRANCH  17  18
ENDBRANCH  16  17
ENDBRANCH   1  16
TORSDOF 6
ENDMDL
MODEL 9
REMARK VINA RESULT:      -6.9      1.665      2.033
REMARK  Name = 
REMARK  6 active torsions:
REMARK  status: ('A' for Active; 'I' for Inactive)
REMARK    1  A    between atoms: C_2  and  O_3
REMARK    2  A    between atoms: C_2  and  C_4
REMARK    3  A    between atoms: C_4  and  C_5
REMARK    4  A    between atoms: C_5  and  C_6
REMARK    5  A    between atoms: C_6  and  C_7
REMARK    6  A    between atoms: C_12  and  C_13
REMARK                            x       y       z     vdW  Elec       q    Type
REMARK                         _______ _______ _______ _____ _____    ______ ____
ROOT
ATOM      1  C   UNL     1       3.102   2.563  18.047  0.00  0.00    +0.000 C 
ATOM      2  O   UNL     1       3.227   1.791  17.097  0.00  0.00    +0.000 OA
ATOM      3  N   UNL     1       3.915   3.645  18.306  0.00  0.00    +0.000 N 
ATOM      4  C   UNL     1       4.930   4.001  17.450  0.00  0.00    +0.000 A 
ATOM      5  C   UNL     1       4.922   3.942  16.040  0.00  0.00    +0.000 A 
ATOM      6  C   UNL     1       6.173   4.371  15.656  0.00  0.00    +0.000 A 
ATOM      7  N   UNL     1       6.845   4.610  16.817  0.00  0.00    +0.000 N 
ATOM      8  N   UNL     1       6.077   4.491  17.924  0.00  0.00    +0.000 NA
ATOM      9  H   UNL     1       4.006   4.013  19.242  0.00  0.00    +0.000 HD
ATOM     10  H   UNL     1       7.820   4.873  16.920  0.00  0.00    +0.000 HD
ENDROOT
BRANCH   6  11
ATOM     11  C   UNL     1       6.738   4.548  14.362  0.00  0.00    +0.000 A 
ATOM     12  C   UNL     1       6.445   3.854  13.199  0.00  0.00    +0.000 A 
ATOM     13  C   UNL     1       7.256   4.393  12.173  0.00  0.00    +0.000 A 
ATOM     14  C   UNL     1       8.006   5.376  12.766  0.00  0.00    +0.000 A 
ATOM     15  O   UNL     1       7.694   5.490  14.085  0.00  0.00    +0.000 OA
ENDBRANCH   6  11
BRANCH   1  16
ATOM     16  C   UNL     1       2.051   2.318  19.105  0.00  0.00    +0.000 C 
BRANCH  16  17
ATOM     17  C   UNL     1       1.044   3.468  19.204  0.00  0.00    +0.000 C 
BRANCH  17  18
ATOM     18  C   UNL     1       0.775   3.961  20.628  0.00  0.00    +0.000 C 
BRANCH  18  20
ATOM     19  O   UNL     1       2.447   3.400  22.288  0.00  0.00    +0.000 OA
ATOM     20  C   UNL     1       2.043   4.156  21.419  0.00  0.00    +0.000 C 
BRANCH  20  21
ATOM     21  O   UNL     1       2.706   5.288  21.089  0.00  0.00    +0.000 OA
ATOM     22  H   UNL     1       2.580   6.032  21.711  0.00  0.00    +0.000 HD
ENDBRANCH  20  21
ENDBRANCH  18  20
ENDBRANCH  17  18
ENDBRANCH  16  17
ENDBRANCH   1  16
TORSDOF 6
ENDMDL
