MODEL 1
REMARK VINA RESULT:      -9.9      0.000      0.000
REMARK  Name = 
REMARK  6 active torsions:
REMARK  status: ('A' for Active; 'I' for Inactive)
REMARK    1  A    between atoms: C_1  and  C_2
REMARK    2  A    between atoms: C_2  and  C_3
REMARK    3  A    between atoms: C_2  and  C_4
REMARK    4  A    between atoms: C_4  and  C_5
REMARK    5  A    between atoms: C_4  and  C_23
REMARK    6  A    between atoms: C_8  and  C_9
REMARK                            x       y       z     vdW  Elec       q    Type
REMARK                         _______ _______ _______ _____ _____    ______ ____
ROOT
ATOM      1  C   UNL     1       3.662   5.716  18.366  0.00  0.00    +0.000 A 
ATOM      2  C   UNL     1       3.467   6.808  17.596  0.00  0.00    +0.000 A 
ATOM      3  C   UNL     1       2.664   7.921  18.031  0.00  0.00    +0.000 A 
ATOM      4  C   UNL     1       2.072   7.884  19.232  0.00  0.00    +0.000 A 
ATOM      5  N   UNL     1       2.275   6.813  20.061  0.00  0.00    +0.000 N 
ATOM      6  C   UNL     1       3.044   5.722  19.739  0.00  0.00    +0.000 A 
ATOM      7  O   UNL     1       3.188   4.779  20.510  0.00  0.00    +0.000 OA
ATOM      8  H   UNL     1       1.834   6.795  20.972  0.00  0.00    +0.000 HD
ENDROOT
BRANCH   4   9
ATOM      9  C   UNL     1       1.199   8.968  19.682  0.00  0.00    +0.000 A 
ATOM     10  C   UNL     1       0.746   9.936  18.781  0.00  0.00    +0.000 A 
ATOM     11  C   UNL     1      -0.107  10.954  19.210  0.00  0.00    +0.000 A 
ATOM     12  C   UNL     1      -0.526  11.019  20.548  0.00  0.00    +0.000 A 
ATOM     13  C   UNL     1      -1.414  12.013  20.996  0.00  0.00    +0.000 A 
ATOM     14  C   UNL     1      -1.833  12.055  22.328  0.00  0.00    +0.000 A 
ATOM     15  C   UNL     1      -1.357  11.113  23.234  0.00  0.00    +0.000 A 
ATOM     16  C   UNL     1      -0.471  10.130  22.802  0.00  0.00    +0.000 A 
ATOM     17  F   UNL     1      -0.028   9.232  23.697  0.00  0.00    +0.000 F 
ATOM     18  C   UNL     1      -0.051  10.054  21.467  0.00  0.00    +0.000 A 
ATOM     19  C   UNL     1       0.815   9.041  21.024  0.00  0.00    +0.000 A 
ENDBRANCH   4   9
BRANCH   1  20
ATOM     20  C   UNL     1       4.388   4.430  17.929  0.00  0.00    +0.000 C 
BRANCH  20  21
ATOM     21  C   UNL     1       3.287   3.479  17.361  0.00  0.00    +0.000 C 
ATOM     22  S   UNL     1       1.547   4.017  17.549  0.00  0.00    +0.000 S 
ATOM     23  C   UNL     1       1.152   2.688  18.609  0.00  0.00    +0.000 C 
ATOM     24  O   UNL     1       0.099   2.578  19.211  0.00  0.00    +0.000 OA
ATOM     25  N   UNL     1       2.184   1.815  18.677  0.00  0.00    +0.000 N 
ATOM     26  C   UNL     1       3.313   2.089  17.978  0.00  0.00    +0.000 C 
ATOM     27  O   UNL     1       4.223   1.276  17.869  0.00  0.00    +0.000 OA
ATOM     28  H   UNL     1       2.084   0.942  19.171  0.00  0.00    +0.000 HD
ENDBRANCH  20  21
BRANCH  20  30
ATOM     29  C   UNL     1       6.961   4.498  17.832  0.00  0.00    +0.000 C 
ATOM     30  C   UNL     1       5.657   4.724  17.037  0.00  0.00    +0.000 C 
ATOM     31  C   UNL     1       5.799   3.887  15.760  0.00  0.00    +0.000 C 
ENDBRANCH  20  30
ENDBRANCH   1  20
TORSDOF 4
ENDMDL
MODEL 2
REMARK VINA RESULT:      -9.5      1.237      1.790
REMARK  Name = 
REMARK  6 active torsions:
REMARK  status: ('A' for Active; 'I' for Inactive)
REMARK    1  A    between atoms: C_1  and  C_2
REMARK    2  A    between atoms: C_2  and  C_3
REMARK    3  A    between atoms: C_2  and  C_4
REMARK    4  A    between atoms: C_4  and  C_5
REMARK    5  A    between atoms: C_4  and  C_23
REMARK    6  A    between atoms: C_8  and  C_9
REMARK                            x       y       z     vdW  Elec       q    Type
REMARK                         _______ _______ _______ _____ _____    ______ ____
ROOT
ATOM      1  C   UNL     1       3.583   5.580  18.535  0.00  0.00    +0.000 A 
ATOM      2  C   UNL     1       3.274   6.754  17.944  0.00  0.00    +0.000 A 
ATOM      3  C   UNL     1       2.499   7.769  18.609  0.00  0.00    +0.000 A 
ATOM      4  C   UNL     1       2.050   7.554  19.851  0.00  0.00    +0.000 A 
ATOM      5  N   UNL     1       2.373   6.394  20.504  0.00  0.00    +0.000 N 
ATOM      6  C   UNL     1       3.126   5.384  19.956  0.00  0.00    +0.000 A 
ATOM      7  O   UNL     1       3.381   4.356  20.575  0.00  0.00    +0.000 OA
ATOM      8  H   UNL     1       2.039   6.241  21.447  0.00  0.00    +0.000 HD
ENDROOT
BRANCH   4   9
ATOM      9  C   UNL     1       1.208   8.535  20.536  0.00  0.00    +0.000 A 
ATOM     10  C   UNL     1       1.130   8.552  21.931  0.00  0.00    +0.000 A 
ATOM     11  C   UNL     1       0.345   9.507  22.582  0.00  0.00    +0.000 A 
ATOM     12  C   UNL     1      -0.370  10.465  21.846  0.00  0.00    +0.000 A 
ATOM     13  C   UNL     1      -1.137  11.458  22.480  0.00  0.00    +0.000 A 
ATOM     14  C   UNL     1      -1.832  12.413  21.734  0.00  0.00    +0.000 A 
ATOM     15  C   UNL     1      -1.782  12.378  20.344  0.00  0.00    +0.000 A 
ATOM     16  C   UNL     1      -1.032  11.394  19.708  0.00  0.00    +0.000 A 
ATOM     17  F   UNL     1      -1.001  11.383  18.366  0.00  0.00    +0.000 F 
ATOM     18  C   UNL     1      -0.311  10.436  20.434  0.00  0.00    +0.000 A 
ATOM     19  C   UNL     1       0.474   9.464  19.792  0.00  0.00    +0.000 A 
ENDBRANCH   4   9
BRANCH   1  20
ATOM     20  C   UNL     1       4.285   4.391  17.854  0.00  0.00    +0.000 C 
BRANCH  20  21
ATOM     21  C   UNL     1       3.149   3.453  17.334  0.00  0.00    +0.000 C 
ATOM     22  S   UNL     1       1.426   4.022  17.576  0.00  0.00    +0.000 S 
ATOM     23  C   UNL     1       1.046   2.709  18.662  0.00  0.00    +0.000 C 
ATOM     24  O   UNL     1       0.014   2.622  19.302  0.00  0.00    +0.000 OA
ATOM     25  N   UNL     1       2.066   1.820  18.703  0.00  0.00    +0.000 N 
ATOM     26  C   UNL     1       3.174   2.068  17.962  0.00  0.00    +0.000 C 
ATOM     27  O   UNL     1       4.067   1.239  17.830  0.00  0.00    +0.000 OA
ATOM     28  H   UNL     1       1.968   0.953  19.209  0.00  0.00    +0.000 HD
ENDBRANCH  20  21
BRANCH  20  30
ATOM     29  C   UNL     1       6.809   4.732  17.466  0.00  0.00    +0.000 C 
ATOM     30  C   UNL     1       5.403   4.849  16.837  0.00  0.00    +0.000 C 
ATOM     31  C   UNL     1       5.475   4.079  15.513  0.00  0.00    +0.000 C 
ENDBRANCH  20  30
ENDBRANCH   1  20
TORSDOF 4
ENDMDL
MODEL 3
REMARK VINA RESULT:      -9.3      2.246      3.578
REMARK  Name = 
REMARK  6 active torsions:
REMARK  status: ('A' for Active; 'I' for Inactive)
REMARK    1  A    between atoms: C_1  and  C_2
REMARK    2  A    between atoms: C_2  and  C_3
REMARK    3  A    between atoms: C_2  and  C_4
REMARK    4  A    between atoms: C_4  and  C_5
REMARK    5  A    between atoms: C_4  and  C_23
REMARK    6  A    between atoms: C_8  and  C_9
REMARK                            x       y       z     vdW  Elec       q    Type
REMARK                         _______ _______ _______ _____ _____    ______ ____
ROOT
ATOM      1  C   UNL     1       2.817   6.778  18.606  0.00  0.00    +0.000 A 
ATOM      2  C   UNL     1       2.411   7.971  18.120  0.00  0.00    +0.000 A 
ATOM      3  C   UNL     1       1.627   8.893  18.900  0.00  0.00    +0.000 A 
ATOM      4  C   UNL     1       1.267   8.568  20.148  0.00  0.00    +0.000 A 
ATOM      5  N   UNL     1       1.690   7.385  20.695  0.00  0.00    +0.000 N 
ATOM      6  C   UNL     1       2.460   6.460  20.033  0.00  0.00    +0.000 A 
ATOM      7  O   UNL     1       2.806   5.408  20.560  0.00  0.00    +0.000 OA
ATOM      8  H   UNL     1       1.424   7.149  21.643  0.00  0.00    +0.000 HD
ENDROOT
BRANCH   4   9
ATOM      9  C   UNL     1       0.420   9.450  20.949  0.00  0.00    +0.000 A 
ATOM     10  C   UNL     1       0.281   9.244  22.325  0.00  0.00    +0.000 A 
ATOM     11  C   UNL     1      -0.509  10.104  23.090  0.00  0.00    +0.000 A 
ATOM     12  C   UNL     1      -1.170  11.189  22.493  0.00  0.00    +0.000 A 
ATOM     13  C   UNL     1      -1.940  12.090  23.248  0.00  0.00    +0.000 A 
ATOM     14  C   UNL     1      -2.580  13.173  22.641  0.00  0.00    +0.000 A 
ATOM     15  C   UNL     1      -2.471  13.360  21.267  0.00  0.00    +0.000 A 
ATOM     16  C   UNL     1      -1.717  12.470  20.509  0.00  0.00    +0.000 A 
ATOM     17  F   UNL     1      -1.627  12.674  19.185  0.00  0.00    +0.000 F 
ATOM     18  C   UNL     1      -1.049  11.386  21.097  0.00  0.00    +0.000 A 
ATOM     19  C   UNL     1      -0.260  10.508  20.338  0.00  0.00    +0.000 A 
ENDBRANCH   4   9
BRANCH   1  20
ATOM     20  C   UNL     1       3.537   5.681  17.801  0.00  0.00    +0.000 C 
BRANCH  20  21
ATOM     21  C   UNL     1       5.045   5.768  18.197  0.00  0.00    +0.000 C 
ATOM     22  S   UNL     1       6.211   6.337  16.904  0.00  0.00    +0.000 S 
ATOM     23  C   UNL     1       7.042   4.802  16.847  0.00  0.00    +0.000 C 
ATOM     24  O   UNL     1       7.886   4.509  16.020  0.00  0.00    +0.000 OA
ATOM     25  N   UNL     1       6.601   3.990  17.834  0.00  0.00    +0.000 N 
ATOM     26  C   UNL     1       5.625   4.441  18.661  0.00  0.00    +0.000 C 
ATOM     27  O   UNL     1       5.288   3.825  19.665  0.00  0.00    +0.000 OA
ATOM     28  H   UNL     1       7.047   3.101  18.002  0.00  0.00    +0.000 HD
ENDBRANCH  20  21
BRANCH  20  30
ATOM     29  C   UNL     1       1.294   4.419  17.672  0.00  0.00    +0.000 C 
ATOM     30  C   UNL     1       2.814   4.281  17.906  0.00  0.00    +0.000 C 
ATOM     31  C   UNL     1       3.287   3.197  16.930  0.00  0.00    +0.000 C 
ENDBRANCH  20  30
ENDBRANCH   1  20
TORSDOF 4
ENDMDL
MODEL 4
REMARK VINA RESULT:      -9.3      2.564      3.856
REMARK  Name = 
REMARK  6 active torsions:
REMARK  status: ('A' for Active; 'I' for Inactive)
REMARK    1  A    between atoms: C_1  and  C_2
REMARK    2  A    between atoms: C_2  and  C_3
REMARK    3  A    between atoms: C_2  and  C_4
REMARK    4  A    between atoms: C_4  and  C_5
REMARK    5  A    between atoms: C_4  and  C_23
REMARK    6  A    between atoms: C_8  and  C_9
REMARK                            x       y       z     vdW  Elec       q    Type
REMARK                         _______ _______ _______ _____ _____    ______ ____
ROOT
ATOM      1  C   UNL     1       2.626   6.653  18.757  0.00  0.00    +0.000 A 
ATOM      2  C   UNL     1       2.187   6.411  20.011  0.00  0.00    +0.000 A 
ATOM      3  C   UNL     1       1.470   7.396  20.777  0.00  0.00    +0.000 A 
ATOM      4  C   UNL     1       1.231   8.604  20.251  0.00  0.00    +0.000 A 
ATOM      5  N   UNL     1       1.624   8.878  18.967  0.00  0.00    +0.000 N 
ATOM      6  C   UNL     1       2.290   7.992  18.156  0.00  0.00    +0.000 A 
ATOM      7  O   UNL     1       2.632   8.287  17.016  0.00  0.00    +0.000 OA
ATOM      8  H   UNL     1       1.432   9.789  18.570  0.00  0.00    +0.000 HD
ENDROOT
BRANCH   4   9
ATOM      9  C   UNL     1       0.560   9.650  21.021  0.00  0.00    +0.000 A 
ATOM     10  C   UNL     1      -0.156   9.330  22.178  0.00  0.00    +0.000 A 
ATOM     11  C   UNL     1      -0.774  10.335  22.924  0.00  0.00    +0.000 A 
ATOM     12  C   UNL     1      -0.681  11.679  22.529  0.00  0.00    +0.000 A 
ATOM     13  C   UNL     1      -1.263  12.712  23.284  0.00  0.00    +0.000 A 
ATOM     14  C   UNL     1      -1.149  14.046  22.885  0.00  0.00    +0.000 A 
ATOM     15  C   UNL     1      -0.465  14.363  21.715  0.00  0.00    +0.000 A 
ATOM     16  C   UNL     1       0.108  13.347  20.957  0.00  0.00    +0.000 A 
ATOM     17  F   UNL     1       0.763  13.680  19.833  0.00  0.00    +0.000 F 
ATOM     18  C   UNL     1       0.024  12.003  21.346  0.00  0.00    +0.000 A 
ATOM     19  C   UNL     1       0.632  10.981  20.600  0.00  0.00    +0.000 A 
ENDBRANCH   4   9
BRANCH   1  20
ATOM     20  C   UNL     1       3.514   5.713  17.921  0.00  0.00    +0.000 C 
BRANCH  20  21
ATOM     21  C   UNL     1       4.980   5.955  18.402  0.00  0.00    +0.000 C 
ATOM     22  S   UNL     1       6.218   6.365  17.117  0.00  0.00    +0.000 S 
ATOM     23  C   UNL     1       7.121   4.895  17.385  0.00  0.00    +0.000 C 
ATOM     24  O   UNL     1       8.041   4.517  16.684  0.00  0.00    +0.000 OA
ATOM     25  N   UNL     1       6.640   4.237  18.464  0.00  0.00    +0.000 N 
ATOM     26  C   UNL     1       5.582   4.763  19.129  0.00  0.00    +0.000 C 
ATOM     27  O   UNL     1       5.193   4.306  20.197  0.00  0.00    +0.000 OA
ATOM     28  H   UNL     1       7.112   3.417  18.815  0.00  0.00    +0.000 HD
ENDBRANCH  20  21
BRANCH  20  30
ATOM     29  C   UNL     1       1.445   4.202  17.645  0.00  0.00    +0.000 C 
ATOM     30  C   UNL     1       2.969   4.231  17.894  0.00  0.00    +0.000 C 
ATOM     31  C   UNL     1       3.579   3.302  16.837  0.00  0.00    +0.000 C 
ENDBRANCH  20  30
ENDBRANCH   1  20
TORSDOF 4
ENDMDL
MODEL 5
REMARK VINA RESULT:      -9.0      2.072      3.200
REMARK  Name = 
REMARK  6 active torsions:
REMARK  status: ('A' for Active; 'I' for Inactive)
REMARK    1  A    between atoms: C_1  and  C_2
REMARK    2  A    between atoms: C_2  and  C_3
REMARK    3  A    between atoms: C_2  and  C_4
REMARK    4  A    between atoms: C_4  and  C_5
REMARK    5  A    between atoms: C_4  and  C_23
REMARK    6  A    between atoms: C_8  and  C_9
REMARK                            x       y       z     vdW  Elec       q    Type
REMARK                         _______ _______ _______ _____ _____    ______ ____
ROOT
ATOM      1  C   UNL     1       2.931   7.012  18.183  0.00  0.00    +0.000 A 
ATOM      2  C   UNL     1       2.627   8.094  17.433  0.00  0.00    +0.000 A 
ATOM      3  C   UNL     1       1.791   9.158  17.923  0.00  0.00    +0.000 A 
ATOM      4  C   UNL     1       1.276   9.084  19.156  0.00  0.00    +0.000 A 
ATOM      5  N   UNL     1       1.590   8.024  19.965  0.00  0.00    +0.000 N 
ATOM      6  C   UNL     1       2.398   6.979  19.590  0.00  0.00    +0.000 A 
ATOM      7  O   UNL     1       2.642   6.044  20.345  0.00  0.00    +0.000 OA
ATOM      8  H   UNL     1       1.206   7.978  20.901  0.00  0.00    +0.000 HD
ENDROOT
BRANCH   4   9
ATOM      9  C   UNL     1       0.372  10.115  19.666  0.00  0.00    +0.000 A 
ATOM     10  C   UNL     1      -0.146  11.090  18.809  0.00  0.00    +0.000 A 
ATOM     11  C   UNL     1      -1.028  12.058  19.295  0.00  0.00    +0.000 A 
ATOM     12  C   UNL     1      -1.412  12.062  20.645  0.00  0.00    +0.000 A 
ATOM     13  C   UNL     1      -2.328  13.002  21.149  0.00  0.00    +0.000 A 
ATOM     14  C   UNL     1      -2.710  12.984  22.492  0.00  0.00    +0.000 A 
ATOM     15  C   UNL     1      -2.170  12.035  23.354  0.00  0.00    +0.000 A 
ATOM     16  C   UNL     1      -1.257  11.105  22.866  0.00  0.00    +0.000 A 
ATOM     17  F   UNL     1      -0.751  10.199  23.719  0.00  0.00    +0.000 F 
ATOM     18  C   UNL     1      -0.871  11.090  21.519  0.00  0.00    +0.000 A 
ATOM     19  C   UNL     1       0.023  10.129  21.020  0.00  0.00    +0.000 A 
ENDBRANCH   4   9
BRANCH   1  20
ATOM     20  C   UNL     1       3.701   5.772  17.695  0.00  0.00    +0.000 C 
BRANCH  20  21
ATOM     21  C   UNL     1       5.174   5.953  18.179  0.00  0.00    +0.000 C 
ATOM     22  S   UNL     1       6.449   6.198  16.888  0.00  0.00    +0.000 S 
ATOM     23  C   UNL     1       7.254   4.696  17.266  0.00  0.00    +0.000 C 
ATOM     24  O   UNL     1       8.156   4.214  16.605  0.00  0.00    +0.000 OA
ATOM     25  N   UNL     1       6.722   4.143  18.380  0.00  0.00    +0.000 N 
ATOM     26  C   UNL     1       5.692   4.777  18.993  0.00  0.00    +0.000 C 
ATOM     27  O   UNL     1       5.265   4.419  20.084  0.00  0.00    +0.000 OA
ATOM     28  H   UNL     1       7.137   3.321  18.791  0.00  0.00    +0.000 HD
ENDBRANCH  20  21
BRANCH  20  30
ATOM     29  C   UNL     1       1.465   4.491  17.655  0.00  0.00    +0.000 C 
ATOM     30  C   UNL     1       2.958   4.422  18.044  0.00  0.00    +0.000 C 
ATOM     31  C   UNL     1       3.502   3.154  17.376  0.00  0.00    +0.000 C 
ENDBRANCH  20  30
ENDBRANCH   1  20
TORSDOF 4
ENDMDL
MODEL 6
REMARK VINA RESULT:      -8.9      1.233      1.463
REMARK  Name = 
REMARK  6 active torsions:
REMARK  status: ('A' for Active; 'I' for Inactive)
REMARK    1  A    between atoms: C_1  and  C_2
REMARK    2  A    between atoms: C_2  and  C_3
REMARK    3  A    between atoms: C_2  and  C_4
REMARK    4  A    between atoms: C_4  and  C_5
REMARK    5  A    between atoms: C_4  and  C_23
REMARK    6  A    between atoms: C_8  and  C_9
REMARK                            x       y       z     vdW  Elec       q    Type
REMARK                         _______ _______ _______ _____ _____    ______ ____
ROOT
ATOM      1  C   UNL     1       3.834   5.683  19.017  0.00  0.00    +0.000 A 
ATOM      2  C   UNL     1       3.066   5.698  20.128  0.00  0.00    +0.000 A 
ATOM      3  C   UNL     1       2.126   6.753  20.399  0.00  0.00    +0.000 A 
ATOM      4  C   UNL     1       2.004   7.771  19.537  0.00  0.00    +0.000 A 
ATOM      5  N   UNL     1       2.734   7.776  18.378  0.00  0.00    +0.000 N 
ATOM      6  C   UNL     1       3.634   6.800  18.028  0.00  0.00    +0.000 A 
ATOM      7  O   UNL     1       4.275   6.852  16.984  0.00  0.00    +0.000 OA
ATOM      8  H   UNL     1       2.630   8.543  17.725  0.00  0.00    +0.000 HD
ENDROOT
BRANCH   4   9
ATOM      9  C   UNL     1       1.105   8.892  19.808  0.00  0.00    +0.000 A 
ATOM     10  C   UNL     1       0.668   9.718  18.768  0.00  0.00    +0.000 A 
ATOM     11  C   UNL     1      -0.210  10.772  19.027  0.00  0.00    +0.000 A 
ATOM     12  C   UNL     1      -0.671  11.015  20.330  0.00  0.00    +0.000 A 
ATOM     13  C   UNL     1      -1.585  12.046  20.609  0.00  0.00    +0.000 A 
ATOM     14  C   UNL     1      -2.045  12.266  21.910  0.00  0.00    +0.000 A 
ATOM     15  C   UNL     1      -1.585  11.466  22.952  0.00  0.00    +0.000 A 
ATOM     16  C   UNL     1      -0.675  10.447  22.687  0.00  0.00    +0.000 A 
ATOM     17  F   UNL     1      -0.249   9.690  23.710  0.00  0.00    +0.000 F 
ATOM     18  C   UNL     1      -0.213  10.195  21.388  0.00  0.00    +0.000 A 
ATOM     19  C   UNL     1       0.678   9.145  21.115  0.00  0.00    +0.000 A 
ENDBRANCH   4   9
BRANCH   1  20
ATOM     20  C   UNL     1       4.955   4.672  18.716  0.00  0.00    +0.000 C 
BRANCH  20  21
ATOM     21  C   UNL     1       4.249   3.377  18.201  0.00  0.00    +0.000 C 
ATOM     22  S   UNL     1       2.628   3.587  17.378  0.00  0.00    +0.000 S 
ATOM     23  C   UNL     1       1.777   2.708  18.624  0.00  0.00    +0.000 C 
ATOM     24  O   UNL     1       0.564   2.627  18.702  0.00  0.00    +0.000 OA
ATOM     25  N   UNL     1       2.653   2.152  19.492  0.00  0.00    +0.000 N 
ATOM     26  C   UNL     1       3.979   2.359  19.299  0.00  0.00    +0.000 C 
ATOM     27  O   UNL     1       4.831   1.765  19.949  0.00  0.00    +0.000 OA
ATOM     28  H   UNL     1       2.330   1.529  20.216  0.00  0.00    +0.000 HD
ENDBRANCH  20  21
BRANCH  20  30
ATOM     29  C   UNL     1       7.311   5.715  18.717  0.00  0.00    +0.000 C 
ATOM     30  C   UNL     1       6.112   5.294  17.840  0.00  0.00    +0.000 C 
ATOM     31  C   UNL     1       6.696   4.392  16.746  0.00  0.00    +0.000 C 
ENDBRANCH  20  30
ENDBRANCH   1  20
TORSDOF 4
ENDMDL
MODEL 7
REMARK VINA RESULT:      -8.8      2.097      3.189
REMARK  Name = 
REMARK  6 active torsions:
REMARK  status: ('A' for Active; 'I' for Inactive)
REMARK    1  A    between atoms: C_1  and  C_2
REMARK    2  A    between atoms: C_2  and  C_3
REMARK    3  A    between atoms: C_2  and  C_4
REMARK    4  A    between atoms: C_4  and  C_5
REMARK    5  A    between atoms: C_4  and  C_23
REMARK    6  A    between atoms: C_8  and  C_9
REMARK                            x       y       z     vdW  Elec       q    Type
REMARK                         _______ _______ _______ _____ _____    ______ ____
ROOT
ATOM      1  C   UNL     1       3.436   5.601  18.253  0.00  0.00    +0.000 A 
ATOM      2  C   UNL     1       3.254   6.678  17.458  0.00  0.00    +0.000 A 
ATOM      3  C   UNL     1       2.580   7.865  17.915  0.00  0.00    +0.000 A 
ATOM      4  C   UNL     1       2.098   7.917  19.163  0.00  0.00    +0.000 A 
ATOM      5  N   UNL     1       2.295   6.863  20.016  0.00  0.00    +0.000 N 
ATOM      6  C   UNL     1       2.947   5.704  19.673  0.00  0.00    +0.000 A 
ATOM      7  O   UNL     1       3.089   4.780  20.467  0.00  0.00    +0.000 OA
ATOM      8  H   UNL     1       1.937   6.912  20.961  0.00  0.00    +0.000 HD
ENDROOT
BRANCH   4   9
ATOM      9  C   UNL     1       1.354   9.081  19.642  0.00  0.00    +0.000 A 
ATOM     10  C   UNL     1       1.157  10.189  18.812  0.00  0.00    +0.000 A 
ATOM     11  C   UNL     1       0.425  11.288  19.265  0.00  0.00    +0.000 A 
ATOM     12  C   UNL     1      -0.129  11.295  20.556  0.00  0.00    +0.000 A 
ATOM     13  C   UNL     1      -0.901  12.373  21.020  0.00  0.00    +0.000 A 
ATOM     14  C   UNL     1      -1.457  12.359  22.302  0.00  0.00    +0.000 A 
ATOM     15  C   UNL     1      -1.235  11.272  23.142  0.00  0.00    +0.000 A 
ATOM     16  C   UNL     1      -0.465  10.203  22.693  0.00  0.00    +0.000 A 
ATOM     17  F   UNL     1      -0.266   9.167  23.523  0.00  0.00    +0.000 F 
ATOM     18  C   UNL     1       0.088  10.185  21.405  0.00  0.00    +0.000 A 
ATOM     19  C   UNL     1       0.835   9.091  20.940  0.00  0.00    +0.000 A 
ENDBRANCH   4   9
BRANCH   1  20
ATOM     20  C   UNL     1       4.020   4.248  17.809  0.00  0.00    +0.000 C 
BRANCH  20  21
ATOM     21  C   UNL     1       5.573   4.418  17.820  0.00  0.00    +0.000 C 
ATOM     22  S   UNL     1       6.243   5.872  18.708  0.00  0.00    +0.000 S 
ATOM     23  C   UNL     1       6.882   6.586  17.249  0.00  0.00    +0.000 C 
ATOM     24  O   UNL     1       7.353   7.707  17.182  0.00  0.00    +0.000 OA
ATOM     25  N   UNL     1       6.761   5.727  16.211  0.00  0.00    +0.000 N 
ATOM     26  C   UNL     1       6.179   4.521  16.429  0.00  0.00    +0.000 C 
ATOM     27  O   UNL     1       6.175   3.639  15.579  0.00  0.00    +0.000 OA
ATOM     28  H   UNL     1       7.170   5.946  15.316  0.00  0.00    +0.000 HD
ENDBRANCH  20  21
BRANCH  20  30
ATOM     29  C   UNL     1       2.419   2.233  17.701  0.00  0.00    +0.000 C 
ATOM     30  C   UNL     1       3.394   3.030  18.595  0.00  0.00    +0.000 C 
ATOM     31  C   UNL     1       4.383   1.999  19.152  0.00  0.00    +0.000 C 
ENDBRANCH  20  30
ENDBRANCH   1  20
TORSDOF 4
ENDMDL
MODEL 8
REMARK VINA RESULT:      -8.8      5.797      7.058
REMARK  Name = 
REMARK  6 active torsions:
REMARK  status: ('A' for Active; 'I' for Inactive)
REMARK    1  A    between atoms: C_1  and  C_2
REMARK    2  A    between atoms: C_2  and  C_3
REMARK    3  A    between atoms: C_2  and  C_4
REMARK    4  A    between atoms: C_4  and  C_5
REMARK    5  A    between atoms: C_4  and  C_23
REMARK    6  A    between atoms: C_8  and  C_9
REMARK                            x       y       z     vdW  Elec       q    Type
REMARK                         _______ _______ _______ _____ _____    ______ ____
ROOT
ATOM      1  C   UNL     1       7.011   6.336  17.774  0.00  0.00    +0.000 A 
ATOM      2  C   UNL     1       6.810   7.467  17.064  0.00  0.00    +0.000 A 
ATOM      3  C   UNL     1       7.495   8.697  17.368  0.00  0.00    +0.000 A 
ATOM      4  C   UNL     1       8.353   8.743  18.395  0.00  0.00    +0.000 A 
ATOM      5  N   UNL     1       8.617   7.609  19.116  0.00  0.00    +0.000 N 
ATOM      6  C   UNL     1       8.030   6.389  18.880  0.00  0.00    +0.000 A 
ATOM      7  O   UNL     1       8.289   5.403  19.561  0.00  0.00    +0.000 OA
ATOM      8  H   UNL     1       9.275   7.647  19.884  0.00  0.00    +0.000 HD
ENDROOT
BRANCH   4   9
ATOM      9  C   UNL     1       9.020   9.989  18.772  0.00  0.00    +0.000 A 
ATOM     10  C   UNL     1       9.853  10.650  17.865  0.00  0.00    +0.000 A 
ATOM     11  C   UNL     1      10.468  11.852  18.221  0.00  0.00    +0.000 A 
ATOM     12  C   UNL     1      10.255  12.416  19.489  0.00  0.00    +0.000 A 
ATOM     13  C   UNL     1      10.833  13.644  19.857  0.00  0.00    +0.000 A 
ATOM     14  C   UNL     1      10.600  14.198  21.117  0.00  0.00    +0.000 A 
ATOM     15  C   UNL     1       9.798  13.525  22.033  0.00  0.00    +0.000 A 
ATOM     16  C   UNL     1       9.228  12.305  21.682  0.00  0.00    +0.000 A 
ATOM     17  F   UNL     1       8.458  11.676  22.584  0.00  0.00    +0.000 F 
ATOM     18  C   UNL     1       9.431  11.737  20.416  0.00  0.00    +0.000 A 
ATOM     19  C   UNL     1       8.827  10.524  20.049  0.00  0.00    +0.000 A 
ENDBRANCH   4   9
BRANCH   1  20
ATOM     20  C   UNL     1       6.227   5.022  17.606  0.00  0.00    +0.000 C 
BRANCH  20  21
ATOM     21  C   UNL     1       5.043   5.087  18.624  0.00  0.00    +0.000 C 
ATOM     22  S   UNL     1       4.536   3.512  19.408  0.00  0.00    +0.000 S 
ATOM     23  C   UNL     1       2.961   3.536  18.654  0.00  0.00    +0.000 C 
ATOM     24  O   UNL     1       2.166   2.615  18.693  0.00  0.00    +0.000 OA
ATOM     25  N   UNL     1       2.764   4.710  18.010  0.00  0.00    +0.000 N 
ATOM     26  C   UNL     1       3.758   5.632  18.021  0.00  0.00    +0.000 C 
ATOM     27  O   UNL     1       3.594   6.769  17.594  0.00  0.00    +0.000 OA
ATOM     28  H   UNL     1       1.867   4.925  17.603  0.00  0.00    +0.000 HD
ENDBRANCH  20  21
BRANCH  20  30
ATOM     29  C   UNL     1       7.162   4.816  15.215  0.00  0.00    +0.000 C 
ATOM     30  C   UNL     1       5.899   4.701  16.095  0.00  0.00    +0.000 C 
ATOM     31  C   UNL     1       5.318   3.312  15.806  0.00  0.00    +0.000 C 
ENDBRANCH  20  30
ENDBRANCH   1  20
TORSDOF 4
ENDMDL
MODEL 9
REMARK VINA RESULT:      -8.6      6.245      7.870
REMARK  Name = 
REMARK  6 active torsions:
REMARK  status: ('A' for Active; 'I' for Inactive)
REMARK    1  A    between atoms: C_1  and  C_2
REMARK    2  A    between atoms: C_2  and  C_3
REMARK    3  A    between atoms: C_2  and  C_4
REMARK    4  A    between atoms: C_4  and  C_5
REMARK    5  A    between atoms: C_4  and  C_23
REMARK    6  A    between atoms: C_8  and  C_9
REMARK                            x       y       z     vdW  Elec       q    Type
REMARK                         _______ _______ _______ _____ _____    ______ ____
ROOT
ATOM      1  C   UNL     1       6.994   6.488  17.723  0.00  0.00    +0.000 A 
ATOM      2  C   UNL     1       6.826   7.663  17.078  0.00  0.00    +0.000 A 
ATOM      3  C   UNL     1       7.545   8.853  17.449  0.00  0.00    +0.000 A 
ATOM      4  C   UNL     1       8.404   8.818  18.476  0.00  0.00    +0.000 A 
ATOM      5  N   UNL     1       8.634   7.637  19.133  0.00  0.00    +0.000 N 
ATOM      6  C   UNL     1       8.013   6.451  18.830  0.00  0.00    +0.000 A 
ATOM      7  O   UNL     1       8.243   5.420  19.454  0.00  0.00    +0.000 OA
ATOM      8  H   UNL     1       9.293   7.614  19.901  0.00  0.00    +0.000 HD
ENDROOT
BRANCH   4   9
ATOM      9  C   UNL     1       9.106  10.020  18.922  0.00  0.00    +0.000 A 
ATOM     10  C   UNL     1       9.223  10.309  20.285  0.00  0.00    +0.000 A 
ATOM     11  C   UNL     1       9.915  11.445  20.708  0.00  0.00    +0.000 A 
ATOM     12  C   UNL     1      10.508  12.309  19.774  0.00  0.00    +0.000 A 
ATOM     13  C   UNL     1      11.243  13.439  20.176  0.00  0.00    +0.000 A 
ATOM     14  C   UNL     1      11.839  14.281  19.235  0.00  0.00    +0.000 A 
ATOM     15  C   UNL     1      11.695  14.014  17.877  0.00  0.00    +0.000 A 
ATOM     16  C   UNL     1      10.964  12.903  17.468  0.00  0.00    +0.000 A 
ATOM     17  F   UNL     1      10.842  12.668  16.152  0.00  0.00    +0.000 F 
ATOM     18  C   UNL     1      10.372  12.032  18.394  0.00  0.00    +0.000 A 
ATOM     19  C   UNL     1       9.665  10.891  17.982  0.00  0.00    +0.000 A 
ENDBRANCH   4   9
BRANCH   1  20
ATOM     20  C   UNL     1       6.172   5.209  17.482  0.00  0.00    +0.000 C 
BRANCH  20  21
ATOM     21  C   UNL     1       5.073   5.181  18.591  0.00  0.00    +0.000 C 
ATOM     22  S   UNL     1       4.560   3.537  19.212  0.00  0.00    +0.000 S 
ATOM     23  C   UNL     1       2.936   3.707  18.594  0.00  0.00    +0.000 C 
ATOM     24  O   UNL     1       2.108   2.814  18.582  0.00  0.00    +0.000 OA
ATOM     25  N   UNL     1       2.740   4.958  18.120  0.00  0.00    +0.000 N 
ATOM     26  C   UNL     1       3.769   5.840  18.166  0.00  0.00    +0.000 C 
ATOM     27  O   UNL     1       3.621   7.026  17.899  0.00  0.00    +0.000 OA
ATOM     28  H   UNL     1       1.824   5.252  17.816  0.00  0.00    +0.000 HD
ENDBRANCH  20  21
BRANCH  20  30
ATOM     29  C   UNL     1       5.353   6.419  15.361  0.00  0.00    +0.000 C 
ATOM     30  C   UNL     1       5.722   5.052  15.977  0.00  0.00    +0.000 C 
ATOM     31  C   UNL     1       6.748   4.430  15.022  0.00  0.00    +0.000 C 
ENDBRANCH  20  30
ENDBRANCH   1  20
TORSDOF 4
ENDMDL
