MODEL 1
REMARK VINA RESULT:      -7.6      0.000      0.000
REMARK  Name = 
REMARK  6 active torsions:
REMARK  status: ('A' for Active; 'I' for Inactive)
REMARK    1  A    between atoms: N_1  and  C_2
REMARK    2  A    between atoms: C_2  and  C_3
REMARK    3  A    between atoms: C_2  and  C_10
REMARK    4  A    between atoms: C_3  and  C_4
REMARK    5  A    between atoms: N_12  and  C_13
REMARK    6  A    between atoms: C_13  and  C_14
REMARK                            x       y       z     vdW  Elec       q    Type
REMARK                         _______ _______ _______ _____ _____    ______ ____
ROOT
ATOM      1  C   UNL     1       6.221   5.383  18.631  0.00  0.00    +0.000 C 
ATOM      2  O   UNL     1       6.337   5.107  19.826  0.00  0.00    +0.000 OA
ATOM      3  N   UNL     1       7.035   6.310  18.022  0.00  0.00    +0.000 N 
ATOM      4  H   UNL     1       6.900   6.480  17.021  0.00  0.00    +0.000 HD
ENDROOT
BRANCH   1   5
ATOM      5  C   UNL     1       5.132   4.779  17.714  0.00  0.00    +0.000 C 
BRANCH   5   6
ATOM      6  N   UNL     1       5.006   3.322  17.975  0.00  0.00    +0.000 NA
ATOM      7  H   UNL     1       4.727   2.866  17.101  0.00  0.00    +0.000 HD
ATOM      8  H   UNL     1       4.223   3.171  18.614  0.00  0.00    +0.000 HD
ENDBRANCH   5   6
BRANCH   5   9
ATOM      9  C   UNL     1       3.800   5.540  17.906  0.00  0.00    +0.000 C 
BRANCH   9  10
ATOM     10  C   UNL     1       2.745   4.788  18.694  0.00  0.00    +0.000 A 
ATOM     11  C   UNL     1       2.610   4.983  20.077  0.00  0.00    +0.000 A 
ATOM     12  C   UNL     1       1.648   4.274  20.804  0.00  0.00    +0.000 A 
ATOM     13  C   UNL     1       0.808   3.370  20.158  0.00  0.00    +0.000 A 
ATOM     14  C   UNL     1       0.918   3.186  18.782  0.00  0.00    +0.000 A 
ATOM     15  C   UNL     1       1.876   3.895  18.053  0.00  0.00    +0.000 A 
ENDBRANCH   9  10
ENDBRANCH   5   9
ENDBRANCH   1   5
BRANCH   3  16
ATOM     16  C   UNL     1       8.121   6.978  18.708  0.00  0.00    +0.000 C 
BRANCH  16  17
ATOM     17  C   UNL     1       8.249   8.416  18.215  0.00  0.00    +0.000 C 
ATOM     18  O   UNL     1       7.753   8.753  17.140  0.00  0.00    +0.000 OA
ATOM     19  N   UNL     1       8.983   9.226  19.063  0.00  0.00    +0.000 N 
ATOM     20  C   UNL     1       9.203  10.540  18.749  0.00  0.00    +0.000 A 
ATOM     21  N   UNL     1       8.590  11.283  17.864  0.00  0.00    +0.000 NA
ATOM     22  C   UNL     1       9.201  12.519  17.798  0.00  0.00    +0.000 A 
ATOM     23  C   UNL     1      10.270  12.671  18.647  0.00  0.00    +0.000 A 
ATOM     24 BR   UNL     1      11.357  14.186  18.715  0.00  0.00    +0.000 Br
ATOM     25  S   UNL     1      10.475  11.287  19.615  0.00  0.00    +0.000 S 
ATOM     26  H   UNL     1       9.507   8.838  19.834  0.00  0.00    +0.000 HD
ENDBRANCH  16  17
ENDBRANCH   3  16
TORSDOF 6
ENDMDL
MODEL 2
REMARK VINA RESULT:      -7.5      0.229      1.052
REMARK  Name = 
REMARK  6 active torsions:
REMARK  status: ('A' for Active; 'I' for Inactive)
REMARK    1  A    between atoms: N_1  and  C_2
REMARK    2  A    between atoms: C_2  and  C_3
REMARK    3  A    between atoms: C_2  and  C_10
REMARK    4  A    between atoms: C_3  and  C_4
REMARK    5  A    between atoms: N_12  and  C_13
REMARK    6  A    between atoms: C_13  and  C_14
REMARK                            x       y       z     vdW  Elec       q    Type
REMARK                         _______ _______ _______ _____ _____    ______ ____
ROOT
ATOM      1  C   UNL     1       6.047   5.419  18.517  0.00  0.00    +0.000 C 
ATOM      2  O   UNL     1       5.937   5.378  19.743  0.00  0.00    +0.000 OA
ATOM      3  N   UNL     1       7.054   6.131  17.906  0.00  0.00    +0.000 N 
ATOM      4  H   UNL     1       7.101   6.109  16.883  0.00  0.00    +0.000 HD
ENDROOT
BRANCH   1   5
ATOM      5  C   UNL     1       5.052   4.744  17.545  0.00  0.00    +0.000 C 
BRANCH   5   6
ATOM      6  N   UNL     1       5.023   3.280  17.792  0.00  0.00    +0.000 NA
ATOM      7  H   UNL     1       5.642   2.830  17.111  0.00  0.00    +0.000 HD
ATOM      8  H   UNL     1       4.089   2.929  17.572  0.00  0.00    +0.000 HD
ENDBRANCH   5   6
BRANCH   5   9
ATOM      9  C   UNL     1       3.659   5.402  17.674  0.00  0.00    +0.000 C 
BRANCH   9  10
ATOM     10  C   UNL     1       2.661   4.622  18.506  0.00  0.00    +0.000 A 
ATOM     11  C   UNL     1       1.856   3.633  17.918  0.00  0.00    +0.000 A 
ATOM     12  C   UNL     1       0.923   2.928  18.685  0.00  0.00    +0.000 A 
ATOM     13  C   UNL     1       0.789   3.197  20.045  0.00  0.00    +0.000 A 
ATOM     14  C   UNL     1       1.598   4.160  20.643  0.00  0.00    +0.000 A 
ATOM     15  C   UNL     1       2.533   4.863  19.880  0.00  0.00    +0.000 A 
ENDBRANCH   9  10
ENDBRANCH   5   9
ENDBRANCH   1   5
BRANCH   3  16
ATOM     16  C   UNL     1       8.090   6.824  18.643  0.00  0.00    +0.000 C 
BRANCH  16  17
ATOM     17  C   UNL     1       8.194   8.271  18.171  0.00  0.00    +0.000 C 
ATOM     18  O   UNL     1       7.690   8.615  17.102  0.00  0.00    +0.000 OA
ATOM     19  N   UNL     1       8.915   9.080  19.029  0.00  0.00    +0.000 N 
ATOM     20  C   UNL     1       9.114  10.402  18.735  0.00  0.00    +0.000 A 
ATOM     21  N   UNL     1       8.487  11.147  17.862  0.00  0.00    +0.000 NA
ATOM     22  C   UNL     1       9.077  12.395  17.813  0.00  0.00    +0.000 A 
ATOM     23  C   UNL     1      10.145  12.551  18.663  0.00  0.00    +0.000 A 
ATOM     24 BR   UNL     1      11.207  14.083  18.751  0.00  0.00    +0.000 Br
ATOM     25  S   UNL     1      10.375  11.157  19.610  0.00  0.00    +0.000 S 
ATOM     26  H   UNL     1       9.448   8.689  19.794  0.00  0.00    +0.000 HD
ENDBRANCH  16  17
ENDBRANCH   3  16
TORSDOF 6
ENDMDL
MODEL 3
REMARK VINA RESULT:      -7.3      1.077      1.458
REMARK  Name = 
REMARK  6 active torsions:
REMARK  status: ('A' for Active; 'I' for Inactive)
REMARK    1  A    between atoms: N_1  and  C_2
REMARK    2  A    between atoms: C_2  and  C_3
REMARK    3  A    between atoms: C_2  and  C_10
REMARK    4  A    between atoms: C_3  and  C_4
REMARK    5  A    between atoms: N_12  and  C_13
REMARK    6  A    between atoms: C_13  and  C_14
REMARK                            x       y       z     vdW  Elec       q    Type
REMARK                         _______ _______ _______ _____ _____    ______ ____
ROOT
ATOM      1  C   UNL     1       6.650   5.114  17.649  0.00  0.00    +0.000 C 
ATOM      2  O   UNL     1       7.548   4.635  16.957  0.00  0.00    +0.000 OA
ATOM      3  N   UNL     1       6.898   6.116  18.560  0.00  0.00    +0.000 N 
ATOM      4  H   UNL     1       6.104   6.486  19.091  0.00  0.00    +0.000 HD
ENDROOT
BRANCH   1   5
ATOM      5  C   UNL     1       5.187   4.616  17.621  0.00  0.00    +0.000 C 
BRANCH   5   6
ATOM      6  N   UNL     1       4.924   3.899  16.347  0.00  0.00    +0.000 NA
ATOM      7  H   UNL     1       5.315   4.458  15.582  0.00  0.00    +0.000 HD
ATOM      8  H   UNL     1       3.916   3.890  16.178  0.00  0.00    +0.000 HD
ENDBRANCH   5   6
BRANCH   5   9
ATOM      9  C   UNL     1       4.901   3.747  18.868  0.00  0.00    +0.000 C 
BRANCH   9  10
ATOM     10  C   UNL     1       3.471   3.799  19.365  0.00  0.00    +0.000 A 
ATOM     11  C   UNL     1       2.582   2.746  19.102  0.00  0.00    +0.000 A 
ATOM     12  C   UNL     1       1.257   2.805  19.547  0.00  0.00    +0.000 A 
ATOM     13  C   UNL     1       0.809   3.912  20.264  0.00  0.00    +0.000 A 
ATOM     14  C   UNL     1       1.688   4.953  20.551  0.00  0.00    +0.000 A 
ATOM     15  C   UNL     1       3.012   4.894  20.110  0.00  0.00    +0.000 A 
ENDBRANCH   9  10
ENDBRANCH   5   9
ENDBRANCH   1   5
BRANCH   3  16
ATOM     16  C   UNL     1       8.201   6.724  18.728  0.00  0.00    +0.000 C 
BRANCH  16  17
ATOM     17  C   UNL     1       8.181   8.160  18.214  0.00  0.00    +0.000 C 
ATOM     18  O   UNL     1       7.587   8.441  17.173  0.00  0.00    +0.000 OA
ATOM     19  N   UNL     1       8.905   9.038  19.001  0.00  0.00    +0.000 N 
ATOM     20  C   UNL     1       8.999  10.360  18.661  0.00  0.00    +0.000 A 
ATOM     21  N   UNL     1       8.269  11.039  17.813  0.00  0.00    +0.000 NA
ATOM     22  C   UNL     1       8.775  12.318  17.693  0.00  0.00    +0.000 A 
ATOM     23  C   UNL     1       9.884  12.566  18.464  0.00  0.00    +0.000 A 
ATOM     24 BR   UNL     1      10.850  14.163  18.442  0.00  0.00    +0.000 Br
ATOM     25  S   UNL     1      10.264  11.217  19.429  0.00  0.00    +0.000 S 
ATOM     26  H   UNL     1       9.510   8.703  19.737  0.00  0.00    +0.000 HD
ENDBRANCH  16  17
ENDBRANCH   3  16
TORSDOF 6
ENDMDL
MODEL 4
REMARK VINA RESULT:      -7.3      1.145      1.411
REMARK  Name = 
REMARK  6 active torsions:
REMARK  status: ('A' for Active; 'I' for Inactive)
REMARK    1  A    between atoms: N_1  and  C_2
REMARK    2  A    between atoms: C_2  and  C_3
REMARK    3  A    between atoms: C_2  and  C_10
REMARK    4  A    between atoms: C_3  and  C_4
REMARK    5  A    between atoms: N_12  and  C_13
REMARK    6  A    between atoms: C_13  and  C_14
REMARK                            x       y       z     vdW  Elec       q    Type
REMARK                         _______ _______ _______ _____ _____    ______ ____
ROOT
ATOM      1  C   UNL     1       5.644   5.379  18.474  0.00  0.00    +0.000 C 
ATOM      2  O   UNL     1       5.492   5.502  19.690  0.00  0.00    +0.000 OA
ATOM      3  N   UNL     1       6.769   5.849  17.836  0.00  0.00    +0.000 N 
ATOM      4  H   UNL     1       6.844   5.698  16.826  0.00  0.00    +0.000 HD
ENDROOT
BRANCH   1   5
ATOM      5  C   UNL     1       4.585   4.753  17.537  0.00  0.00    +0.000 C 
BRANCH   5   6
ATOM      6  N   UNL     1       5.069   4.792  16.134  0.00  0.00    +0.000 NA
ATOM      7  H   UNL     1       5.233   3.827  15.828  0.00  0.00    +0.000 HD
ATOM      8  H   UNL     1       5.990   5.234  16.118  0.00  0.00    +0.000 HD
ENDBRANCH   5   6
BRANCH   5   9
ATOM      9  C   UNL     1       4.240   3.323  18.014  0.00  0.00    +0.000 C 
BRANCH   9  10
ATOM     10  C   UNL     1       3.187   3.251  19.102  0.00  0.00    +0.000 A 
ATOM     11  C   UNL     1       1.899   3.768  18.888  0.00  0.00    +0.000 A 
ATOM     12  C   UNL     1       0.936   3.717  19.900  0.00  0.00    +0.000 A 
ATOM     13  C   UNL     1       1.245   3.145  21.132  0.00  0.00    +0.000 A 
ATOM     14  C   UNL     1       2.512   2.609  21.348  0.00  0.00    +0.000 A 
ATOM     15  C   UNL     1       3.475   2.655  20.337  0.00  0.00    +0.000 A 
ENDBRANCH   9  10
ENDBRANCH   5   9
ENDBRANCH   1   5
BRANCH   3  16
ATOM     16  C   UNL     1       7.879   6.457  18.540  0.00  0.00    +0.000 C 
BRANCH  16  17
ATOM     17  C   UNL     1       8.057   7.904  18.091  0.00  0.00    +0.000 C 
ATOM     18  O   UNL     1       7.690   8.259  16.971  0.00  0.00    +0.000 OA
ATOM     19  N   UNL     1       8.681   8.701  19.034  0.00  0.00    +0.000 N 
ATOM     20  C   UNL     1       8.930  10.021  18.773  0.00  0.00    +0.000 A 
ATOM     21  N   UNL     1       8.422  10.777  17.834  0.00  0.00    +0.000 NA
ATOM     22  C   UNL     1       9.030  12.017  17.863  0.00  0.00    +0.000 A 
ATOM     23  C   UNL     1       9.990  12.157  18.835  0.00  0.00    +0.000 A 
ATOM     24 BR   UNL     1      11.053  13.674  19.059  0.00  0.00    +0.000 Br
ATOM     25  S   UNL     1      10.086  10.756  19.796  0.00  0.00    +0.000 S 
ATOM     26  H   UNL     1       9.112   8.300  19.855  0.00  0.00    +0.000 HD
ENDBRANCH  16  17
ENDBRANCH   3  16
TORSDOF 6
ENDMDL
MODEL 5
REMARK VINA RESULT:      -7.2      1.462      1.911
REMARK  Name = 
REMARK  6 active torsions:
REMARK  status: ('A' for Active; 'I' for Inactive)
REMARK    1  A    between atoms: N_1  and  C_2
REMARK    2  A    between atoms: C_2  and  C_3
REMARK    3  A    between atoms: C_2  and  C_10
REMARK    4  A    between atoms: C_3  and  C_4
REMARK    5  A    between atoms: N_12  and  C_13
REMARK    6  A    between atoms: C_13  and  C_14
REMARK                            x       y       z     vdW  Elec       q    Type
REMARK                         _______ _______ _______ _____ _____    ______ ____
ROOT
ATOM      1  C   UNL     1       7.169   5.248  17.329  0.00  0.00    +0.000 C 
ATOM      2  O   UNL     1       7.805   4.457  18.025  0.00  0.00    +0.000 OA
ATOM      3  N   UNL     1       7.242   6.608  17.531  0.00  0.00    +0.000 N 
ATOM      4  H   UNL     1       6.704   7.213  16.904  0.00  0.00    +0.000 HD
ENDROOT
BRANCH   1   5
ATOM      5  C   UNL     1       6.188   4.814  16.215  0.00  0.00    +0.000 C 
BRANCH   5   6
ATOM      6  N   UNL     1       6.919   4.666  14.931  0.00  0.00    +0.000 NA
ATOM      7  H   UNL     1       7.844   5.093  15.041  0.00  0.00    +0.000 HD
ATOM      8  H   UNL     1       6.451   5.231  14.220  0.00  0.00    +0.000 HD
ENDBRANCH   5   6
BRANCH   5   9
ATOM      9  C   UNL     1       5.450   3.522  16.637  0.00  0.00    +0.000 C 
BRANCH   9  10
ATOM     10  C   UNL     1       4.069   3.742  17.223  0.00  0.00    +0.000 A 
ATOM     11  C   UNL     1       3.251   2.651  17.555  0.00  0.00    +0.000 A 
ATOM     12  C   UNL     1       1.970   2.857  18.079  0.00  0.00    +0.000 A 
ATOM     13  C   UNL     1       1.497   4.152  18.282  0.00  0.00    +0.000 A 
ATOM     14  C   UNL     1       2.309   5.241  17.977  0.00  0.00    +0.000 A 
ATOM     15  C   UNL     1       3.590   5.038  17.457  0.00  0.00    +0.000 A 
ENDBRANCH   9  10
ENDBRANCH   5   9
ENDBRANCH   1   5
BRANCH   3  16
ATOM     16  C   UNL     1       8.112   7.213  18.518  0.00  0.00    +0.000 C 
BRANCH  16  17
ATOM     17  C   UNL     1       8.332   8.687  18.191  0.00  0.00    +0.000 C 
ATOM     18  O   UNL     1       7.911   9.161  17.137  0.00  0.00    +0.000 OA
ATOM     19  N   UNL     1       9.053   9.363  19.158  0.00  0.00    +0.000 N 
ATOM     20  C   UNL     1       9.349  10.691  19.002  0.00  0.00    +0.000 A 
ATOM     21  N   UNL     1       8.820  11.554  18.173  0.00  0.00    +0.000 NA
ATOM     22  C   UNL     1       9.488  12.758  18.274  0.00  0.00    +0.000 A 
ATOM     23  C   UNL     1      10.514  12.764  19.187  0.00  0.00    +0.000 A 
ATOM     24 BR   UNL     1      11.663  14.206  19.474  0.00  0.00    +0.000 Br
ATOM     25  S   UNL     1      10.604  11.276  20.007  0.00  0.00    +0.000 S 
ATOM     26  H   UNL     1       9.516   8.869  19.908  0.00  0.00    +0.000 HD
ENDBRANCH  16  17
ENDBRANCH   3  16
TORSDOF 6
ENDMDL
MODEL 6
REMARK VINA RESULT:      -7.2      5.080      7.222
REMARK  Name = 
REMARK  6 active torsions:
REMARK  status: ('A' for Active; 'I' for Inactive)
REMARK    1  A    between atoms: N_1  and  C_2
REMARK    2  A    between atoms: C_2  and  C_3
REMARK    3  A    between atoms: C_2  and  C_10
REMARK    4  A    between atoms: C_3  and  C_4
REMARK    5  A    between atoms: N_12  and  C_13
REMARK    6  A    between atoms: C_13  and  C_14
REMARK                            x       y       z     vdW  Elec       q    Type
REMARK                         _______ _______ _______ _____ _____    ______ ____
ROOT
ATOM      1  C   UNL     1       5.980   4.585  18.347  0.00  0.00    +0.000 C 
ATOM      2  O   UNL     1       6.486   4.880  19.430  0.00  0.00    +0.000 OA
ATOM      3  N   UNL     1       4.808   3.868  18.270  0.00  0.00    +0.000 N 
ATOM      4  H   UNL     1       4.429   3.672  17.339  0.00  0.00    +0.000 HD
ENDROOT
BRANCH   1   5
ATOM      5  C   UNL     1       6.621   4.923  16.981  0.00  0.00    +0.000 C 
BRANCH   5   6
ATOM      6  N   UNL     1       7.854   4.118  16.791  0.00  0.00    +0.000 NA
ATOM      7  H   UNL     1       8.155   3.775  17.709  0.00  0.00    +0.000 HD
ATOM      8  H   UNL     1       8.606   4.737  16.483  0.00  0.00    +0.000 HD
ENDBRANCH   5   6
BRANCH   5   9
ATOM      9  C   UNL     1       5.589   4.715  15.849  0.00  0.00    +0.000 C 
BRANCH   9  10
ATOM     10  C   UNL     1       6.186   4.551  14.466  0.00  0.00    +0.000 A 
ATOM     11  C   UNL     1       5.654   3.619  13.561  0.00  0.00    +0.000 A 
ATOM     12  C   UNL     1       6.219   3.457  12.293  0.00  0.00    +0.000 A 
ATOM     13  C   UNL     1       7.315   4.227  11.911  0.00  0.00    +0.000 A 
ATOM     14  C   UNL     1       7.838   5.170  12.792  0.00  0.00    +0.000 A 
ATOM     15  C   UNL     1       7.273   5.337  14.059  0.00  0.00    +0.000 A 
ENDBRANCH   9  10
ENDBRANCH   5   9
ENDBRANCH   1   5
BRANCH   3  16
ATOM     16  C   UNL     1       4.050   3.468  19.437  0.00  0.00    +0.000 C 
BRANCH  16  17
ATOM     17  C   UNL     1       3.205   4.634  19.941  0.00  0.00    +0.000 C 
ATOM     18  O   UNL     1       2.502   4.507  20.943  0.00  0.00    +0.000 OA
ATOM     19  N   UNL     1       3.299   5.764  19.149  0.00  0.00    +0.000 N 
ATOM     20  C   UNL     1       2.585   6.890  19.459  0.00  0.00    +0.000 A 
ATOM     21  N   UNL     1       1.990   7.197  20.584  0.00  0.00    +0.000 NA
ATOM     22  C   UNL     1       1.294   8.379  20.428  0.00  0.00    +0.000 A 
ATOM     23  C   UNL     1       1.387   8.933  19.175  0.00  0.00    +0.000 A 
ATOM     24 BR   UNL     1       0.479  10.470  18.631  0.00  0.00    +0.000 Br
ATOM     25  S   UNL     1       2.430   8.022  18.186  0.00  0.00    +0.000 S 
ATOM     26  H   UNL     1       3.754   5.736  18.248  0.00  0.00    +0.000 HD
ENDBRANCH  16  17
ENDBRANCH   3  16
TORSDOF 6
ENDMDL
MODEL 7
REMARK VINA RESULT:      -7.1      1.549      2.131
REMARK  Name = 
REMARK  6 active torsions:
REMARK  status: ('A' for Active; 'I' for Inactive)
REMARK    1  A    between atoms: N_1  and  C_2
REMARK    2  A    between atoms: C_2  and  C_3
REMARK    3  A    between atoms: C_2  and  C_10
REMARK    4  A    between atoms: C_3  and  C_4
REMARK    5  A    between atoms: N_12  and  C_13
REMARK    6  A    between atoms: C_13  and  C_14
REMARK                            x       y       z     vdW  Elec       q    Type
REMARK                         _______ _______ _______ _____ _____    ______ ____
ROOT
ATOM      1  C   UNL     1       7.006   5.126  17.583  0.00  0.00    +0.000 C 
ATOM      2  O   UNL     1       8.017   4.429  17.505  0.00  0.00    +0.000 OA
ATOM      3  N   UNL     1       7.027   6.363  18.187  0.00  0.00    +0.000 N 
ATOM      4  H   UNL     1       6.156   6.902  18.201  0.00  0.00    +0.000 HD
ENDROOT
BRANCH   1   5
ATOM      5  C   UNL     1       5.615   4.678  17.079  0.00  0.00    +0.000 C 
BRANCH   5   6
ATOM      6  N   UNL     1       5.747   3.436  16.275  0.00  0.00    +0.000 NA
ATOM      7  H   UNL     1       4.809   3.048  16.133  0.00  0.00    +0.000 HD
ATOM      8  H   UNL     1       6.241   2.736  16.833  0.00  0.00    +0.000 HD
ENDBRANCH   5   6
BRANCH   5   9
ATOM      9  C   UNL     1       4.648   4.517  18.275  0.00  0.00    +0.000 C 
BRANCH   9  10
ATOM     10  C   UNL     1       3.747   5.710  18.529  0.00  0.00    +0.000 A 
ATOM     11  C   UNL     1       3.661   6.755  17.597  0.00  0.00    +0.000 A 
ATOM     12  C   UNL     1       2.844   7.862  17.843  0.00  0.00    +0.000 A 
ATOM     13  C   UNL     1       2.099   7.934  19.018  0.00  0.00    +0.000 A 
ATOM     14  C   UNL     1       2.158   6.893  19.940  0.00  0.00    +0.000 A 
ATOM     15  C   UNL     1       2.972   5.784  19.695  0.00  0.00    +0.000 A 
ENDBRANCH   9  10
ENDBRANCH   5   9
ENDBRANCH   1   5
BRANCH   3  16
ATOM     16  C   UNL     1       8.235   6.964  18.712  0.00  0.00    +0.000 C 
BRANCH  16  17
ATOM     17  C   UNL     1       8.346   8.413  18.245  0.00  0.00    +0.000 C 
ATOM     18  O   UNL     1       7.883   8.754  17.158  0.00  0.00    +0.000 OA
ATOM     19  N   UNL     1       9.027   9.226  19.133  0.00  0.00    +0.000 N 
ATOM     20  C   UNL     1       9.227  10.550  18.848  0.00  0.00    +0.000 A 
ATOM     21  N   UNL     1       8.629  11.292  17.951  0.00  0.00    +0.000 NA
ATOM     22  C   UNL     1       9.212  12.543  17.927  0.00  0.00    +0.000 A 
ATOM     23  C   UNL     1      10.243  12.707  18.819  0.00  0.00    +0.000 A 
ATOM     24 BR   UNL     1      11.289  14.247  18.951  0.00  0.00    +0.000 Br
ATOM     25  S   UNL     1      10.446  11.314  19.773  0.00  0.00    +0.000 S 
ATOM     26  H   UNL     1       9.531   8.838  19.918  0.00  0.00    +0.000 HD
ENDBRANCH  16  17
ENDBRANCH   3  16
TORSDOF 6
ENDMDL
MODEL 8
REMARK VINA RESULT:      -7.0      4.291      8.954
REMARK  Name = 
REMARK  6 active torsions:
REMARK  status: ('A' for Active; 'I' for Inactive)
REMARK    1  A    between atoms: N_1  and  C_2
REMARK    2  A    between atoms: C_2  and  C_3
REMARK    3  A    between atoms: C_2  and  C_10
REMARK    4  A    between atoms: C_3  and  C_4
REMARK    5  A    between atoms: N_12  and  C_13
REMARK    6  A    between atoms: C_13  and  C_14
REMARK                            x       y       z     vdW  Elec       q    Type
REMARK                         _______ _______ _______ _____ _____    ______ ____
ROOT
ATOM      1  C   UNL     1       7.757   6.862  17.706  0.00  0.00    +0.000 C 
ATOM      2  O   UNL     1       7.797   6.158  18.715  0.00  0.00    +0.000 OA
ATOM      3  N   UNL     1       7.446   6.337  16.472  0.00  0.00    +0.000 N 
ATOM      4  H   UNL     1       7.410   6.979  15.675  0.00  0.00    +0.000 HD
ENDROOT
BRANCH   1   5
ATOM      5  C   UNL     1       8.104   8.369  17.697  0.00  0.00    +0.000 C 
BRANCH   5   6
ATOM      6  N   UNL     1       6.916   9.156  17.283  0.00  0.00    +0.000 NA
ATOM      7  H   UNL     1       6.938  10.051  17.782  0.00  0.00    +0.000 HD
ATOM      8  H   UNL     1       6.076   8.685  17.624  0.00  0.00    +0.000 HD
ENDBRANCH   5   6
BRANCH   5   9
ATOM      9  C   UNL     1       8.653   8.791  19.080  0.00  0.00    +0.000 C 
BRANCH   9  10
ATOM     10  C   UNL     1       9.325  10.149  19.110  0.00  0.00    +0.000 A 
ATOM     11  C   UNL     1       9.717  10.781  17.920  0.00  0.00    +0.000 A 
ATOM     12  C   UNL     1      10.354  12.025  17.952  0.00  0.00    +0.000 A 
ATOM     13  C   UNL     1      10.600  12.654  19.171  0.00  0.00    +0.000 A 
ATOM     14  C   UNL     1      10.196  12.047  20.357  0.00  0.00    +0.000 A 
ATOM     15  C   UNL     1       9.556  10.805  20.327  0.00  0.00    +0.000 A 
ENDBRANCH   9  10
ENDBRANCH   5   9
ENDBRANCH   1   5
BRANCH   3  16
ATOM     16  C   UNL     1       7.080   4.950  16.274  0.00  0.00    +0.000 C 
BRANCH  16  17
ATOM     17  C   UNL     1       5.631   4.723  16.696  0.00  0.00    +0.000 C 
ATOM     18  O   UNL     1       4.713   5.277  16.093  0.00  0.00    +0.000 OA
ATOM     19  N   UNL     1       5.501   3.898  17.798  0.00  0.00    +0.000 N 
ATOM     20  C   UNL     1       4.264   3.614  18.311  0.00  0.00    +0.000 A 
ATOM     21  N   UNL     1       3.091   3.784  17.755  0.00  0.00    +0.000 NA
ATOM     22  C   UNL     1       2.102   3.464  18.664  0.00  0.00    +0.000 A 
ATOM     23  C   UNL     1       2.567   3.059  19.891  0.00  0.00    +0.000 A 
ATOM     24 BR   UNL     1       1.477   2.660  21.353  0.00  0.00    +0.000 Br
ATOM     25  S   UNL     1       4.266   2.984  19.901  0.00  0.00    +0.000 S 
ATOM     26  H   UNL     1       6.305   3.626  18.346  0.00  0.00    +0.000 HD
ENDBRANCH  16  17
ENDBRANCH   3  16
TORSDOF 6
ENDMDL
MODEL 9
REMARK VINA RESULT:      -7.0      3.466      4.835
REMARK  Name = 
REMARK  6 active torsions:
REMARK  status: ('A' for Active; 'I' for Inactive)
REMARK    1  A    between atoms: N_1  and  C_2
REMARK    2  A    between atoms: C_2  and  C_3
REMARK    3  A    between atoms: C_2  and  C_10
REMARK    4  A    between atoms: C_3  and  C_4
REMARK    5  A    between atoms: N_12  and  C_13
REMARK    6  A    between atoms: C_13  and  C_14
REMARK                            x       y       z     vdW  Elec       q    Type
REMARK                         _______ _______ _______ _____ _____    ______ ____
ROOT
ATOM      1  C   UNL     1       6.757   6.517  17.315  0.00  0.00    +0.000 C 
ATOM      2  O   UNL     1       5.608   6.704  17.716  0.00  0.00    +0.000 OA
ATOM      3  N   UNL     1       7.647   7.556  17.162  0.00  0.00    +0.000 N 
ATOM      4  H   UNL     1       8.594   7.330  16.843  0.00  0.00    +0.000 HD
ENDROOT
BRANCH   1   5
ATOM      5  C   UNL     1       7.300   5.134  16.886  0.00  0.00    +0.000 C 
BRANCH   5   6
ATOM      6  N   UNL     1       7.690   4.353  18.087  0.00  0.00    +0.000 NA
ATOM      7  H   UNL     1       6.871   4.280  18.699  0.00  0.00    +0.000 HD
ATOM      8  H   UNL     1       8.372   4.893  18.622  0.00  0.00    +0.000 HD
ENDBRANCH   5   6
BRANCH   5   9
ATOM      9  C   UNL     1       6.254   4.406  16.010  0.00  0.00    +0.000 C 
BRANCH   9  10
ATOM     10  C   UNL     1       6.570   4.384  14.528  0.00  0.00    +0.000 A 
ATOM     11  C   UNL     1       5.893   3.510  13.664  0.00  0.00    +0.000 A 
ATOM     12  C   UNL     1       6.199   3.479  12.300  0.00  0.00    +0.000 A 
ATOM     13  C   UNL     1       7.178   4.325  11.784  0.00  0.00    +0.000 A 
ATOM     14  C   UNL     1       7.841   5.213  12.627  0.00  0.00    +0.000 A 
ATOM     15  C   UNL     1       7.534   5.248  13.990  0.00  0.00    +0.000 A 
ENDBRANCH   9  10
ENDBRANCH   5   9
ENDBRANCH   1   5
BRANCH   3  16
ATOM     16  C   UNL     1       7.332   8.923  17.520  0.00  0.00    +0.000 C 
BRANCH  16  17
ATOM     17  C   UNL     1       8.503   9.554  18.268  0.00  0.00    +0.000 C 
ATOM     18  O   UNL     1       9.071   8.937  19.169  0.00  0.00    +0.000 OA
ATOM     19  N   UNL     1       8.795  10.839  17.851  0.00  0.00    +0.000 N 
ATOM     20  C   UNL     1       9.808  11.547  18.439  0.00  0.00    +0.000 A 
ATOM     21  N   UNL     1      10.779  11.106  19.196  0.00  0.00    +0.000 NA
ATOM     22  C   UNL     1      11.518  12.175  19.665  0.00  0.00    +0.000 A 
ATOM     23  C   UNL     1      11.074  13.403  19.240  0.00  0.00    +0.000 A 
ATOM     24 BR   UNL     1      11.800  15.034  19.784  0.00  0.00    +0.000 Br
ATOM     25  S   UNL     1       9.766  13.235  18.165  0.00  0.00    +0.000 S 
ATOM     26  H   UNL     1       8.174  11.343  17.232  0.00  0.00    +0.000 HD
ENDBRANCH  16  17
ENDBRANCH   3  16
TORSDOF 6
ENDMDL
