MODEL 1
REMARK VINA RESULT:      -8.3      0.000      0.000
REMARK  Name = 
REMARK  7 active torsions:
REMARK  status: ('A' for Active; 'I' for Inactive)
REMARK    1  A    between atoms: C_1  and  C_2
REMARK    2  A    between atoms: C_5  and  N_6
REMARK    3  A    between atoms: C_7  and  C_9
REMARK    4  A    between atoms: C_9  and  N_10
REMARK    5  A    between atoms: N_10  and  C_11
REMARK    6  A    between atoms: C_15  and  S_16
REMARK    7  A    between atoms: S_16  and  N_19
REMARK                            x       y       z     vdW  Elec       q    Type
REMARK                         _______ _______ _______ _____ _____    ______ ____
ROOT
ATOM      1  N   UNL     1       1.636   8.892  19.055  0.00  0.00    +0.000 N 
ATOM      2  C   UNL     1       1.184   9.142  20.419  0.00  0.00    +0.000 C 
ATOM      3  C   UNL     1       2.419   7.772  18.854  0.00  0.00    +0.000 A 
ATOM      4  C   UNL     1       3.344   7.660  17.811  0.00  0.00    +0.000 A 
ATOM      5  C   UNL     1       4.093   6.491  17.647  0.00  0.00    +0.000 A 
ATOM      6  C   UNL     1       3.896   5.450  18.539  0.00  0.00    +0.000 A 
ATOM      7  C   UNL     1       2.976   5.611  19.549  0.00  0.00    +0.000 A 
ATOM      8  N   UNL     1       2.244   6.743  19.713  0.00  0.00    +0.000 NA
ENDROOT
BRANCH   6   9
ATOM      9  S   UNL     1       4.836   3.973  18.444  0.00  0.00    +0.000 S 
ATOM     10  O   UNL     1       5.863   4.189  17.447  0.00  0.00    +0.000 OA
ATOM     11  O   UNL     1       5.176   3.564  19.789  0.00  0.00    +0.000 OA
BRANCH   9  12
ATOM     12  N   UNL     1       3.748   2.812  17.824  0.00  0.00    +0.000 NA
ATOM     13  C   UNL     1       2.534   3.308  17.132  0.00  0.00    +0.000 C 
ATOM     14  C   UNL     1       1.423   3.205  18.155  0.00  0.00    +0.000 C 
ATOM     15  C   UNL     1       1.777   1.971  18.961  0.00  0.00    +0.000 C 
ATOM     16  C   UNL     1       3.292   1.828  18.854  0.00  0.00    +0.000 C 
ENDBRANCH   9  12
ENDBRANCH   6   9
BRANCH   1  17
ATOM     17  C   UNL     1       1.473   9.950  18.061  0.00  0.00    +0.000 C 
BRANCH  17  19
ATOM     18  N   UNL     1      -0.956  10.077  17.536  0.00  0.00    +0.000 N 
ATOM     19  C   UNL     1       0.129  10.683  18.145  0.00  0.00    +0.000 C 
ATOM     20  O   UNL     1       0.085  11.738  18.790  0.00  0.00    +0.000 OA
ATOM     21  H   UNL     1      -0.790   9.142  17.168  0.00  0.00    +0.000 HD
BRANCH  18  26
ATOM     22  C   UNL     1      -6.253  12.316  17.316  0.00  0.00    +0.000 C 
ATOM     23  C   UNL     1      -4.880  11.717  17.379  0.00  0.00    +0.000 A 
ATOM     24  C   UNL     1      -4.309  11.142  16.245  0.00  0.00    +0.000 A 
ATOM     25  C   UNL     1      -3.024  10.595  16.296  0.00  0.00    +0.000 A 
ATOM     26  C   UNL     1      -2.271  10.607  17.474  0.00  0.00    +0.000 A 
ATOM     27  C   UNL     1      -2.853  11.151  18.621  0.00  0.00    +0.000 A 
ATOM     28  C   UNL     1      -4.143  11.716  18.569  0.00  0.00    +0.000 A 
ENDBRANCH  18  26
ENDBRANCH  17  19
ENDBRANCH   1  17
TORSDOF 5
ENDMDL
MODEL 2
REMARK VINA RESULT:      -8.2      1.541      1.948
REMARK  Name = 
REMARK  7 active torsions:
REMARK  status: ('A' for Active; 'I' for Inactive)
REMARK    1  A    between atoms: C_1  and  C_2
REMARK    2  A    between atoms: C_5  and  N_6
REMARK    3  A    between atoms: C_7  and  C_9
REMARK    4  A    between atoms: C_9  and  N_10
REMARK    5  A    between atoms: N_10  and  C_11
REMARK    6  A    between atoms: C_15  and  S_16
REMARK    7  A    between atoms: S_16  and  N_19
REMARK                            x       y       z     vdW  Elec       q    Type
REMARK                         _______ _______ _______ _____ _____    ______ ____
ROOT
ATOM      1  N   UNL     1       0.657  10.504  19.607  0.00  0.00    +0.000 N 
ATOM      2  C   UNL     1       0.487  11.088  20.932  0.00  0.00    +0.000 C 
ATOM      3  C   UNL     1       1.291   9.279  19.543  0.00  0.00    +0.000 A 
ATOM      4  C   UNL     1       1.996   8.837  18.418  0.00  0.00    +0.000 A 
ATOM      5  C   UNL     1       2.599   7.576  18.406  0.00  0.00    +0.000 A 
ATOM      6  C   UNL     1       2.480   6.777  19.531  0.00  0.00    +0.000 A 
ATOM      7  C   UNL     1       1.779   7.259  20.613  0.00  0.00    +0.000 A 
ATOM      8  N   UNL     1       1.189   8.482  20.630  0.00  0.00    +0.000 NA
ENDROOT
BRANCH   6   9
ATOM      9  S   UNL     1       3.257   5.208  19.624  0.00  0.00    +0.000 S 
ATOM     10  O   UNL     1       4.683   5.436  19.531  0.00  0.00    +0.000 OA
ATOM     11  O   UNL     1       2.687   4.486  20.741  0.00  0.00    +0.000 OA
BRANCH   9  12
ATOM     12  N   UNL     1       2.767   4.402  18.201  0.00  0.00    +0.000 NA
ATOM     13  C   UNL     1       1.370   3.908  18.137  0.00  0.00    +0.000 C 
ATOM     14  C   UNL     1       1.456   2.430  18.456  0.00  0.00    +0.000 C 
ATOM     15  C   UNL     1       2.780   2.001  17.858  0.00  0.00    +0.000 C 
ATOM     16  C   UNL     1       3.653   3.252  17.843  0.00  0.00    +0.000 C 
ENDBRANCH   9  12
ENDBRANCH   6   9
BRANCH   1  17
ATOM     17  C   UNL     1       0.406  11.343  18.437  0.00  0.00    +0.000 C 
BRANCH  17  19
ATOM     18  N   UNL     1      -2.078  11.190  18.381  0.00  0.00    +0.000 N 
ATOM     19  C   UNL     1      -0.971  12.020  18.440  0.00  0.00    +0.000 C 
ATOM     20  O   UNL     1      -1.009  13.251  18.545  0.00  0.00    +0.000 OA
ATOM     21  H   UNL     1      -1.885  10.193  18.442  0.00  0.00    +0.000 HD
BRANCH  18  26
ATOM     22  C   UNL     1      -7.531  13.025  18.245  0.00  0.00    +0.000 C 
ATOM     23  C   UNL     1      -6.116  12.531  18.286  0.00  0.00    +0.000 A 
ATOM     24  C   UNL     1      -5.526  11.986  17.148  0.00  0.00    +0.000 A 
ATOM     25  C   UNL     1      -4.204  11.536  17.178  0.00  0.00    +0.000 A 
ATOM     26  C   UNL     1      -3.430  11.620  18.340  0.00  0.00    +0.000 A 
ATOM     27  C   UNL     1      -4.028  12.134  19.493  0.00  0.00    +0.000 A 
ATOM     28  C   UNL     1      -5.357  12.600  19.461  0.00  0.00    +0.000 A 
ENDBRANCH  18  26
ENDBRANCH  17  19
ENDBRANCH   1  17
TORSDOF 5
ENDMDL
MODEL 3
REMARK VINA RESULT:      -8.1      1.486      2.190
REMARK  Name = 
REMARK  7 active torsions:
REMARK  status: ('A' for Active; 'I' for Inactive)
REMARK    1  A    between atoms: C_1  and  C_2
REMARK    2  A    between atoms: C_5  and  N_6
REMARK    3  A    between atoms: C_7  and  C_9
REMARK    4  A    between atoms: C_9  and  N_10
REMARK    5  A    between atoms: N_10  and  C_11
REMARK    6  A    between atoms: C_15  and  S_16
REMARK    7  A    between atoms: S_16  and  N_19
REMARK                            x       y       z     vdW  Elec       q    Type
REMARK                         _______ _______ _______ _____ _____    ______ ____
ROOT
ATOM      1  N   UNL     1       0.731  10.446  19.486  0.00  0.00    +0.000 N 
ATOM      2  C   UNL     1       0.579  10.834  20.884  0.00  0.00    +0.000 C 
ATOM      3  C   UNL     1       1.426   9.279  19.236  0.00  0.00    +0.000 A 
ATOM      4  C   UNL     1       2.111   9.035  18.041  0.00  0.00    +0.000 A 
ATOM      5  C   UNL     1       2.779   7.824  17.839  0.00  0.00    +0.000 A 
ATOM      6  C   UNL     1       2.745   6.875  18.846  0.00  0.00    +0.000 A 
ATOM      7  C   UNL     1       2.060   7.164  20.004  0.00  0.00    +0.000 A 
ATOM      8  N   UNL     1       1.407   8.337  20.206  0.00  0.00    +0.000 NA
ENDROOT
BRANCH   6   9
ATOM      9  S   UNL     1       3.607   5.355  18.700  0.00  0.00    +0.000 S 
ATOM     10  O   UNL     1       3.676   5.041  17.289  0.00  0.00    +0.000 OA
ATOM     11  O   UNL     1       4.804   5.433  19.508  0.00  0.00    +0.000 OA
BRANCH   9  12
ATOM     12  N   UNL     1       2.578   4.207  19.436  0.00  0.00    +0.000 NA
ATOM     13  C   UNL     1       3.197   2.965  19.959  0.00  0.00    +0.000 C 
ATOM     14  C   UNL     1       2.936   1.914  18.900  0.00  0.00    +0.000 C 
ATOM     15  C   UNL     1       1.581   2.289  18.336  0.00  0.00    +0.000 C 
ATOM     16  C   UNL     1       1.441   3.791  18.559  0.00  0.00    +0.000 C 
ENDBRANCH   9  12
ENDBRANCH   6   9
BRANCH   1  17
ATOM     17  C   UNL     1       0.392  11.419  18.450  0.00  0.00    +0.000 C 
BRANCH  17  19
ATOM     18  N   UNL     1      -2.092  11.273  18.374  0.00  0.00    +0.000 N 
ATOM     19  C   UNL     1      -0.986  12.067  18.631  0.00  0.00    +0.000 C 
ATOM     20  O   UNL     1      -1.028  13.233  19.040  0.00  0.00    +0.000 OA
ATOM     21  H   UNL     1      -1.895  10.292  18.184  0.00  0.00    +0.000 HD
BRANCH  18  26
ATOM     22  C   UNL     1      -7.611  12.878  18.659  0.00  0.00    +0.000 C 
ATOM     23  C   UNL     1      -6.169  12.476  18.578  0.00  0.00    +0.000 A 
ATOM     24  C   UNL     1      -5.328  12.637  19.679  0.00  0.00    +0.000 A 
ATOM     25  C   UNL     1      -3.987  12.252  19.612  0.00  0.00    +0.000 A 
ATOM     26  C   UNL     1      -3.445  11.692  18.451  0.00  0.00    +0.000 A 
ATOM     27  C   UNL     1      -4.275  11.559  17.335  0.00  0.00    +0.000 A 
ATOM     28  C   UNL     1      -5.631  11.935  17.404  0.00  0.00    +0.000 A 
ENDBRANCH  18  26
ENDBRANCH  17  19
ENDBRANCH   1  17
TORSDOF 5
ENDMDL
MODEL 4
REMARK VINA RESULT:      -7.9      2.189      2.699
REMARK  Name = 
REMARK  7 active torsions:
REMARK  status: ('A' for Active; 'I' for Inactive)
REMARK    1  A    between atoms: C_1  and  C_2
REMARK    2  A    between atoms: C_5  and  N_6
REMARK    3  A    between atoms: C_7  and  C_9
REMARK    4  A    between atoms: C_9  and  N_10
REMARK    5  A    between atoms: N_10  and  C_11
REMARK    6  A    between atoms: C_15  and  S_16
REMARK    7  A    between atoms: S_16  and  N_19
REMARK                            x       y       z     vdW  Elec       q    Type
REMARK                         _______ _______ _______ _____ _____    ______ ____
ROOT
ATOM      1  N   UNL     1       1.383   8.651  19.887  0.00  0.00    +0.000 N 
ATOM      2  C   UNL     1       1.237   8.773  21.332  0.00  0.00    +0.000 C 
ATOM      3  C   UNL     1       2.200   7.637  19.426  0.00  0.00    +0.000 A 
ATOM      4  C   UNL     1       2.865   7.685  18.197  0.00  0.00    +0.000 A 
ATOM      5  C   UNL     1       3.662   6.616  17.777  0.00  0.00    +0.000 A 
ATOM      6  C   UNL     1       3.775   5.512  18.604  0.00  0.00    +0.000 A 
ATOM      7  C   UNL     1       3.103   5.515  19.805  0.00  0.00    +0.000 A 
ATOM      8  N   UNL     1       2.326   6.548  20.218  0.00  0.00    +0.000 NA
ENDROOT
BRANCH   6   9
ATOM      9  S   UNL     1       4.802   4.155  18.184  0.00  0.00    +0.000 S 
ATOM     10  O   UNL     1       5.588   4.558  17.037  0.00  0.00    +0.000 OA
ATOM     11  O   UNL     1       5.437   3.674  19.392  0.00  0.00    +0.000 OA
BRANCH   9  12
ATOM     12  N   UNL     1       3.718   2.941  17.668  0.00  0.00    +0.000 NA
ATOM     13  C   UNL     1       2.406   3.374  17.130  0.00  0.00    +0.000 C 
ATOM     14  C   UNL     1       1.428   3.190  18.272  0.00  0.00    +0.000 C 
ATOM     15  C   UNL     1       1.943   1.968  19.004  0.00  0.00    +0.000 C 
ATOM     16  C   UNL     1       3.440   1.916  18.722  0.00  0.00    +0.000 C 
ENDBRANCH   9  12
ENDBRANCH   6   9
BRANCH   1  17
ATOM     17  C   UNL     1       0.896   9.738  19.041  0.00  0.00    +0.000 C 
BRANCH  17  19
ATOM     18  N   UNL     1      -0.343  11.323  20.508  0.00  0.00    +0.000 N 
ATOM     19  C   UNL     1      -0.424  10.356  19.519  0.00  0.00    +0.000 C 
ATOM     20  O   UNL     1      -1.468   9.995  18.961  0.00  0.00    +0.000 OA
ATOM     21  H   UNL     1       0.599  11.613  20.763  0.00  0.00    +0.000 HD
BRANCH  18  26
ATOM     22  C   UNL     1      -4.749  14.062  22.998  0.00  0.00    +0.000 C 
ATOM     23  C   UNL     1      -3.612  13.334  22.346  0.00  0.00    +0.000 A 
ATOM     24  C   UNL     1      -3.334  13.526  20.993  0.00  0.00    +0.000 A 
ATOM     25  C   UNL     1      -2.268  12.860  20.385  0.00  0.00    +0.000 A 
ATOM     26  C   UNL     1      -1.445  11.988  21.104  0.00  0.00    +0.000 A 
ATOM     27  C   UNL     1      -1.740  11.767  22.452  0.00  0.00    +0.000 A 
ATOM     28  C   UNL     1      -2.807  12.447  23.071  0.00  0.00    +0.000 A 
ENDBRANCH  18  26
ENDBRANCH  17  19
ENDBRANCH   1  17
TORSDOF 5
ENDMDL
MODEL 5
REMARK VINA RESULT:      -7.9      2.262      2.961
REMARK  Name = 
REMARK  7 active torsions:
REMARK  status: ('A' for Active; 'I' for Inactive)
REMARK    1  A    between atoms: C_1  and  C_2
REMARK    2  A    between atoms: C_5  and  N_6
REMARK    3  A    between atoms: C_7  and  C_9
REMARK    4  A    between atoms: C_9  and  N_10
REMARK    5  A    between atoms: N_10  and  C_11
REMARK    6  A    between atoms: C_15  and  S_16
REMARK    7  A    between atoms: S_16  and  N_19
REMARK                            x       y       z     vdW  Elec       q    Type
REMARK                         _______ _______ _______ _____ _____    ______ ____
ROOT
ATOM      1  N   UNL     1       0.868   9.948  19.682  0.00  0.00    +0.000 N 
ATOM      2  C   UNL     1       0.780  10.195  21.116  0.00  0.00    +0.000 C 
ATOM      3  C   UNL     1       1.629   8.868  19.282  0.00  0.00    +0.000 A 
ATOM      4  C   UNL     1       2.251   8.788  18.031  0.00  0.00    +0.000 A 
ATOM      5  C   UNL     1       2.991   7.657  17.676  0.00  0.00    +0.000 A 
ATOM      6  C   UNL     1       3.093   6.620  18.589  0.00  0.00    +0.000 A 
ATOM      7  C   UNL     1       2.466   6.749  19.807  0.00  0.00    +0.000 A 
ATOM      8  N   UNL     1       1.743   7.844  20.157  0.00  0.00    +0.000 NA
ENDROOT
BRANCH   6   9
ATOM      9  S   UNL     1       4.053   5.193  18.249  0.00  0.00    +0.000 S 
ATOM     10  O   UNL     1       4.330   4.558  19.520  0.00  0.00    +0.000 OA
ATOM     11  O   UNL     1       3.418   4.465  17.173  0.00  0.00    +0.000 OA
BRANCH   9  12
ATOM     12  N   UNL     1       5.528   5.803  17.643  0.00  0.00    +0.000 NA
ATOM     13  C   UNL     1       5.864   5.509  16.228  0.00  0.00    +0.000 C 
ATOM     14  C   UNL     1       6.837   4.350  16.284  0.00  0.00    +0.000 C 
ATOM     15  C   UNL     1       7.629   4.595  17.552  0.00  0.00    +0.000 C 
ATOM     16  C   UNL     1       6.711   5.402  18.464  0.00  0.00    +0.000 C 
ENDBRANCH   9  12
ENDBRANCH   6   9
BRANCH   1  17
ATOM     17  C   UNL     1       0.392  10.981  18.765  0.00  0.00    +0.000 C 
BRANCH  17  19
ATOM     18  N   UNL     1      -1.882  11.957  19.037  0.00  0.00    +0.000 N 
ATOM     19  C   UNL     1      -1.119  10.933  18.502  0.00  0.00    +0.000 C 
ATOM     20  O   UNL     1      -1.553  10.019  17.791  0.00  0.00    +0.000 OA
ATOM     21  H   UNL     1      -1.360  12.712  19.477  0.00  0.00    +0.000 HD
BRANCH  18  26
ATOM     22  C   UNL     1      -7.608  12.338  18.603  0.00  0.00    +0.000 C 
ATOM     23  C   UNL     1      -6.115  12.255  18.708  0.00  0.00    +0.000 A 
ATOM     24  C   UNL     1      -5.466  12.656  19.875  0.00  0.00    +0.000 A 
ATOM     25  C   UNL     1      -4.076  12.568  19.982  0.00  0.00    +0.000 A 
ATOM     26  C   UNL     1      -3.292  12.076  18.935  0.00  0.00    +0.000 A 
ATOM     27  C   UNL     1      -3.934  11.704  17.751  0.00  0.00    +0.000 A 
ATOM     28  C   UNL     1      -5.337  11.780  17.645  0.00  0.00    +0.000 A 
ENDBRANCH  18  26
ENDBRANCH  17  19
ENDBRANCH   1  17
TORSDOF 5
ENDMDL
MODEL 6
REMARK VINA RESULT:      -7.9      2.061      2.627
REMARK  Name = 
REMARK  7 active torsions:
REMARK  status: ('A' for Active; 'I' for Inactive)
REMARK    1  A    between atoms: C_1  and  C_2
REMARK    2  A    between atoms: C_5  and  N_6
REMARK    3  A    between atoms: C_7  and  C_9
REMARK    4  A    between atoms: C_9  and  N_10
REMARK    5  A    between atoms: N_10  and  C_11
REMARK    6  A    between atoms: C_15  and  S_16
REMARK    7  A    between atoms: S_16  and  N_19
REMARK                            x       y       z     vdW  Elec       q    Type
REMARK                         _______ _______ _______ _____ _____    ______ ____
ROOT
ATOM      1  N   UNL     1       1.018   9.402  20.348  0.00  0.00    +0.000 N 
ATOM      2  C   UNL     1       1.023   9.425  21.806  0.00  0.00    +0.000 C 
ATOM      3  C   UNL     1       1.703   8.370  19.739  0.00  0.00    +0.000 A 
ATOM      4  C   UNL     1       2.249   8.462  18.455  0.00  0.00    +0.000 A 
ATOM      5  C   UNL     1       2.913   7.373  17.883  0.00  0.00    +0.000 A 
ATOM      6  C   UNL     1       3.016   6.203  18.618  0.00  0.00    +0.000 A 
ATOM      7  C   UNL     1       2.465   6.164  19.878  0.00  0.00    +0.000 A 
ATOM      8  N   UNL     1       1.816   7.217  20.437  0.00  0.00    +0.000 NA
ENDROOT
BRANCH   6   9
ATOM      9  S   UNL     1       3.886   4.811  18.003  0.00  0.00    +0.000 S 
ATOM     10  O   UNL     1       4.621   4.247  19.114  0.00  0.00    +0.000 OA
ATOM     11  O   UNL     1       2.964   4.005  17.231  0.00  0.00    +0.000 OA
BRANCH   9  12
ATOM     12  N   UNL     1       5.021   5.464  16.907  0.00  0.00    +0.000 NA
ATOM     13  C   UNL     1       5.118   4.841  15.565  0.00  0.00    +0.000 C 
ATOM     14  C   UNL     1       6.325   3.929  15.637  0.00  0.00    +0.000 C 
ATOM     15  C   UNL     1       7.281   4.655  16.560  0.00  0.00    +0.000 C 
ATOM     16  C   UNL     1       6.408   5.520  17.463  0.00  0.00    +0.000 C 
ENDBRANCH   9  12
ENDBRANCH   6   9
BRANCH   1  17
ATOM     17  C   UNL     1       0.541  10.584  19.633  0.00  0.00    +0.000 C 
BRANCH  17  19
ATOM     18  N   UNL     1      -1.587  11.722  19.024  0.00  0.00    +0.000 N 
ATOM     19  C   UNL     1      -0.939  10.517  19.236  0.00  0.00    +0.000 C 
ATOM     20  O   UNL     1      -1.447   9.399  19.081  0.00  0.00    +0.000 OA
ATOM     21  H   UNL     1      -0.997  12.551  19.052  0.00  0.00    +0.000 HD
BRANCH  18  26
ATOM     22  C   UNL     1      -7.134  12.441  17.671  0.00  0.00    +0.000 C 
ATOM     23  C   UNL     1      -5.693  12.237  18.030  0.00  0.00    +0.000 A 
ATOM     24  C   UNL     1      -4.800  11.713  17.097  0.00  0.00    +0.000 A 
ATOM     25  C   UNL     1      -3.454  11.534  17.424  0.00  0.00    +0.000 A 
ATOM     26  C   UNL     1      -2.956  11.875  18.685  0.00  0.00    +0.000 A 
ATOM     27  C   UNL     1      -3.854  12.369  19.635  0.00  0.00    +0.000 A 
ATOM     28  C   UNL     1      -5.210  12.563  19.304  0.00  0.00    +0.000 A 
ENDBRANCH  18  26
ENDBRANCH  17  19
ENDBRANCH   1  17
TORSDOF 5
ENDMDL
MODEL 7
REMARK VINA RESULT:      -7.9      3.439      5.007
REMARK  Name = 
REMARK  7 active torsions:
REMARK  status: ('A' for Active; 'I' for Inactive)
REMARK    1  A    between atoms: C_1  and  C_2
REMARK    2  A    between atoms: C_5  and  N_6
REMARK    3  A    between atoms: C_7  and  C_9
REMARK    4  A    between atoms: C_9  and  N_10
REMARK    5  A    between atoms: N_10  and  C_11
REMARK    6  A    between atoms: C_15  and  S_16
REMARK    7  A    between atoms: S_16  and  N_19
REMARK                            x       y       z     vdW  Elec       q    Type
REMARK                         _______ _______ _______ _____ _____    ______ ____
ROOT
ATOM      1  N   UNL     1       0.459  10.226  19.806  0.00  0.00    +0.000 N 
ATOM      2  C   UNL     1       0.334  10.513  21.230  0.00  0.00    +0.000 C 
ATOM      3  C   UNL     1       1.273   9.168  19.453  0.00  0.00    +0.000 A 
ATOM      4  C   UNL     1       1.920   9.076  18.216  0.00  0.00    +0.000 A 
ATOM      5  C   UNL     1       2.715   7.967  17.910  0.00  0.00    +0.000 A 
ATOM      6  C   UNL     1       2.843   6.965  18.856  0.00  0.00    +0.000 A 
ATOM      7  C   UNL     1       2.188   7.104  20.058  0.00  0.00    +0.000 A 
ATOM      8  N   UNL     1       1.413   8.176  20.361  0.00  0.00    +0.000 NA
ENDROOT
BRANCH   6   9
ATOM      9  S   UNL     1       3.869   5.571  18.578  0.00  0.00    +0.000 S 
ATOM     10  O   UNL     1       5.044   6.042  17.879  0.00  0.00    +0.000 OA
ATOM     11  O   UNL     1       3.983   4.837  19.820  0.00  0.00    +0.000 OA
BRANCH   9  12
ATOM     12  N   UNL     1       2.979   4.593  17.497  0.00  0.00    +0.000 NA
ATOM     13  C   UNL     1       1.521   4.458  17.732  0.00  0.00    +0.000 C 
ATOM     14  C   UNL     1       1.353   3.126  18.432  0.00  0.00    +0.000 C 
ATOM     15  C   UNL     1       2.432   2.253  17.827  0.00  0.00    +0.000 C 
ATOM     16  C   UNL     1       3.530   3.208  17.369  0.00  0.00    +0.000 C 
ENDBRANCH   9  12
ENDBRANCH   6   9
BRANCH   1  17
ATOM     17  C   UNL     1      -0.044  11.208  18.848  0.00  0.00    +0.000 C 
BRANCH  17  19
ATOM     18  N   UNL     1       2.025  12.592  18.837  0.00  0.00    +0.000 N 
ATOM     19  C   UNL     1       0.644  12.576  18.939  0.00  0.00    +0.000 C 
ATOM     20  O   UNL     1      -0.073  13.579  19.045  0.00  0.00    +0.000 OA
ATOM     21  H   UNL     1       2.460  11.700  18.609  0.00  0.00    +0.000 HD
BRANCH  18  26
ATOM     22  C   UNL     1       5.430  17.213  19.251  0.00  0.00    +0.000 C 
ATOM     23  C   UNL     1       4.528  16.020  19.146  0.00  0.00    +0.000 A 
ATOM     24  C   UNL     1       4.034  15.615  17.907  0.00  0.00    +0.000 A 
ATOM     25  C   UNL     1       3.205  14.496  17.804  0.00  0.00    +0.000 A 
ATOM     26  C   UNL     1       2.846  13.745  18.928  0.00  0.00    +0.000 A 
ATOM     27  C   UNL     1       3.311  14.167  20.176  0.00  0.00    +0.000 A 
ATOM     28  C   UNL     1       4.158  15.288  20.282  0.00  0.00    +0.000 A 
ENDBRANCH  18  26
ENDBRANCH  17  19
ENDBRANCH   1  17
TORSDOF 5
ENDMDL
MODEL 8
REMARK VINA RESULT:      -7.9      1.047      1.106
REMARK  Name = 
REMARK  7 active torsions:
REMARK  status: ('A' for Active; 'I' for Inactive)
REMARK    1  A    between atoms: C_1  and  C_2
REMARK    2  A    between atoms: C_5  and  N_6
REMARK    3  A    between atoms: C_7  and  C_9
REMARK    4  A    between atoms: C_9  and  N_10
REMARK    5  A    between atoms: N_10  and  C_11
REMARK    6  A    between atoms: C_15  and  S_16
REMARK    7  A    between atoms: S_16  and  N_19
REMARK                            x       y       z     vdW  Elec       q    Type
REMARK                         _______ _______ _______ _____ _____    ______ ____
ROOT
ATOM      1  N   UNL     1       1.156   9.308  19.253  0.00  0.00    +0.000 N 
ATOM      2  C   UNL     1       0.859   9.618  20.647  0.00  0.00    +0.000 C 
ATOM      3  C   UNL     1       2.020   8.257  19.019  0.00  0.00    +0.000 A 
ATOM      4  C   UNL     1       2.810   8.154  17.870  0.00  0.00    +0.000 A 
ATOM      5  C   UNL     1       3.651   7.054  17.680  0.00  0.00    +0.000 A 
ATOM      6  C   UNL     1       3.682   6.071  18.655  0.00  0.00    +0.000 A 
ATOM      7  C   UNL     1       2.888   6.220  19.769  0.00  0.00    +0.000 A 
ATOM      8  N   UNL     1       2.067   7.285  19.957  0.00  0.00    +0.000 NA
ENDROOT
BRANCH   6   9
ATOM      9  S   UNL     1       4.753   4.689  18.527  0.00  0.00    +0.000 S 
ATOM     10  O   UNL     1       5.584   4.904  17.362  0.00  0.00    +0.000 OA
ATOM     11  O   UNL     1       5.338   4.446  19.828  0.00  0.00    +0.000 OA
BRANCH   9  12
ATOM     12  N   UNL     1       3.717   3.374  18.189  0.00  0.00    +0.000 NA
ATOM     13  C   UNL     1       2.668   3.572  17.159  0.00  0.00    +0.000 C 
ATOM     14  C   UNL     1       1.397   3.845  17.935  0.00  0.00    +0.000 C 
ATOM     15  C   UNL     1       1.537   2.997  19.183  0.00  0.00    +0.000 C 
ATOM     16  C   UNL     1       3.037   2.835  19.406  0.00  0.00    +0.000 C 
ENDBRANCH   9  12
ENDBRANCH   6   9
BRANCH   1  17
ATOM     17  C   UNL     1       0.755  10.265  18.224  0.00  0.00    +0.000 C 
BRANCH  17  19
ATOM     18  N   UNL     1      -1.446  11.417  18.378  0.00  0.00    +0.000 N 
ATOM     19  C   UNL     1      -0.755  10.295  17.955  0.00  0.00    +0.000 C 
ATOM     20  O   UNL     1      -1.250   9.346  17.334  0.00  0.00    +0.000 OA
ATOM     21  H   UNL     1      -0.873  12.175  18.745  0.00  0.00    +0.000 HD
BRANCH  18  26
ATOM     22  C   UNL     1      -7.105  12.346  17.898  0.00  0.00    +0.000 C 
ATOM     23  C   UNL     1      -5.634  12.087  18.029  0.00  0.00    +0.000 A 
ATOM     24  C   UNL     1      -4.900  11.618  16.941  0.00  0.00    +0.000 A 
ATOM     25  C   UNL     1      -3.527  11.388  17.055  0.00  0.00    +0.000 A 
ATOM     26  C   UNL     1      -2.844  11.622  18.253  0.00  0.00    +0.000 A 
ATOM     27  C   UNL     1      -3.581  12.061  19.355  0.00  0.00    +0.000 A 
ATOM     28  C   UNL     1      -4.964  12.305  19.239  0.00  0.00    +0.000 A 
ENDBRANCH  18  26
ENDBRANCH  17  19
ENDBRANCH   1  17
TORSDOF 5
ENDMDL
MODEL 9
REMARK VINA RESULT:      -7.8      3.411      5.010
REMARK  Name = 
REMARK  7 active torsions:
REMARK  status: ('A' for Active; 'I' for Inactive)
REMARK    1  A    between atoms: C_1  and  C_2
REMARK    2  A    between atoms: C_5  and  N_6
REMARK    3  A    between atoms: C_7  and  C_9
REMARK    4  A    between atoms: C_9  and  N_10
REMARK    5  A    between atoms: N_10  and  C_11
REMARK    6  A    between atoms: C_15  and  S_16
REMARK    7  A    between atoms: S_16  and  N_19
REMARK                            x       y       z     vdW  Elec       q    Type
REMARK                         _______ _______ _______ _____ _____    ______ ____
ROOT
ATOM      1  N   UNL     1       0.540   9.992  20.008  0.00  0.00    +0.000 N 
ATOM      2  C   UNL     1       0.449  10.245  21.441  0.00  0.00    +0.000 C 
ATOM      3  C   UNL     1       1.335   8.936  19.611  0.00  0.00    +0.000 A 
ATOM      4  C   UNL     1       1.953   8.868  18.359  0.00  0.00    +0.000 A 
ATOM      5  C   UNL     1       2.730   7.760  18.007  0.00  0.00    +0.000 A 
ATOM      6  C   UNL     1       2.870   6.734  18.926  0.00  0.00    +0.000 A 
ATOM      7  C   UNL     1       2.244   6.849  20.146  0.00  0.00    +0.000 A 
ATOM      8  N   UNL     1       1.486   7.921  20.492  0.00  0.00    +0.000 NA
ENDROOT
BRANCH   6   9
ATOM      9  S   UNL     1       3.875   5.337  18.592  0.00  0.00    +0.000 S 
ATOM     10  O   UNL     1       3.939   5.197  17.153  0.00  0.00    +0.000 OA
ATOM     11  O   UNL     1       5.080   5.445  19.386  0.00  0.00    +0.000 OA
BRANCH   9  12
ATOM     12  N   UNL     1       2.987   4.013  19.203  0.00  0.00    +0.000 NA
ATOM     13  C   UNL     1       3.743   2.795  19.584  0.00  0.00    +0.000 C 
ATOM     14  C   UNL     1       3.577   1.843  18.419  0.00  0.00    +0.000 C 
ATOM     15  C   UNL     1       2.180   2.129  17.905  0.00  0.00    +0.000 C 
ATOM     16  C   UNL     1       1.885   3.575  18.291  0.00  0.00    +0.000 C 
ENDBRANCH   9  12
ENDBRANCH   6   9
BRANCH   1  17
ATOM     17  C   UNL     1       0.025  11.003  19.087  0.00  0.00    +0.000 C 
BRANCH  17  19
ATOM     18  N   UNL     1       2.030  12.474  18.988  0.00  0.00    +0.000 N 
ATOM     19  C   UNL     1       0.673  12.383  19.249  0.00  0.00    +0.000 C 
ATOM     20  O   UNL     1      -0.058  13.334  19.550  0.00  0.00    +0.000 OA
ATOM     21  H   UNL     1       2.463  11.633  18.612  0.00  0.00    +0.000 HD
BRANCH  18  26
ATOM     22  C   UNL     1       5.300  17.178  19.532  0.00  0.00    +0.000 C 
ATOM     23  C   UNL     1       4.433  15.963  19.394  0.00  0.00    +0.000 A 
ATOM     24  C   UNL     1       3.983  15.556  18.138  0.00  0.00    +0.000 A 
ATOM     25  C   UNL     1       3.187  14.417  18.003  0.00  0.00    +0.000 A 
ATOM     26  C   UNL     1       2.818  13.647  19.111  0.00  0.00    +0.000 A 
ATOM     27  C   UNL     1       3.239  14.069  20.374  0.00  0.00    +0.000 A 
ATOM     28  C   UNL     1       4.053  15.211  20.512  0.00  0.00    +0.000 A 
ENDBRANCH  18  26
ENDBRANCH  17  19
ENDBRANCH   1  17
TORSDOF 5
ENDMDL
