MODEL 1
REMARK VINA RESULT:      -8.7      0.000      0.000
REMARK  Name = 
REMARK  8 active torsions:
REMARK  status: ('A' for Active; 'I' for Inactive)
REMARK    1  A    between atoms: C_2  and  O_3
REMARK    2  A    between atoms: C_2  and  C_4
REMARK    3  A    between atoms: C_4  and  C_5
REMARK    4  A    between atoms: C_7  and  C_8
REMARK    5  A    between atoms: C_11  and  O_12
REMARK    6  A    between atoms: O_12  and  C_13
REMARK    7  A    between atoms: C_13  and  C_14
REMARK    8  A    between atoms: C_14  and  C_15
REMARK                            x       y       z     vdW  Elec       q    Type
REMARK                         _______ _______ _______ _____ _____    ______ ____
ROOT
ATOM      1  C   UNL     1       4.581   5.354  18.270  0.00  0.00    +0.000 A 
ATOM      2  C   UNL     1       4.496   6.317  17.254  0.00  0.00    +0.000 A 
ATOM      3  C   UNL     1       5.611   7.083  16.879  0.00  0.00    +0.000 A 
ATOM      4  C   UNL     1       6.847   6.905  17.506  0.00  0.00    +0.000 A 
ATOM      5  C   UNL     1       6.943   5.930  18.500  0.00  0.00    +0.000 A 
ATOM      6  F   UNL     1       8.092   5.688  19.147  0.00  0.00    +0.000 F 
ATOM      7  C   UNL     1       5.835   5.167  18.868  0.00  0.00    +0.000 A 
ENDROOT
BRANCH   1  10
ATOM      8  C   UNL     1       2.803   3.462  17.803  0.00  0.00    +0.000 C 
ATOM      9  C   UNL     1       2.069   4.757  18.004  0.00  0.00    +0.000 C 
ATOM     10  C   UNL     1       3.392   4.530  18.707  0.00  0.00    +0.000 C 
BRANCH   8  11
ATOM     11  C   UNL     1       2.206   2.205  18.369  0.00  0.00    +0.000 C 
BRANCH  11  13
ATOM     12  O   UNL     1       1.724   2.470  20.740  0.00  0.00    +0.000 OA
ATOM     13  C   UNL     1       1.332   2.427  19.583  0.00  0.00    +0.000 C 
BRANCH  13  14
ATOM     14  O   UNL     1       0.025   2.574  19.260  0.00  0.00    +0.000 OA
ATOM     15  H   UNL     1      -0.392   3.369  19.643  0.00  0.00    +0.000 HD
ENDBRANCH  13  14
ENDBRANCH  11  13
ENDBRANCH   8  11
ENDBRANCH   1  10
BRANCH   4  16
ATOM     16  O   UNL     1       7.845   7.734  17.063  0.00  0.00    +0.000 OA
BRANCH  16  17
ATOM     17  C   UNL     1       7.894   9.045  17.641  0.00  0.00    +0.000 C 
BRANCH  17  18
ATOM     18  C   UNL     1       8.807   9.019  18.864  0.00  0.00    +0.000 C 
BRANCH  18  19
ATOM     19  C   UNL     1       9.477  10.353  19.063  0.00  0.00    +0.000 A 
ATOM     20  C   UNL     1       9.549  10.924  20.329  0.00  0.00    +0.000 A 
ATOM     21  C   UNL     1      10.218  12.133  20.479  0.00  0.00    +0.000 A 
ATOM     22  C   UNL     1      10.812  12.730  19.367  0.00  0.00    +0.000 A 
ATOM     23  C   UNL     1      10.693  12.094  18.129  0.00  0.00    +0.000 A 
ATOM     24  N   UNL     1      10.040  10.928  17.971  0.00  0.00    +0.000 NA
ATOM     25  N   UNL     1      11.306  12.615  16.997  0.00  0.00    +0.000 N 
ATOM     26  C   UNL     1      11.567  14.036  16.990  0.00  0.00    +0.000 C 
ATOM     27  C   UNL     1      12.333  14.402  18.256  0.00  0.00    +0.000 C 
ATOM     28  C   UNL     1      11.489  14.070  19.485  0.00  0.00    +0.000 C 
ATOM     29  H   UNL     1      10.929  12.173  16.165  0.00  0.00    +0.000 HD
ENDBRANCH  18  19
ENDBRANCH  17  18
ENDBRANCH  16  17
ENDBRANCH   4  16
TORSDOF 8
ENDMDL
MODEL 2
REMARK VINA RESULT:      -8.4      1.300      1.506
REMARK  Name = 
REMARK  8 active torsions:
REMARK  status: ('A' for Active; 'I' for Inactive)
REMARK    1  A    between atoms: C_2  and  O_3
REMARK    2  A    between atoms: C_2  and  C_4
REMARK    3  A    between atoms: C_4  and  C_5
REMARK    4  A    between atoms: C_7  and  C_8
REMARK    5  A    between atoms: C_11  and  O_12
REMARK    6  A    between atoms: O_12  and  C_13
REMARK    7  A    between atoms: C_13  and  C_14
REMARK    8  A    between atoms: C_14  and  C_15
REMARK                            x       y       z     vdW  Elec       q    Type
REMARK                         _______ _______ _______ _____ _____    ______ ____
ROOT
ATOM      1  C   UNL     1       4.446   4.881  17.457  0.00  0.00    +0.000 A 
ATOM      2  C   UNL     1       4.405   6.278  17.335  0.00  0.00    +0.000 A 
ATOM      3  C   UNL     1       5.575   7.028  17.142  0.00  0.00    +0.000 A 
ATOM      4  C   UNL     1       6.822   6.404  17.059  0.00  0.00    +0.000 A 
ATOM      5  C   UNL     1       6.865   5.012  17.153  0.00  0.00    +0.000 A 
ATOM      6  F   UNL     1       8.018   4.332  17.076  0.00  0.00    +0.000 F 
ATOM      7  C   UNL     1       5.701   4.268  17.341  0.00  0.00    +0.000 A 
ENDROOT
BRANCH   1  10
ATOM      8  C   UNL     1       3.041   3.210  18.938  0.00  0.00    +0.000 C 
ATOM      9  C   UNL     1       3.330   2.543  17.623  0.00  0.00    +0.000 C 
ATOM     10  C   UNL     1       3.204   4.052  17.685  0.00  0.00    +0.000 C 
BRANCH   8  11
ATOM     11  C   UNL     1       1.692   3.001  19.566  0.00  0.00    +0.000 C 
BRANCH  11  13
ATOM     12  O   UNL     1       2.165   4.400  21.500  0.00  0.00    +0.000 OA
ATOM     13  C   UNL     1       1.611   3.425  21.015  0.00  0.00    +0.000 C 
BRANCH  13  14
ATOM     14  O   UNL     1       0.843   2.590  21.756  0.00  0.00    +0.000 OA
ATOM     15  H   UNL     1      -0.096   2.852  21.804  0.00  0.00    +0.000 HD
ENDBRANCH  13  14
ENDBRANCH  11  13
ENDBRANCH   8  11
ENDBRANCH   1  10
BRANCH   4  16
ATOM     16  O   UNL     1       7.885   7.254  16.895  0.00  0.00    +0.000 OA
BRANCH  16  17
ATOM     17  C   UNL     1       8.174   8.138  17.985  0.00  0.00    +0.000 C 
BRANCH  17  18
ATOM     18  C   UNL     1       7.824   9.566  17.577  0.00  0.00    +0.000 C 
BRANCH  18  19
ATOM     19  C   UNL     1       8.715  10.559  18.280  0.00  0.00    +0.000 A 
ATOM     20  C   UNL     1       9.359  10.213  19.463  0.00  0.00    +0.000 A 
ATOM     21  C   UNL     1      10.209  11.139  20.056  0.00  0.00    +0.000 A 
ATOM     22  C   UNL     1      10.409  12.377  19.443  0.00  0.00    +0.000 A 
ATOM     23  C   UNL     1       9.722  12.648  18.256  0.00  0.00    +0.000 A 
ATOM     24  N   UNL     1       8.889  11.762  17.679  0.00  0.00    +0.000 NA
ATOM     25  N   UNL     1       9.919  13.842  17.574  0.00  0.00    +0.000 N 
ATOM     26  C   UNL     1      10.370  14.972  18.353  0.00  0.00    +0.000 C 
ATOM     27  C   UNL     1      11.614  14.566  19.136  0.00  0.00    +0.000 C 
ATOM     28  C   UNL     1      11.273  13.424  20.091  0.00  0.00    +0.000 C 
ATOM     29  H   UNL     1       9.186  13.972  16.885  0.00  0.00    +0.000 HD
ENDBRANCH  18  19
ENDBRANCH  17  18
ENDBRANCH  16  17
ENDBRANCH   4  16
TORSDOF 8
ENDMDL
MODEL 3
REMARK VINA RESULT:      -8.4      6.372      7.965
REMARK  Name = 
REMARK  8 active torsions:
REMARK  status: ('A' for Active; 'I' for Inactive)
REMARK    1  A    between atoms: C_2  and  O_3
REMARK    2  A    between atoms: C_2  and  C_4
REMARK    3  A    between atoms: C_4  and  C_5
REMARK    4  A    between atoms: C_7  and  C_8
REMARK    5  A    between atoms: C_11  and  O_12
REMARK    6  A    between atoms: O_12  and  C_13
REMARK    7  A    between atoms: C_13  and  C_14
REMARK    8  A    between atoms: C_14  and  C_15
REMARK                            x       y       z     vdW  Elec       q    Type
REMARK                         _______ _______ _______ _____ _____    ______ ____
ROOT
ATOM      1  C   UNL     1       5.143   4.508  16.127  0.00  0.00    +0.000 A 
ATOM      2  C   UNL     1       3.931   3.813  16.252  0.00  0.00    +0.000 A 
ATOM      3  C   UNL     1       3.394   3.501  17.511  0.00  0.00    +0.000 A 
ATOM      4  C   UNL     1       4.052   3.880  18.685  0.00  0.00    +0.000 A 
ATOM      5  C   UNL     1       5.245   4.595  18.566  0.00  0.00    +0.000 A 
ATOM      6  F   UNL     1       5.936   5.003  19.639  0.00  0.00    +0.000 F 
ATOM      7  C   UNL     1       5.774   4.906  17.313  0.00  0.00    +0.000 A 
ENDROOT
BRANCH   1  10
ATOM      8  C   UNL     1       6.408   3.765  13.935  0.00  0.00    +0.000 C 
ATOM      9  C   UNL     1       7.260   4.775  14.649  0.00  0.00    +0.000 C 
ATOM     10  C   UNL     1       5.752   4.838  14.785  0.00  0.00    +0.000 C 
BRANCH   8  11
ATOM     11  C   UNL     1       6.345   3.813  12.434  0.00  0.00    +0.000 C 
BRANCH  11  13
ATOM     12  O   UNL     1       4.228   3.078  11.484  0.00  0.00    +0.000 OA
ATOM     13  C   UNL     1       5.375   2.827  11.823  0.00  0.00    +0.000 C 
BRANCH  13  14
ATOM     14  O   UNL     1       5.913   1.591  11.685  0.00  0.00    +0.000 OA
ATOM     15  H   UNL     1       6.861   1.543  11.908  0.00  0.00    +0.000 HD
ENDBRANCH  13  14
ENDBRANCH  11  13
ENDBRANCH   8  11
ENDBRANCH   1  10
BRANCH   4  16
ATOM     16  O   UNL     1       3.433   3.492  19.845  0.00  0.00    +0.000 OA
BRANCH  16  17
ATOM     17  C   UNL     1       2.112   4.001  20.069  0.00  0.00    +0.000 C 
BRANCH  17  18
ATOM     18  C   UNL     1       2.186   5.188  21.024  0.00  0.00    +0.000 C 
BRANCH  18  19
ATOM     19  C   UNL     1       2.043   6.489  20.277  0.00  0.00    +0.000 A 
ATOM     20  C   UNL     1       2.467   6.593  18.957  0.00  0.00    +0.000 A 
ATOM     21  C   UNL     1       2.274   7.795  18.287  0.00  0.00    +0.000 A 
ATOM     22  C   UNL     1       1.647   8.854  18.945  0.00  0.00    +0.000 A 
ATOM     23  C   UNL     1       1.252   8.669  20.272  0.00  0.00    +0.000 A 
ATOM     24  N   UNL     1       1.442   7.512  20.934  0.00  0.00    +0.000 NA
ATOM     25  N   UNL     1       0.578   9.668  20.963  0.00  0.00    +0.000 N 
ATOM     26  C   UNL     1       0.787  11.026  20.516  0.00  0.00    +0.000 C 
ATOM     27  C   UNL     1       0.511  11.099  19.018  0.00  0.00    +0.000 C 
ATOM     28  C   UNL     1       1.480  10.188  18.268  0.00  0.00    +0.000 C 
ATOM     29  H   UNL     1       0.580   9.465  21.957  0.00  0.00    +0.000 HD
ENDBRANCH  18  19
ENDBRANCH  17  18
ENDBRANCH  16  17
ENDBRANCH   4  16
TORSDOF 8
ENDMDL
MODEL 4
REMARK VINA RESULT:      -8.3      4.901      7.814
REMARK  Name = 
REMARK  8 active torsions:
REMARK  status: ('A' for Active; 'I' for Inactive)
REMARK    1  A    between atoms: C_2  and  O_3
REMARK    2  A    between atoms: C_2  and  C_4
REMARK    3  A    between atoms: C_4  and  C_5
REMARK    4  A    between atoms: C_7  and  C_8
REMARK    5  A    between atoms: C_11  and  O_12
REMARK    6  A    between atoms: O_12  and  C_13
REMARK    7  A    between atoms: C_13  and  C_14
REMARK    8  A    between atoms: C_14  and  C_15
REMARK                            x       y       z     vdW  Elec       q    Type
REMARK                         _______ _______ _______ _____ _____    ______ ____
ROOT
ATOM      1  C   UNL     1       1.733   6.472  19.879  0.00  0.00    +0.000 A 
ATOM      2  C   UNL     1       1.829   6.100  18.530  0.00  0.00    +0.000 A 
ATOM      3  C   UNL     1       1.671   4.765  18.128  0.00  0.00    +0.000 A 
ATOM      4  C   UNL     1       1.406   3.761  19.062  0.00  0.00    +0.000 A 
ATOM      5  C   UNL     1       1.284   4.129  20.403  0.00  0.00    +0.000 A 
ATOM      6  F   UNL     1       1.025   3.232  21.364  0.00  0.00    +0.000 F 
ATOM      7  C   UNL     1       1.439   5.457  20.800  0.00  0.00    +0.000 A 
ENDROOT
BRANCH   1  10
ATOM      8  C   UNL     1       0.729   8.764  20.713  0.00  0.00    +0.000 C 
ATOM      9  C   UNL     1       1.458   9.013  19.423  0.00  0.00    +0.000 C 
ATOM     10  C   UNL     1       1.919   7.898  20.341  0.00  0.00    +0.000 C 
BRANCH   8  11
ATOM     11  C   UNL     1       0.826   9.796  21.802  0.00  0.00    +0.000 C 
BRANCH  11  13
ATOM     12  O   UNL     1       0.641  12.220  21.700  0.00  0.00    +0.000 OA
ATOM     13  C   UNL     1       0.173  11.117  21.463  0.00  0.00    +0.000 C 
BRANCH  13  14
ATOM     14  O   UNL     1      -1.026  10.959  20.852  0.00  0.00    +0.000 OA
ATOM     15  H   UNL     1      -1.629  10.346  21.313  0.00  0.00    +0.000 HD
ENDBRANCH  13  14
ENDBRANCH  11  13
ENDBRANCH   8  11
ENDBRANCH   1  10
BRANCH   4  16
ATOM     16  O   UNL     1       1.299   2.498  18.540  0.00  0.00    +0.000 OA
BRANCH  16  17
ATOM     17  C   UNL     1       2.369   2.061  17.691  0.00  0.00    +0.000 C 
BRANCH  17  18
ATOM     18  C   UNL     1       3.672   2.066  18.485  0.00  0.00    +0.000 C 
BRANCH  18  19
ATOM     19  C   UNL     1       4.583   3.170  18.015  0.00  0.00    +0.000 A 
ATOM     20  C   UNL     1       4.548   3.598  16.692  0.00  0.00    +0.000 A 
ATOM     21  C   UNL     1       5.370   4.651  16.309  0.00  0.00    +0.000 A 
ATOM     22  C   UNL     1       6.190   5.261  17.259  0.00  0.00    +0.000 A 
ATOM     23  C   UNL     1       6.168   4.771  18.567  0.00  0.00    +0.000 A 
ATOM     24  N   UNL     1       5.383   3.746  18.947  0.00  0.00    +0.000 NA
ATOM     25  N   UNL     1       6.924   5.369  19.566  0.00  0.00    +0.000 N 
ATOM     26  C   UNL     1       8.102   6.094  19.149  0.00  0.00    +0.000 C 
ATOM     27  C   UNL     1       7.706   7.099  18.072  0.00  0.00    +0.000 C 
ATOM     28  C   UNL     1       7.137   6.362  16.862  0.00  0.00    +0.000 C 
ATOM     29  H   UNL     1       6.975   4.759  20.375  0.00  0.00    +0.000 HD
ENDBRANCH  18  19
ENDBRANCH  17  18
ENDBRANCH  16  17
ENDBRANCH   4  16
TORSDOF 8
ENDMDL
MODEL 5
REMARK VINA RESULT:      -8.3      1.521      1.934
REMARK  Name = 
REMARK  8 active torsions:
REMARK  status: ('A' for Active; 'I' for Inactive)
REMARK    1  A    between atoms: C_2  and  O_3
REMARK    2  A    between atoms: C_2  and  C_4
REMARK    3  A    between atoms: C_4  and  C_5
REMARK    4  A    between atoms: C_7  and  C_8
REMARK    5  A    between atoms: C_11  and  O_12
REMARK    6  A    between atoms: O_12  and  C_13
REMARK    7  A    between atoms: C_13  and  C_14
REMARK    8  A    between atoms: C_14  and  C_15
REMARK                            x       y       z     vdW  Elec       q    Type
REMARK                         _______ _______ _______ _____ _____    ______ ____
ROOT
ATOM      1  C   UNL     1       5.022   4.434  18.154  0.00  0.00    +0.000 A 
ATOM      2  C   UNL     1       6.199   4.802  18.821  0.00  0.00    +0.000 A 
ATOM      3  C   UNL     1       7.007   5.850  18.353  0.00  0.00    +0.000 A 
ATOM      4  C   UNL     1       6.657   6.566  17.205  0.00  0.00    +0.000 A 
ATOM      5  C   UNL     1       5.473   6.221  16.552  0.00  0.00    +0.000 A 
ATOM      6  F   UNL     1       5.059   6.860  15.449  0.00  0.00    +0.000 F 
ATOM      7  C   UNL     1       4.670   5.181  17.022  0.00  0.00    +0.000 A 
ENDROOT
BRANCH   1  10
ATOM      8  C   UNL     1       3.181   3.478  19.784  0.00  0.00    +0.000 C 
ATOM      9  C   UNL     1       4.440   2.682  19.980  0.00  0.00    +0.000 C 
ATOM     10  C   UNL     1       4.145   3.297  18.626  0.00  0.00    +0.000 C 
BRANCH   8  11
ATOM     11  C   UNL     1       1.863   2.756  19.820  0.00  0.00    +0.000 C 
BRANCH  11  13
ATOM     12  O   UNL     1       1.119   3.787  17.745  0.00  0.00    +0.000 OA
ATOM     13  C   UNL     1       1.065   2.861  18.541  0.00  0.00    +0.000 C 
BRANCH  13  14
ATOM     14  O   UNL     1       0.248   1.796  18.352  0.00  0.00    +0.000 OA
ATOM     15  H   UNL     1       0.198   1.494  17.425  0.00  0.00    +0.000 HD
ENDBRANCH  13  14
ENDBRANCH  11  13
ENDBRANCH   8  11
ENDBRANCH   1  10
BRANCH   4  16
ATOM     16  O   UNL     1       7.544   7.547  16.842  0.00  0.00    +0.000 OA
BRANCH  16  17
ATOM     17  C   UNL     1       8.137   8.302  17.907  0.00  0.00    +0.000 C 
BRANCH  17  18
ATOM     18  C   UNL     1       7.722   9.764  17.775  0.00  0.00    +0.000 C 
BRANCH  18  19
ATOM     19  C   UNL     1       8.784  10.676  18.333  0.00  0.00    +0.000 A 
ATOM     20  C   UNL     1       9.471  10.331  19.492  0.00  0.00    +0.000 A 
ATOM     21  C   UNL     1      10.477  11.175  19.949  0.00  0.00    +0.000 A 
ATOM     22  C   UNL     1      10.782  12.329  19.227  0.00  0.00    +0.000 A 
ATOM     23  C   UNL     1      10.043  12.606  18.074  0.00  0.00    +0.000 A 
ATOM     24  N   UNL     1       9.062  11.801  17.628  0.00  0.00    +0.000 NA
ATOM     25  N   UNL     1      10.335  13.714  17.288  0.00  0.00    +0.000 N 
ATOM     26  C   UNL     1      10.987  14.825  17.942  0.00  0.00    +0.000 C 
ATOM     27  C   UNL     1      12.227  14.313  18.665  0.00  0.00    +0.000 C 
ATOM     28  C   UNL     1      11.822  13.295  19.729  0.00  0.00    +0.000 C 
ATOM     29  H   UNL     1       9.572  13.892  16.644  0.00  0.00    +0.000 HD
ENDBRANCH  18  19
ENDBRANCH  17  18
ENDBRANCH  16  17
ENDBRANCH   4  16
TORSDOF 8
ENDMDL
MODEL 6
REMARK VINA RESULT:      -8.2      4.880      7.760
REMARK  Name = 
REMARK  8 active torsions:
REMARK  status: ('A' for Active; 'I' for Inactive)
REMARK    1  A    between atoms: C_2  and  O_3
REMARK    2  A    between atoms: C_2  and  C_4
REMARK    3  A    between atoms: C_4  and  C_5
REMARK    4  A    between atoms: C_7  and  C_8
REMARK    5  A    between atoms: C_11  and  O_12
REMARK    6  A    between atoms: O_12  and  C_13
REMARK    7  A    between atoms: C_13  and  C_14
REMARK    8  A    between atoms: C_14  and  C_15
REMARK                            x       y       z     vdW  Elec       q    Type
REMARK                         _______ _______ _______ _____ _____    ______ ____
ROOT
ATOM      1  C   UNL     1       1.777   7.270  19.740  0.00  0.00    +0.000 A 
ATOM      2  C   UNL     1       2.007   6.843  18.424  0.00  0.00    +0.000 A 
ATOM      3  C   UNL     1       1.989   5.481  18.084  0.00  0.00    +0.000 A 
ATOM      4  C   UNL     1       1.733   4.505  19.051  0.00  0.00    +0.000 A 
ATOM      5  C   UNL     1       1.477   4.927  20.356  0.00  0.00    +0.000 A 
ATOM      6  F   UNL     1       1.215   4.058  21.343  0.00  0.00    +0.000 F 
ATOM      7  C   UNL     1       1.493   6.281  20.691  0.00  0.00    +0.000 A 
ENDROOT
BRANCH   1  10
ATOM      8  C   UNL     1       0.541   9.471  20.505  0.00  0.00    +0.000 C 
ATOM      9  C   UNL     1       1.206   9.741  19.185  0.00  0.00    +0.000 C 
ATOM     10  C   UNL     1       1.812   8.728  20.135  0.00  0.00    +0.000 C 
BRANCH   8  11
ATOM     11  C   UNL     1       0.547  10.556  21.545  0.00  0.00    +0.000 C 
BRANCH  11  13
ATOM     12  O   UNL     1      -1.337  10.419  23.079  0.00  0.00    +0.000 OA
ATOM     13  C   UNL     1      -0.164  10.187  22.828  0.00  0.00    +0.000 C 
BRANCH  13  14
ATOM     14  O   UNL     1       0.650   9.557  23.708  0.00  0.00    +0.000 OA
ATOM     15  H   UNL     1       0.883  10.094  24.489  0.00  0.00    +0.000 HD
ENDBRANCH  13  14
ENDBRANCH  11  13
ENDBRANCH   8  11
ENDBRANCH   1  10
BRANCH   4  16
ATOM     16  O   UNL     1       1.768   3.213  18.592  0.00  0.00    +0.000 OA
BRANCH  16  17
ATOM     17  C   UNL     1       2.673   2.321  19.255  0.00  0.00    +0.000 C 
BRANCH  17  18
ATOM     18  C   UNL     1       3.751   1.877  18.271  0.00  0.00    +0.000 C 
BRANCH  18  19
ATOM     19  C   UNL     1       4.606   3.044  17.848  0.00  0.00    +0.000 A 
ATOM     20  C   UNL     1       4.532   3.538  16.550  0.00  0.00    +0.000 A 
ATOM     21  C   UNL     1       5.301   4.645  16.212  0.00  0.00    +0.000 A 
ATOM     22  C   UNL     1       6.108   5.241  17.182  0.00  0.00    +0.000 A 
ATOM     23  C   UNL     1       6.128   4.682  18.462  0.00  0.00    +0.000 A 
ATOM     24  N   UNL     1       5.395   3.605  18.798  0.00  0.00    +0.000 NA
ATOM     25  N   UNL     1       6.873   5.261  19.482  0.00  0.00    +0.000 N 
ATOM     26  C   UNL     1       8.012   6.058  19.088  0.00  0.00    +0.000 C 
ATOM     27  C   UNL     1       7.556   7.099  18.071  0.00  0.00    +0.000 C 
ATOM     28  C   UNL     1       7.000   6.401  16.831  0.00  0.00    +0.000 C 
ATOM     29  H   UNL     1       6.963   4.612  20.257  0.00  0.00    +0.000 HD
ENDBRANCH  18  19
ENDBRANCH  17  18
ENDBRANCH  16  17
ENDBRANCH   4  16
TORSDOF 8
ENDMDL
MODEL 7
REMARK VINA RESULT:      -8.2      4.918      7.767
REMARK  Name = 
REMARK  8 active torsions:
REMARK  status: ('A' for Active; 'I' for Inactive)
REMARK    1  A    between atoms: C_2  and  O_3
REMARK    2  A    between atoms: C_2  and  C_4
REMARK    3  A    between atoms: C_4  and  C_5
REMARK    4  A    between atoms: C_7  and  C_8
REMARK    5  A    between atoms: C_11  and  O_12
REMARK    6  A    between atoms: O_12  and  C_13
REMARK    7  A    between atoms: C_13  and  C_14
REMARK    8  A    between atoms: C_14  and  C_15
REMARK                            x       y       z     vdW  Elec       q    Type
REMARK                         _______ _______ _______ _____ _____    ______ ____
ROOT
ATOM      1  C   UNL     1       1.989   6.906  19.078  0.00  0.00    +0.000 A 
ATOM      2  C   UNL     1       1.754   6.154  17.918  0.00  0.00    +0.000 A 
ATOM      3  C   UNL     1       1.566   4.764  17.973  0.00  0.00    +0.000 A 
ATOM      4  C   UNL     1       1.602   4.084  19.193  0.00  0.00    +0.000 A 
ATOM      5  C   UNL     1       1.809   4.831  20.354  0.00  0.00    +0.000 A 
ATOM      6  F   UNL     1       1.850   4.261  21.566  0.00  0.00    +0.000 F 
ATOM      7  C   UNL     1       1.992   6.213  20.297  0.00  0.00    +0.000 A 
ENDROOT
BRANCH   1  10
ATOM      8  C   UNL     1       1.083   9.356  18.712  0.00  0.00    +0.000 C 
ATOM      9  C   UNL     1       2.164   9.099  17.701  0.00  0.00    +0.000 C 
ATOM     10  C   UNL     1       2.214   8.399  19.044  0.00  0.00    +0.000 C 
BRANCH   8  11
ATOM     11  C   UNL     1       1.003  10.717  19.345  0.00  0.00    +0.000 C 
BRANCH  11  13
ATOM     12  O   UNL     1      -1.309  11.232  19.902  0.00  0.00    +0.000 OA
ATOM     13  C   UNL     1      -0.187  10.906  20.258  0.00  0.00    +0.000 C 
BRANCH  13  14
ATOM     14  O   UNL     1       0.117  10.676  21.559  0.00  0.00    +0.000 OA
ATOM     15  H   UNL     1       1.015  10.320  21.700  0.00  0.00    +0.000 HD
ENDBRANCH  13  14
ENDBRANCH  11  13
ENDBRANCH   8  11
ENDBRANCH   1  10
BRANCH   4  16
ATOM     16  O   UNL     1       1.429   2.727  19.105  0.00  0.00    +0.000 OA
BRANCH  16  17
ATOM     17  C   UNL     1       2.218   2.043  18.123  0.00  0.00    +0.000 C 
BRANCH  17  18
ATOM     18  C   UNL     1       3.644   1.893  18.643  0.00  0.00    +0.000 C 
BRANCH  18  19
ATOM     19  C   UNL     1       4.527   2.994  18.114  0.00  0.00    +0.000 A 
ATOM     20  C   UNL     1       4.480   3.351  16.771  0.00  0.00    +0.000 A 
ATOM     21  C   UNL     1       5.274   4.403  16.331  0.00  0.00    +0.000 A 
ATOM     22  C   UNL     1       6.079   5.083  17.245  0.00  0.00    +0.000 A 
ATOM     23  C   UNL     1       6.072   4.661  18.577  0.00  0.00    +0.000 A 
ATOM     24  N   UNL     1       5.313   3.638  19.012  0.00  0.00    +0.000 NA
ATOM     25  N   UNL     1       6.814   5.330  19.542  0.00  0.00    +0.000 N 
ATOM     26  C   UNL     1       7.972   6.062  19.084  0.00  0.00    +0.000 C 
ATOM     27  C   UNL     1       7.550   6.998  17.958  0.00  0.00    +0.000 C 
ATOM     28  C   UNL     1       6.997   6.185  16.789  0.00  0.00    +0.000 C 
ATOM     29  H   UNL     1       6.881   4.764  20.382  0.00  0.00    +0.000 HD
ENDBRANCH  18  19
ENDBRANCH  17  18
ENDBRANCH  16  17
ENDBRANCH   4  16
TORSDOF 8
ENDMDL
MODEL 8
REMARK VINA RESULT:      -8.2      6.854     10.049
REMARK  Name = 
REMARK  8 active torsions:
REMARK  status: ('A' for Active; 'I' for Inactive)
REMARK    1  A    between atoms: C_2  and  O_3
REMARK    2  A    between atoms: C_2  and  C_4
REMARK    3  A    between atoms: C_4  and  C_5
REMARK    4  A    between atoms: C_7  and  C_8
REMARK    5  A    between atoms: C_11  and  O_12
REMARK    6  A    between atoms: O_12  and  C_13
REMARK    7  A    between atoms: C_13  and  C_14
REMARK    8  A    between atoms: C_14  and  C_15
REMARK                            x       y       z     vdW  Elec       q    Type
REMARK                         _______ _______ _______ _____ _____    ______ ____
ROOT
ATOM      1  C   UNL     1       3.889   5.880  18.248  0.00  0.00    +0.000 A 
ATOM      2  C   UNL     1       3.754   7.057  17.498  0.00  0.00    +0.000 A 
ATOM      3  C   UNL     1       2.875   8.078  17.894  0.00  0.00    +0.000 A 
ATOM      4  C   UNL     1       2.110   7.954  19.056  0.00  0.00    +0.000 A 
ATOM      5  C   UNL     1       2.261   6.796  19.820  0.00  0.00    +0.000 A 
ATOM      6  F   UNL     1       1.572   6.599  20.953  0.00  0.00    +0.000 F 
ATOM      7  C   UNL     1       3.137   5.784  19.427  0.00  0.00    +0.000 A 
ENDROOT
BRANCH   1  10
ATOM      8  C   UNL     1       5.016   4.409  16.370  0.00  0.00    +0.000 C 
ATOM      9  C   UNL     1       4.195   3.505  17.245  0.00  0.00    +0.000 C 
ATOM     10  C   UNL     1       4.812   4.757  17.834  0.00  0.00    +0.000 C 
BRANCH   8  11
ATOM     11  C   UNL     1       6.341   3.909  15.867  0.00  0.00    +0.000 C 
BRANCH  11  13
ATOM     12  O   UNL     1       7.671   5.471  14.558  0.00  0.00    +0.000 OA
ATOM     13  C   UNL     1       6.822   4.593  14.607  0.00  0.00    +0.000 C 
BRANCH  13  14
ATOM     14  O   UNL     1       6.200   4.130  13.496  0.00  0.00    +0.000 OA
ATOM     15  H   UNL     1       6.290   4.713  12.719  0.00  0.00    +0.000 HD
ENDBRANCH  13  14
ENDBRANCH  11  13
ENDBRANCH   8  11
ENDBRANCH   1  10
BRANCH   4  16
ATOM     16  O   UNL     1       1.276   9.011  19.315  0.00  0.00    +0.000 OA
BRANCH  16  17
ATOM     17  C   UNL     1       1.102   9.965  18.258  0.00  0.00    +0.000 C 
BRANCH  17  18
ATOM     18  C   UNL     1       0.340  11.173  18.795  0.00  0.00    +0.000 C 
BRANCH  18  19
ATOM     19  C   UNL     1      -1.128  11.070  18.471  0.00  0.00    +0.000 A 
ATOM     20  C   UNL     1      -1.588  10.099  17.587  0.00  0.00    +0.000 A 
ATOM     21  C   UNL     1      -2.954  10.004  17.351  0.00  0.00    +0.000 A 
ATOM     22  C   UNL     1      -3.825  10.867  18.015  0.00  0.00    +0.000 A 
ATOM     23  C   UNL     1      -3.284  11.817  18.885  0.00  0.00    +0.000 A 
ATOM     24  N   UNL     1      -1.962  11.923  19.115  0.00  0.00    +0.000 NA
ATOM     25  N   UNL     1      -4.104  12.670  19.613  0.00  0.00    +0.000 N 
ATOM     26  C   UNL     1      -5.413  12.942  19.064  0.00  0.00    +0.000 C 
ATOM     27  C   UNL     1      -6.108  11.618  18.767  0.00  0.00    +0.000 C 
ATOM     28  C   UNL     1      -5.304  10.832  17.734  0.00  0.00    +0.000 C 
ATOM     29  H   UNL     1      -3.557  13.431  19.999  0.00  0.00    +0.000 HD
ENDBRANCH  18  19
ENDBRANCH  17  18
ENDBRANCH  16  17
ENDBRANCH   4  16
TORSDOF 8
ENDMDL
MODEL 9
REMARK VINA RESULT:      -8.1      4.910      7.789
REMARK  Name = 
REMARK  8 active torsions:
REMARK  status: ('A' for Active; 'I' for Inactive)
REMARK    1  A    between atoms: C_2  and  O_3
REMARK    2  A    between atoms: C_2  and  C_4
REMARK    3  A    between atoms: C_4  and  C_5
REMARK    4  A    between atoms: C_7  and  C_8
REMARK    5  A    between atoms: C_11  and  O_12
REMARK    6  A    between atoms: O_12  and  C_13
REMARK    7  A    between atoms: C_13  and  C_14
REMARK    8  A    between atoms: C_14  and  C_15
REMARK                            x       y       z     vdW  Elec       q    Type
REMARK                         _______ _______ _______ _____ _____    ______ ____
ROOT
ATOM      1  C   UNL     1       1.901   6.764  20.044  0.00  0.00    +0.000 A 
ATOM      2  C   UNL     1       2.095   5.819  21.062  0.00  0.00    +0.000 A 
ATOM      3  C   UNL     1       2.093   4.442  20.790  0.00  0.00    +0.000 A 
ATOM      4  C   UNL     1       1.904   3.968  19.490  0.00  0.00    +0.000 A 
ATOM      5  C   UNL     1       1.737   4.905  18.469  0.00  0.00    +0.000 A 
ATOM      6  F   UNL     1       1.557   4.538  17.192  0.00  0.00    +0.000 F 
ATOM      7  C   UNL     1       1.742   6.273  18.740  0.00  0.00    +0.000 A 
ENDROOT
BRANCH   1  10
ATOM      8  C   UNL     1       0.645   8.926  20.885  0.00  0.00    +0.000 C 
ATOM      9  C   UNL     1       0.999   9.122  19.438  0.00  0.00    +0.000 C 
ATOM     10  C   UNL     1       1.878   8.251  20.312  0.00  0.00    +0.000 C 
BRANCH   8  11
ATOM     11  C   UNL     1       0.762  10.100  21.816  0.00  0.00    +0.000 C 
BRANCH  11  13
ATOM     12  O   UNL     1      -1.367  10.825  22.745  0.00  0.00    +0.000 OA
ATOM     13  C   UNL     1      -0.336  10.179  22.853  0.00  0.00    +0.000 C 
BRANCH  13  14
ATOM     14  O   UNL     1      -0.059   9.444  23.957  0.00  0.00    +0.000 OA
ATOM     15  H   UNL     1       0.840   9.581  24.310  0.00  0.00    +0.000 HD
ENDBRANCH  13  14
ENDBRANCH  11  13
ENDBRANCH   8  11
ENDBRANCH   1  10
BRANCH   4  16
ATOM     16  O   UNL     1       1.900   2.603  19.366  0.00  0.00    +0.000 OA
BRANCH  16  17
ATOM     17  C   UNL     1       3.177   1.968  19.224  0.00  0.00    +0.000 C 
BRANCH  17  18
ATOM     18  C   UNL     1       3.592   2.001  17.756  0.00  0.00    +0.000 C 
BRANCH  18  19
ATOM     19  C   UNL     1       4.555   3.131  17.495  0.00  0.00    +0.000 A 
ATOM     20  C   UNL     1       4.642   3.705  16.232  0.00  0.00    +0.000 A 
ATOM     21  C   UNL     1       5.508   4.776  16.043  0.00  0.00    +0.000 A 
ATOM     22  C   UNL     1       6.248   5.256  17.123  0.00  0.00    +0.000 A 
ATOM     23  C   UNL     1       6.105   4.623  18.360  0.00  0.00    +0.000 A 
ATOM     24  N   UNL     1       5.277   3.580  18.551  0.00  0.00    +0.000 NA
ATOM     25  N   UNL     1       6.778   5.088  19.483  0.00  0.00    +0.000 N 
ATOM     26  C   UNL     1       7.997   5.829  19.253  0.00  0.00    +0.000 C 
ATOM     27  C   UNL     1       7.711   6.956  18.268  0.00  0.00    +0.000 C 
ATOM     28  C   UNL     1       7.240   6.373  16.937  0.00  0.00    +0.000 C 
ATOM     29  H   UNL     1       6.750   4.390  20.218  0.00  0.00    +0.000 HD
ENDBRANCH  18  19
ENDBRANCH  17  18
ENDBRANCH  16  17
ENDBRANCH   4  16
TORSDOF 8
ENDMDL
