MODEL 1
REMARK VINA RESULT:      -7.6      0.000      0.000
REMARK  Name = 
REMARK  8 active torsions:
REMARK  status: ('A' for Active; 'I' for Inactive)
REMARK    1  A    between atoms: C_1  and  N_2
REMARK    2  A    between atoms: N_2  and  C_3
REMARK    3  A    between atoms: C_3  and  C_4
REMARK    4  A    between atoms: C_4  and  O_5
REMARK    5  A    between atoms: C_4  and  C_6
REMARK    6  A    between atoms: C_6  and  C_7
REMARK    7  A    between atoms: C_7  and  N_8
REMARK    8  A    between atoms: N_15  and  C_16
REMARK                            x       y       z     vdW  Elec       q    Type
REMARK                         _______ _______ _______ _____ _____    ______ ____
ROOT
ATOM      1  N   UNL     1       4.790   4.455  17.476  0.00  0.00    +0.000 N 
ATOM      2  C   UNL     1       3.634   3.732  17.902  0.00  0.00    +0.000 A 
ATOM      3  C   UNL     1       3.379   2.386  17.693  0.00  0.00    +0.000 A 
ATOM      4  C   UNL     1       2.108   1.893  18.006  0.00  0.00    +0.000 A 
ATOM      5  C   UNL     1       1.107   2.744  18.500  0.00  0.00    +0.000 A 
ATOM      6  C   UNL     1       1.360   4.105  18.685  0.00  0.00    +0.000 A 
ATOM      7  C   UNL     1       2.632   4.588  18.404  0.00  0.00    +0.000 A 
ATOM      8  N   UNL     1       3.005   5.966  18.294  0.00  0.00    +0.000 N 
ATOM      9  S   UNL     1       4.705   6.013  18.138  0.00  0.00    +0.000 S 
ATOM     10  O   UNL     1       5.092   6.992  17.148  0.00  0.00    +0.000 OA
ATOM     11  O   UNL     1       5.313   5.986  19.451  0.00  0.00    +0.000 OA
ENDROOT
BRANCH   8  12
ATOM     12  C   UNL     1       2.353   7.003  19.026  0.00  0.00    +0.000 A 
ATOM     13  C   UNL     1       2.061   8.192  18.353  0.00  0.00    +0.000 A 
ATOM     14  F   UNL     1       2.379   8.327  17.056  0.00  0.00    +0.000 F 
ATOM     15  C   UNL     1       1.395   9.241  18.982  0.00  0.00    +0.000 A 
ATOM     16  C   UNL     1       1.026   9.122  20.321  0.00  0.00    +0.000 A 
ATOM     17  C   UNL     1       1.347   7.958  21.023  0.00  0.00    +0.000 A 
ATOM     18  C   UNL     1       2.013   6.913  20.377  0.00  0.00    +0.000 A 
ATOM     19  F   UNL     1       2.285   5.803  21.079  0.00  0.00    +0.000 F 
ENDBRANCH   8  12
BRANCH   1  20
ATOM     20  C   UNL     1       6.043   3.886  16.990  0.00  0.00    +0.000 C 
BRANCH  20  21
ATOM     21  C   UNL     1       6.019   3.555  15.498  0.00  0.00    +0.000 C 
BRANCH  21  22
ATOM     22  C   UNL     1       6.306   4.809  14.657  0.00  0.00    +0.000 C 
BRANCH  22  23
ATOM     23  O   UNL     1       7.345   5.568  15.286  0.00  0.00    +0.000 OA
ATOM     24  H   UNL     1       8.135   5.003  15.355  0.00  0.00    +0.000 HD
ENDBRANCH  22  23
BRANCH  22  25
ATOM     25  C   UNL     1       6.726   4.507  13.199  0.00  0.00    +0.000 C 
BRANCH  25  27
ATOM     26  C   UNL     1       5.282   3.127  11.852  0.00  0.00    +0.000 C 
ATOM     27  N   UNL     1       6.414   3.140  12.774  0.00  0.00    +0.000 NA
ATOM     28  H   UNL     1       7.220   2.733  12.301  0.00  0.00    +0.000 HD
ENDBRANCH  25  27
ENDBRANCH  22  25
ENDBRANCH  21  22
ENDBRANCH  20  21
ENDBRANCH   1  20
TORSDOF 7
ENDMDL
MODEL 2
REMARK VINA RESULT:      -7.4      0.167      1.625
REMARK  Name = 
REMARK  8 active torsions:
REMARK  status: ('A' for Active; 'I' for Inactive)
REMARK    1  A    between atoms: C_1  and  N_2
REMARK    2  A    between atoms: N_2  and  C_3
REMARK    3  A    between atoms: C_3  and  C_4
REMARK    4  A    between atoms: C_4  and  O_5
REMARK    5  A    between atoms: C_4  and  C_6
REMARK    6  A    between atoms: C_6  and  C_7
REMARK    7  A    between atoms: C_7  and  N_8
REMARK    8  A    between atoms: N_15  and  C_16
REMARK                            x       y       z     vdW  Elec       q    Type
REMARK                         _______ _______ _______ _____ _____    ______ ____
ROOT
ATOM      1  N   UNL     1       4.845   4.489  17.364  0.00  0.00    +0.000 N 
ATOM      2  C   UNL     1       3.696   3.765  17.809  0.00  0.00    +0.000 A 
ATOM      3  C   UNL     1       3.450   2.414  17.626  0.00  0.00    +0.000 A 
ATOM      4  C   UNL     1       2.184   1.917  17.955  0.00  0.00    +0.000 A 
ATOM      5  C   UNL     1       1.180   2.770  18.438  0.00  0.00    +0.000 A 
ATOM      6  C   UNL     1       1.424   4.135  18.597  0.00  0.00    +0.000 A 
ATOM      7  C   UNL     1       2.690   4.622  18.300  0.00  0.00    +0.000 A 
ATOM      8  N   UNL     1       3.053   6.001  18.164  0.00  0.00    +0.000 N 
ATOM      9  S   UNL     1       4.751   6.057  17.997  0.00  0.00    +0.000 S 
ATOM     10  O   UNL     1       5.126   7.021  16.988  0.00  0.00    +0.000 OA
ATOM     11  O   UNL     1       5.367   6.058  19.307  0.00  0.00    +0.000 OA
ENDROOT
BRANCH   8  12
ATOM     12  C   UNL     1       2.397   7.046  18.880  0.00  0.00    +0.000 A 
ATOM     13  C   UNL     1       2.085   6.821  20.223  0.00  0.00    +0.000 A 
ATOM     14  F   UNL     1       2.415   5.658  20.805  0.00  0.00    +0.000 F 
ATOM     15  C   UNL     1       1.476   7.800  21.004  0.00  0.00    +0.000 A 
ATOM     16  C   UNL     1       1.144   9.030  20.436  0.00  0.00    +0.000 A 
ATOM     17  C   UNL     1       1.409   9.259  19.084  0.00  0.00    +0.000 A 
ATOM     18  C   UNL     1       2.023   8.267  18.314  0.00  0.00    +0.000 A 
ATOM     19  F   UNL     1       2.280   8.532  17.025  0.00  0.00    +0.000 F 
ENDBRANCH   8  12
BRANCH   1  20
ATOM     20  C   UNL     1       6.098   3.920  16.881  0.00  0.00    +0.000 C 
BRANCH  20  21
ATOM     21  C   UNL     1       6.059   3.530  15.403  0.00  0.00    +0.000 C 
BRANCH  21  22
ATOM     22  C   UNL     1       6.345   4.748  14.510  0.00  0.00    +0.000 C 
BRANCH  22  23
ATOM     23  O   UNL     1       7.336   5.568  15.139  0.00  0.00    +0.000 OA
ATOM     24  H   UNL     1       6.954   5.935  15.955  0.00  0.00    +0.000 HD
ENDBRANCH  22  23
BRANCH  22  25
ATOM     25  C   UNL     1       6.830   4.385  13.087  0.00  0.00    +0.000 C 
BRANCH  25  27
ATOM     26  C   UNL     1       5.077   3.271  11.867  0.00  0.00    +0.000 C 
ATOM     27  N   UNL     1       6.322   3.097  12.608  0.00  0.00    +0.000 NA
ATOM     28  H   UNL     1       7.007   2.664  11.991  0.00  0.00    +0.000 HD
ENDBRANCH  25  27
ENDBRANCH  22  25
ENDBRANCH  21  22
ENDBRANCH  20  21
ENDBRANCH   1  20
TORSDOF 7
ENDMDL
MODEL 3
REMARK VINA RESULT:      -7.3      1.484      2.105
REMARK  Name = 
REMARK  8 active torsions:
REMARK  status: ('A' for Active; 'I' for Inactive)
REMARK    1  A    between atoms: C_1  and  N_2
REMARK    2  A    between atoms: N_2  and  C_3
REMARK    3  A    between atoms: C_3  and  C_4
REMARK    4  A    between atoms: C_4  and  O_5
REMARK    5  A    between atoms: C_4  and  C_6
REMARK    6  A    between atoms: C_6  and  C_7
REMARK    7  A    between atoms: C_7  and  N_8
REMARK    8  A    between atoms: N_15  and  C_16
REMARK                            x       y       z     vdW  Elec       q    Type
REMARK                         _______ _______ _______ _____ _____    ______ ____
ROOT
ATOM      1  N   UNL     1       4.126   4.238  17.453  0.00  0.00    +0.000 N 
ATOM      2  C   UNL     1       3.023   3.596  18.096  0.00  0.00    +0.000 A 
ATOM      3  C   UNL     1       2.683   2.256  18.009  0.00  0.00    +0.000 A 
ATOM      4  C   UNL     1       1.458   1.844  18.546  0.00  0.00    +0.000 A 
ATOM      5  C   UNL     1       0.586   2.768  19.140  0.00  0.00    +0.000 A 
ATOM      6  C   UNL     1       0.921   4.122  19.204  0.00  0.00    +0.000 A 
ATOM      7  C   UNL     1       2.150   4.526  18.699  0.00  0.00    +0.000 A 
ATOM      8  N   UNL     1       2.558   5.876  18.451  0.00  0.00    +0.000 N 
ATOM      9  S   UNL     1       4.212   5.829  18.028  0.00  0.00    +0.000 S 
ATOM     10  O   UNL     1       4.476   6.736  16.934  0.00  0.00    +0.000 OA
ATOM     11  O   UNL     1       5.020   5.839  19.228  0.00  0.00    +0.000 OA
ENDROOT
BRANCH   8  12
ATOM     12  C   UNL     1       2.074   6.980  19.215  0.00  0.00    +0.000 A 
ATOM     13  C   UNL     1       1.800   8.171  18.538  0.00  0.00    +0.000 A 
ATOM     14  F   UNL     1       1.979   8.247  17.210  0.00  0.00    +0.000 F 
ATOM     15  C   UNL     1       1.293   9.286  19.200  0.00  0.00    +0.000 A 
ATOM     16  C   UNL     1       1.070   9.231  20.576  0.00  0.00    +0.000 A 
ATOM     17  C   UNL     1       1.378   8.064  21.277  0.00  0.00    +0.000 A 
ATOM     18  C   UNL     1       1.885   6.952  20.597  0.00  0.00    +0.000 A 
ATOM     19  F   UNL     1       2.148   5.842  21.303  0.00  0.00    +0.000 F 
ENDBRANCH   8  12
BRANCH   1  20
ATOM     20  C   UNL     1       5.259   3.583  16.810  0.00  0.00    +0.000 C 
BRANCH  20  21
ATOM     21  C   UNL     1       5.654   4.221  15.478  0.00  0.00    +0.000 C 
BRANCH  21  22
ATOM     22  C   UNL     1       7.134   4.634  15.489  0.00  0.00    +0.000 C 
BRANCH  22  23
ATOM     23  O   UNL     1       7.400   5.455  14.346  0.00  0.00    +0.000 OA
ATOM     24  H   UNL     1       7.987   6.180  14.622  0.00  0.00    +0.000 HD
ENDBRANCH  22  23
BRANCH  22  25
ATOM     25  C   UNL     1       7.565   5.401  16.761  0.00  0.00    +0.000 C 
BRANCH  25  27
ATOM     26  C   UNL     1       7.809   7.524  17.873  0.00  0.00    +0.000 C 
ATOM     27  N   UNL     1       7.531   6.857  16.604  0.00  0.00    +0.000 NA
ATOM     28  H   UNL     1       8.235   7.148  15.927  0.00  0.00    +0.000 HD
ENDBRANCH  25  27
ENDBRANCH  22  25
ENDBRANCH  21  22
ENDBRANCH  20  21
ENDBRANCH   1  20
TORSDOF 7
ENDMDL
MODEL 4
REMARK VINA RESULT:      -7.1      0.884      1.071
REMARK  Name = 
REMARK  8 active torsions:
REMARK  status: ('A' for Active; 'I' for Inactive)
REMARK    1  A    between atoms: C_1  and  N_2
REMARK    2  A    between atoms: N_2  and  C_3
REMARK    3  A    between atoms: C_3  and  C_4
REMARK    4  A    between atoms: C_4  and  O_5
REMARK    5  A    between atoms: C_4  and  C_6
REMARK    6  A    between atoms: C_6  and  C_7
REMARK    7  A    between atoms: C_7  and  N_8
REMARK    8  A    between atoms: N_15  and  C_16
REMARK                            x       y       z     vdW  Elec       q    Type
REMARK                         _______ _______ _______ _____ _____    ______ ____
ROOT
ATOM      1  N   UNL     1       4.751   4.452  17.495  0.00  0.00    +0.000 N 
ATOM      2  C   UNL     1       3.594   3.728  17.919  0.00  0.00    +0.000 A 
ATOM      3  C   UNL     1       3.335   2.385  17.701  0.00  0.00    +0.000 A 
ATOM      4  C   UNL     1       2.064   1.893  18.014  0.00  0.00    +0.000 A 
ATOM      5  C   UNL     1       1.067   2.743  18.517  0.00  0.00    +0.000 A 
ATOM      6  C   UNL     1       1.324   4.101  18.712  0.00  0.00    +0.000 A 
ATOM      7  C   UNL     1       2.595   4.583  18.430  0.00  0.00    +0.000 A 
ATOM      8  N   UNL     1       2.972   5.961  18.330  0.00  0.00    +0.000 N 
ATOM      9  S   UNL     1       4.671   6.005  18.169  0.00  0.00    +0.000 S 
ATOM     10  O   UNL     1       5.058   6.990  17.185  0.00  0.00    +0.000 OA
ATOM     11  O   UNL     1       5.283   5.967  19.479  0.00  0.00    +0.000 OA
ENDROOT
BRANCH   8  12
ATOM     12  C   UNL     1       2.324   6.994  19.071  0.00  0.00    +0.000 A 
ATOM     13  C   UNL     1       2.037   8.190  18.409  0.00  0.00    +0.000 A 
ATOM     14  F   UNL     1       2.355   8.336  17.113  0.00  0.00    +0.000 F 
ATOM     15  C   UNL     1       1.376   9.237  19.048  0.00  0.00    +0.000 A 
ATOM     16  C   UNL     1       1.008   9.107  20.387  0.00  0.00    +0.000 A 
ATOM     17  C   UNL     1       1.324   7.935  21.077  0.00  0.00    +0.000 A 
ATOM     18  C   UNL     1       1.986   6.893  20.422  0.00  0.00    +0.000 A 
ATOM     19  F   UNL     1       2.254   5.776  21.114  0.00  0.00    +0.000 F 
ENDBRANCH   8  12
BRANCH   1  20
ATOM     20  C   UNL     1       6.000   3.884  17.000  0.00  0.00    +0.000 C 
BRANCH  20  21
ATOM     21  C   UNL     1       6.032   3.719  15.481  0.00  0.00    +0.000 C 
BRANCH  21  22
ATOM     22  C   UNL     1       6.494   5.018  14.801  0.00  0.00    +0.000 C 
BRANCH  22  23
ATOM     23  O   UNL     1       7.380   5.717  15.681  0.00  0.00    +0.000 OA
ATOM     24  H   UNL     1       8.251   5.283  15.644  0.00  0.00    +0.000 HD
ENDBRANCH  22  23
BRANCH  22  25
ATOM     25  C   UNL     1       7.208   4.799  13.447  0.00  0.00    +0.000 C 
BRANCH  25  27
ATOM     26  C   UNL     1       8.269   6.227  11.822  0.00  0.00    +0.000 C 
ATOM     27  N   UNL     1       8.296   5.750  13.201  0.00  0.00    +0.000 NA
ATOM     28  H   UNL     1       8.200   6.553  13.821  0.00  0.00    +0.000 HD
ENDBRANCH  25  27
ENDBRANCH  22  25
ENDBRANCH  21  22
ENDBRANCH  20  21
ENDBRANCH   1  20
TORSDOF 7
ENDMDL
MODEL 5
REMARK VINA RESULT:      -7.0      1.495      2.665
REMARK  Name = 
REMARK  8 active torsions:
REMARK  status: ('A' for Active; 'I' for Inactive)
REMARK    1  A    between atoms: C_1  and  N_2
REMARK    2  A    between atoms: N_2  and  C_3
REMARK    3  A    between atoms: C_3  and  C_4
REMARK    4  A    between atoms: C_4  and  O_5
REMARK    5  A    between atoms: C_4  and  C_6
REMARK    6  A    between atoms: C_6  and  C_7
REMARK    7  A    between atoms: C_7  and  N_8
REMARK    8  A    between atoms: N_15  and  C_16
REMARK                            x       y       z     vdW  Elec       q    Type
REMARK                         _______ _______ _______ _____ _____    ______ ____
ROOT
ATOM      1  N   UNL     1       4.124   4.265  17.433  0.00  0.00    +0.000 N 
ATOM      2  C   UNL     1       3.024   3.628  18.087  0.00  0.00    +0.000 A 
ATOM      3  C   UNL     1       2.695   2.284  18.025  0.00  0.00    +0.000 A 
ATOM      4  C   UNL     1       1.472   1.873  18.567  0.00  0.00    +0.000 A 
ATOM      5  C   UNL     1       0.590   2.803  19.140  0.00  0.00    +0.000 A 
ATOM      6  C   UNL     1       0.915   4.160  19.178  0.00  0.00    +0.000 A 
ATOM      7  C   UNL     1       2.143   4.562  18.668  0.00  0.00    +0.000 A 
ATOM      8  N   UNL     1       2.542   5.911  18.395  0.00  0.00    +0.000 N 
ATOM      9  S   UNL     1       4.196   5.868  17.977  0.00  0.00    +0.000 S 
ATOM     10  O   UNL     1       4.457   6.755  16.866  0.00  0.00    +0.000 OA
ATOM     11  O   UNL     1       5.001   5.908  19.179  0.00  0.00    +0.000 OA
ENDROOT
BRANCH   8  12
ATOM     12  C   UNL     1       2.047   7.026  19.135  0.00  0.00    +0.000 A 
ATOM     13  C   UNL     1       1.872   6.870  20.512  0.00  0.00    +0.000 A 
ATOM     14  F   UNL     1       2.180   5.705  21.102  0.00  0.00    +0.000 F 
ATOM     15  C   UNL     1       1.427   7.919  21.313  0.00  0.00    +0.000 A 
ATOM     16  C   UNL     1       1.124   9.151  20.735  0.00  0.00    +0.000 A 
ATOM     17  C   UNL     1       1.253   9.314  19.354  0.00  0.00    +0.000 A 
ATOM     18  C   UNL     1       1.703   8.252  18.563  0.00  0.00    +0.000 A 
ATOM     19  F   UNL     1       1.833   8.455  17.244  0.00  0.00    +0.000 F 
ENDBRANCH   8  12
BRANCH   1  20
ATOM     20  C   UNL     1       5.265   3.605  16.807  0.00  0.00    +0.000 C 
BRANCH  20  21
ATOM     21  C   UNL     1       5.700   4.261  15.497  0.00  0.00    +0.000 C 
BRANCH  21  22
ATOM     22  C   UNL     1       7.186   4.651  15.549  0.00  0.00    +0.000 C 
BRANCH  22  23
ATOM     23  O   UNL     1       7.514   5.407  14.378  0.00  0.00    +0.000 OA
ATOM     24  H   UNL     1       6.687   5.751  13.997  0.00  0.00    +0.000 HD
ENDBRANCH  22  23
BRANCH  22  25
ATOM     25  C   UNL     1       7.577   5.476  16.798  0.00  0.00    +0.000 C 
BRANCH  25  27
ATOM     26  C   UNL     1       7.799   7.644  17.823  0.00  0.00    +0.000 C 
ATOM     27  N   UNL     1       7.492   6.923  16.591  0.00  0.00    +0.000 NA
ATOM     28  H   UNL     1       8.158   7.210  15.875  0.00  0.00    +0.000 HD
ENDBRANCH  25  27
ENDBRANCH  22  25
ENDBRANCH  21  22
ENDBRANCH  20  21
ENDBRANCH   1  20
TORSDOF 7
ENDMDL
MODEL 6
REMARK VINA RESULT:      -6.7      2.631      6.045
REMARK  Name = 
REMARK  8 active torsions:
REMARK  status: ('A' for Active; 'I' for Inactive)
REMARK    1  A    between atoms: C_1  and  N_2
REMARK    2  A    between atoms: N_2  and  C_3
REMARK    3  A    between atoms: C_3  and  C_4
REMARK    4  A    between atoms: C_4  and  O_5
REMARK    5  A    between atoms: C_4  and  C_6
REMARK    6  A    between atoms: C_6  and  C_7
REMARK    7  A    between atoms: C_7  and  N_8
REMARK    8  A    between atoms: N_15  and  C_16
REMARK                            x       y       z     vdW  Elec       q    Type
REMARK                         _______ _______ _______ _____ _____    ______ ____
ROOT
ATOM      1  N   UNL     1       3.274   4.935  20.050  0.00  0.00    +0.000 N 
ATOM      2  C   UNL     1       3.029   6.215  19.464  0.00  0.00    +0.000 A 
ATOM      3  C   UNL     1       2.122   7.165  19.904  0.00  0.00    +0.000 A 
ATOM      4  C   UNL     1       1.875   8.277  19.093  0.00  0.00    +0.000 A 
ATOM      5  C   UNL     1       2.515   8.418  17.851  0.00  0.00    +0.000 A 
ATOM      6  C   UNL     1       3.410   7.446  17.399  0.00  0.00    +0.000 A 
ATOM      7  C   UNL     1       3.678   6.358  18.220  0.00  0.00    +0.000 A 
ATOM      8  N   UNL     1       4.358   5.158  17.834  0.00  0.00    +0.000 N 
ATOM      9  S   UNL     1       4.598   4.241  19.254  0.00  0.00    +0.000 S 
ATOM     10  O   UNL     1       4.342   2.842  18.997  0.00  0.00    +0.000 OA
ATOM     11  O   UNL     1       5.809   4.677  19.914  0.00  0.00    +0.000 OA
ENDROOT
BRANCH   8  12
ATOM     12  C   UNL     1       5.363   5.133  16.820  0.00  0.00    +0.000 A 
ATOM     13  C   UNL     1       5.191   4.246  15.755  0.00  0.00    +0.000 A 
ATOM     14  F   UNL     1       4.103   3.463  15.698  0.00  0.00    +0.000 F 
ATOM     15  C   UNL     1       6.106   4.181  14.706  0.00  0.00    +0.000 A 
ATOM     16  C   UNL     1       7.234   5.001  14.721  0.00  0.00    +0.000 A 
ATOM     17  C   UNL     1       7.444   5.863  15.799  0.00  0.00    +0.000 A 
ATOM     18  C   UNL     1       6.516   5.918  16.843  0.00  0.00    +0.000 A 
ATOM     19  F   UNL     1       6.743   6.775  17.849  0.00  0.00    +0.000 F 
ENDBRANCH   8  12
BRANCH   1  20
ATOM     20  C   UNL     1       2.834   4.482  21.365  0.00  0.00    +0.000 C 
BRANCH  20  21
ATOM     21  C   UNL     1       2.485   2.995  21.410  0.00  0.00    +0.000 C 
BRANCH  21  22
ATOM     22  C   UNL     1       1.145   2.728  20.706  0.00  0.00    +0.000 C 
BRANCH  22  23
ATOM     23  O   UNL     1       0.417   3.956  20.603  0.00  0.00    +0.000 OA
ATOM     24  H   UNL     1       0.905   4.549  20.005  0.00  0.00    +0.000 HD
ENDBRANCH  22  23
BRANCH  22  25
ATOM     25  C   UNL     1       1.287   2.115  19.293  0.00  0.00    +0.000 C 
BRANCH  25  27
ATOM     26  C   UNL     1       1.311   3.679  17.461  0.00  0.00    +0.000 C 
ATOM     27  N   UNL     1       0.482   2.797  18.277  0.00  0.00    +0.000 NA
ATOM     28  H   UNL     1       0.042   2.110  17.665  0.00  0.00    +0.000 HD
ENDBRANCH  25  27
ENDBRANCH  22  25
ENDBRANCH  21  22
ENDBRANCH  20  21
ENDBRANCH   1  20
TORSDOF 7
ENDMDL
MODEL 7
REMARK VINA RESULT:      -6.7      3.060      7.178
REMARK  Name = 
REMARK  8 active torsions:
REMARK  status: ('A' for Active; 'I' for Inactive)
REMARK    1  A    between atoms: C_1  and  N_2
REMARK    2  A    between atoms: N_2  and  C_3
REMARK    3  A    between atoms: C_3  and  C_4
REMARK    4  A    between atoms: C_4  and  O_5
REMARK    5  A    between atoms: C_4  and  C_6
REMARK    6  A    between atoms: C_6  and  C_7
REMARK    7  A    between atoms: C_7  and  N_8
REMARK    8  A    between atoms: N_15  and  C_16
REMARK                            x       y       z     vdW  Elec       q    Type
REMARK                         _______ _______ _______ _____ _____    ______ ____
ROOT
ATOM      1  N   UNL     1       2.225   6.013  20.014  0.00  0.00    +0.000 N 
ATOM      2  C   UNL     1       2.578   4.661  20.313  0.00  0.00    +0.000 A 
ATOM      3  C   UNL     1       2.114   3.902  21.375  0.00  0.00    +0.000 A 
ATOM      4  C   UNL     1       2.718   2.665  21.623  0.00  0.00    +0.000 A 
ATOM      5  C   UNL     1       3.783   2.212  20.829  0.00  0.00    +0.000 A 
ATOM      6  C   UNL     1       4.264   2.990  19.775  0.00  0.00    +0.000 A 
ATOM      7  C   UNL     1       3.643   4.204  19.509  0.00  0.00    +0.000 A 
ATOM      8  N   UNL     1       4.141   5.236  18.650  0.00  0.00    +0.000 N 
ATOM      9  S   UNL     1       2.912   6.414  18.518  0.00  0.00    +0.000 S 
ATOM     10  O   UNL     1       3.480   7.741  18.576  0.00  0.00    +0.000 OA
ATOM     11  O   UNL     1       1.987   6.034  17.473  0.00  0.00    +0.000 OA
ENDROOT
BRANCH   8  12
ATOM     12  C   UNL     1       4.958   4.964  17.512  0.00  0.00    +0.000 A 
ATOM     13  C   UNL     1       6.192   5.613  17.425  0.00  0.00    +0.000 A 
ATOM     14  F   UNL     1       6.583   6.449  18.400  0.00  0.00    +0.000 F 
ATOM     15  C   UNL     1       7.066   5.379  16.366  0.00  0.00    +0.000 A 
ATOM     16  C   UNL     1       6.702   4.495  15.351  0.00  0.00    +0.000 A 
ATOM     17  C   UNL     1       5.455   3.869  15.399  0.00  0.00    +0.000 A 
ATOM     18  C   UNL     1       4.589   4.113  16.469  0.00  0.00    +0.000 A 
ATOM     19  F   UNL     1       3.409   3.476  16.489  0.00  0.00    +0.000 F 
ENDBRANCH   8  12
BRANCH   1  20
ATOM     20  C   UNL     1       1.117   6.770  20.587  0.00  0.00    +0.000 C 
BRANCH  20  21
ATOM     21  C   UNL     1       1.441   8.248  20.806  0.00  0.00    +0.000 C 
BRANCH  21  22
ATOM     22  C   UNL     1       0.988   8.705  22.202  0.00  0.00    +0.000 C 
BRANCH  22  23
ATOM     23  O   UNL     1       2.041   9.457  22.814  0.00  0.00    +0.000 OA
ATOM     24  H   UNL     1       1.761  10.388  22.863  0.00  0.00    +0.000 HD
ENDBRANCH  22  23
BRANCH  22  25
ATOM     25  C   UNL     1      -0.298   9.565  22.195  0.00  0.00    +0.000 C 
BRANCH  25  27
ATOM     26  C   UNL     1      -1.054  11.778  22.774  0.00  0.00    +0.000 C 
ATOM     27  N   UNL     1      -0.307  10.607  23.225  0.00  0.00    +0.000 NA
ATOM     28  H   UNL     1      -0.747  10.252  24.073  0.00  0.00    +0.000 HD
ENDBRANCH  25  27
ENDBRANCH  22  25
ENDBRANCH  21  22
ENDBRANCH  20  21
ENDBRANCH   1  20
TORSDOF 7
ENDMDL
MODEL 8
REMARK VINA RESULT:      -6.7      2.757      5.015
REMARK  Name = 
REMARK  8 active torsions:
REMARK  status: ('A' for Active; 'I' for Inactive)
REMARK    1  A    between atoms: C_1  and  N_2
REMARK    2  A    between atoms: N_2  and  C_3
REMARK    3  A    between atoms: C_3  and  C_4
REMARK    4  A    between atoms: C_4  and  O_5
REMARK    5  A    between atoms: C_4  and  C_6
REMARK    6  A    between atoms: C_6  and  C_7
REMARK    7  A    between atoms: C_7  and  N_8
REMARK    8  A    between atoms: N_15  and  C_16
REMARK                            x       y       z     vdW  Elec       q    Type
REMARK                         _______ _______ _______ _____ _____    ______ ____
ROOT
ATOM      1  N   UNL     1       3.456   3.740  17.921  0.00  0.00    +0.000 N 
ATOM      2  C   UNL     1       4.445   4.667  17.470  0.00  0.00    +0.000 A 
ATOM      3  C   UNL     1       5.648   4.357  16.858  0.00  0.00    +0.000 A 
ATOM      4  C   UNL     1       6.580   5.383  16.664  0.00  0.00    +0.000 A 
ATOM      5  C   UNL     1       6.312   6.690  17.098  0.00  0.00    +0.000 A 
ATOM      6  C   UNL     1       5.107   6.994  17.736  0.00  0.00    +0.000 A 
ATOM      7  C   UNL     1       4.170   5.982  17.900  0.00  0.00    +0.000 A 
ATOM      8  N   UNL     1       3.008   6.036  18.735  0.00  0.00    +0.000 N 
ATOM      9  S   UNL     1       2.100   4.625  18.422  0.00  0.00    +0.000 S 
ATOM     10  O   UNL     1       1.581   4.077  19.654  0.00  0.00    +0.000 OA
ATOM     11  O   UNL     1       1.247   4.843  17.274  0.00  0.00    +0.000 OA
ENDROOT
BRANCH   8  12
ATOM     12  C   UNL     1       2.315   7.252  19.015  0.00  0.00    +0.000 A 
ATOM     13  C   UNL     1       1.817   7.437  20.307  0.00  0.00    +0.000 A 
ATOM     14  F   UNL     1       2.009   6.495  21.244  0.00  0.00    +0.000 F 
ATOM     15  C   UNL     1       1.159   8.608  20.674  0.00  0.00    +0.000 A 
ATOM     16  C   UNL     1       0.967   9.618  19.731  0.00  0.00    +0.000 A 
ATOM     17  C   UNL     1       1.420   9.434  18.423  0.00  0.00    +0.000 A 
ATOM     18  C   UNL     1       2.081   8.253  18.071  0.00  0.00    +0.000 A 
ATOM     19  F   UNL     1       2.519   8.123  16.810  0.00  0.00    +0.000 F 
ENDBRANCH   8  12
BRANCH   1  20
ATOM     20  C   UNL     1       3.378   2.321  17.589  0.00  0.00    +0.000 C 
BRANCH  20  21
ATOM     21  C   UNL     1       3.328   1.413  18.817  0.00  0.00    +0.000 C 
BRANCH  21  22
ATOM     22  C   UNL     1       4.324   1.889  19.887  0.00  0.00    +0.000 C 
BRANCH  22  23
ATOM     23  O   UNL     1       3.600   2.481  20.971  0.00  0.00    +0.000 OA
ATOM     24  H   UNL     1       3.949   2.120  21.804  0.00  0.00    +0.000 HD
ENDBRANCH  22  23
BRANCH  22  25
ATOM     25  C   UNL     1       5.228   0.766  20.449  0.00  0.00    +0.000 C 
BRANCH  25  27
ATOM     26  C   UNL     1       6.452  -0.117  22.327  0.00  0.00    +0.000 C 
ATOM     27  N   UNL     1       5.690   1.019  21.816  0.00  0.00    +0.000 NA
ATOM     28  H   UNL     1       6.291   1.843  21.831  0.00  0.00    +0.000 HD
ENDBRANCH  25  27
ENDBRANCH  22  25
ENDBRANCH  21  22
ENDBRANCH  20  21
ENDBRANCH   1  20
TORSDOF 7
ENDMDL
MODEL 9
REMARK VINA RESULT:      -6.7      1.957      4.010
REMARK  Name = 
REMARK  8 active torsions:
REMARK  status: ('A' for Active; 'I' for Inactive)
REMARK    1  A    between atoms: C_1  and  N_2
REMARK    2  A    between atoms: N_2  and  C_3
REMARK    3  A    between atoms: C_3  and  C_4
REMARK    4  A    between atoms: C_4  and  O_5
REMARK    5  A    between atoms: C_4  and  C_6
REMARK    6  A    between atoms: C_6  and  C_7
REMARK    7  A    between atoms: C_7  and  N_8
REMARK    8  A    between atoms: N_15  and  C_16
REMARK                            x       y       z     vdW  Elec       q    Type
REMARK                         _______ _______ _______ _____ _____    ______ ____
ROOT
ATOM      1  N   UNL     1       5.528   5.709  17.879  0.00  0.00    +0.000 N 
ATOM      2  C   UNL     1       4.414   6.587  17.706  0.00  0.00    +0.000 A 
ATOM      3  C   UNL     1       4.450   7.878  17.207  0.00  0.00    +0.000 A 
ATOM      4  C   UNL     1       3.292   8.659  17.294  0.00  0.00    +0.000 A 
ATOM      5  C   UNL     1       2.127   8.153  17.892  0.00  0.00    +0.000 A 
ATOM      6  C   UNL     1       2.102   6.859  18.415  0.00  0.00    +0.000 A 
ATOM      7  C   UNL     1       3.242   6.074  18.300  0.00  0.00    +0.000 A 
ATOM      8  N   UNL     1       3.488   4.839  18.982  0.00  0.00    +0.000 N 
ATOM      9  S   UNL     1       4.931   4.192  18.340  0.00  0.00    +0.000 S 
ATOM     10  O   UNL     1       5.749   3.640  19.397  0.00  0.00    +0.000 OA
ATOM     11  O   UNL     1       4.633   3.435  17.144  0.00  0.00    +0.000 OA
ENDROOT
BRANCH   8  12
ATOM     12  C   UNL     1       2.442   3.945  19.361  0.00  0.00    +0.000 A 
ATOM     13  C   UNL     1       2.218   3.744  20.726  0.00  0.00    +0.000 A 
ATOM     14  F   UNL     1       2.965   4.392  21.633  0.00  0.00    +0.000 F 
ATOM     15  C   UNL     1       1.196   2.915  21.182  0.00  0.00    +0.000 A 
ATOM     16  C   UNL     1       0.385   2.249  20.265  0.00  0.00    +0.000 A 
ATOM     17  C   UNL     1       0.619   2.404  18.897  0.00  0.00    +0.000 A 
ATOM     18  C   UNL     1       1.648   3.241  18.455  0.00  0.00    +0.000 A 
ATOM     19  F   UNL     1       1.829   3.381  17.133  0.00  0.00    +0.000 F 
ENDBRANCH   8  12
BRANCH   1  20
ATOM     20  C   UNL     1       6.865   5.880  17.321  0.00  0.00    +0.000 C 
BRANCH  20  21
ATOM     21  C   UNL     1       7.249   4.791  16.320  0.00  0.00    +0.000 C 
BRANCH  21  22
ATOM     22  C   UNL     1       6.727   5.134  14.915  0.00  0.00    +0.000 C 
BRANCH  22  23
ATOM     23  O   UNL     1       7.834   5.477  14.075  0.00  0.00    +0.000 OA
ATOM     24  H   UNL     1       7.598   5.259  13.156  0.00  0.00    +0.000 HD
ENDBRANCH  22  23
BRANCH  22  25
ATOM     25  C   UNL     1       5.930   3.991  14.244  0.00  0.00    +0.000 C 
BRANCH  25  27
ATOM     26  C   UNL     1       5.522   3.156  12.021  0.00  0.00    +0.000 C 
ATOM     27  N   UNL     1       6.543   3.501  13.007  0.00  0.00    +0.000 NA
ATOM     28  H   UNL     1       7.144   4.221  12.609  0.00  0.00    +0.000 HD
ENDBRANCH  25  27
ENDBRANCH  22  25
ENDBRANCH  21  22
ENDBRANCH  20  21
ENDBRANCH   1  20
TORSDOF 7
ENDMDL
