MODEL 1
REMARK VINA RESULT:      -7.6      0.000      0.000
REMARK  Name = 
REMARK  6 active torsions:
REMARK  status: ('A' for Active; 'I' for Inactive)
REMARK    1  A    between atoms: C_1  and  O_2
REMARK    2  A    between atoms: O_2  and  C_3
REMARK    3  A    between atoms: C_8  and  N_9
REMARK    4  A    between atoms: N_9  and  S_10
REMARK    5  A    between atoms: S_10  and  C_13
REMARK    6  A    between atoms: C_18  and  C_19
REMARK                            x       y       z     vdW  Elec       q    Type
REMARK                         _______ _______ _______ _____ _____    ______ ____
ROOT
ATOM      1  S   UNL     1       6.131   6.606  16.376  0.00  0.00    +0.000 S 
ATOM      2  O   UNL     1       6.903   7.640  17.039  0.00  0.00    +0.000 OA
ATOM      3  O   UNL     1       5.195   6.961  15.332  0.00  0.00    +0.000 OA
ENDROOT
BRANCH   1   4
ATOM      4  C   UNL     1       5.174   5.755  17.644  0.00  0.00    +0.000 A 
ATOM      5  C   UNL     1       3.822   5.444  17.369  0.00  0.00    +0.000 A 
ATOM      6  C   UNL     1       3.170   4.492  18.149  0.00  0.00    +0.000 A 
ATOM      7  C   UNL     1       3.896   3.788  19.108  0.00  0.00    +0.000 A 
ATOM      8  C   UNL     1       5.193   4.143  19.442  0.00  0.00    +0.000 A 
ATOM      9  C   UNL     1       5.833   5.175  18.755  0.00  0.00    +0.000 A 
ATOM     10  C   UNL     1       7.212   5.550  19.213  0.00  0.00    +0.000 C 
ATOM     11  N   UNL     1       3.315   2.670  19.743  0.00  0.00    +0.000 N 
ATOM     12  C   UNL     1       1.999   2.880  20.101  0.00  0.00    +0.000 C 
ATOM     13  O   UNL     1       1.531   2.471  21.157  0.00  0.00    +0.000 OA
ATOM     14  C   UNL     1       1.185   3.636  19.040  0.00  0.00    +0.000 C 
ATOM     15  O   UNL     1       1.855   4.197  17.904  0.00  0.00    +0.000 OA
ATOM     16  H   UNL     1       3.277   1.947  19.025  0.00  0.00    +0.000 HD
ENDBRANCH   1   4
BRANCH   1  17
ATOM     17  N   UNL     1       7.176   5.461  15.718  0.00  0.00    +0.000 N 
ATOM     18  H   UNL     1       8.163   5.689  15.820  0.00  0.00    +0.000 HD
BRANCH  17  24
ATOM     19  C   UNL     1       7.504   4.987  13.328  0.00  0.00    +0.000 A 
ATOM     20  C   UNL     1       7.085   4.300  12.185  0.00  0.00    +0.000 A 
ATOM     21  C   UNL     1       6.004   3.413  12.248  0.00  0.00    +0.000 A 
ATOM     22  C   UNL     1       5.343   3.189  13.453  0.00  0.00    +0.000 A 
ATOM     23  C   UNL     1       5.740   3.880  14.593  0.00  0.00    +0.000 A 
ATOM     24  C   UNL     1       6.805   4.782  14.528  0.00  0.00    +0.000 A 
BRANCH  19  26
ATOM     25  C   UNL     1       8.904   6.485  12.132  0.00  0.00    +0.000 C 
ATOM     26  O   UNL     1       8.566   5.856  13.367  0.00  0.00    +0.000 OA
ENDBRANCH  19  26
ENDBRANCH  17  24
ENDBRANCH   1  17
TORSDOF 4
ENDMDL
MODEL 2
REMARK VINA RESULT:      -7.5      1.315      1.826
REMARK  Name = 
REMARK  6 active torsions:
REMARK  status: ('A' for Active; 'I' for Inactive)
REMARK    1  A    between atoms: C_1  and  O_2
REMARK    2  A    between atoms: O_2  and  C_3
REMARK    3  A    between atoms: C_8  and  N_9
REMARK    4  A    between atoms: N_9  and  S_10
REMARK    5  A    between atoms: S_10  and  C_13
REMARK    6  A    between atoms: C_18  and  C_19
REMARK                            x       y       z     vdW  Elec       q    Type
REMARK                         _______ _______ _______ _____ _____    ______ ____
ROOT
ATOM      1  S   UNL     1       5.889   6.580  16.394  0.00  0.00    +0.000 S 
ATOM      2  O   UNL     1       6.653   7.543  17.165  0.00  0.00    +0.000 OA
ATOM      3  O   UNL     1       5.128   7.017  15.244  0.00  0.00    +0.000 OA
ENDROOT
BRANCH   1   4
ATOM      4  C   UNL     1       4.709   5.809  17.516  0.00  0.00    +0.000 A 
ATOM      5  C   UNL     1       5.035   4.549  18.072  0.00  0.00    +0.000 A 
ATOM      6  C   UNL     1       4.343   4.100  19.193  0.00  0.00    +0.000 A 
ATOM      7  C   UNL     1       3.423   4.949  19.808  0.00  0.00    +0.000 A 
ATOM      8  C   UNL     1       3.035   6.144  19.225  0.00  0.00    +0.000 A 
ATOM      9  C   UNL     1       3.630   6.565  18.034  0.00  0.00    +0.000 A 
ATOM     10  C   UNL     1       3.116   7.836  17.426  0.00  0.00    +0.000 C 
ATOM     11  N   UNL     1       2.885   4.603  21.065  0.00  0.00    +0.000 N 
ATOM     12  C   UNL     1       2.542   3.269  21.154  0.00  0.00    +0.000 C 
ATOM     13  O   UNL     1       1.529   2.888  21.730  0.00  0.00    +0.000 OA
ATOM     14  C   UNL     1       3.560   2.325  20.499  0.00  0.00    +0.000 C 
ATOM     15  O   UNL     1       4.637   2.874  19.728  0.00  0.00    +0.000 OA
ATOM     16  H   UNL     1       3.656   4.717  21.724  0.00  0.00    +0.000 HD
ENDBRANCH   1   4
BRANCH   1  17
ATOM     17  N   UNL     1       6.911   5.353  15.858  0.00  0.00    +0.000 N 
ATOM     18  H   UNL     1       7.883   5.470  16.135  0.00  0.00    +0.000 HD
BRANCH  17  24
ATOM     19  C   UNL     1       7.530   5.026  13.501  0.00  0.00    +0.000 A 
ATOM     20  C   UNL     1       7.248   4.424  12.272  0.00  0.00    +0.000 A 
ATOM     21  C   UNL     1       6.154   3.561  12.140  0.00  0.00    +0.000 A 
ATOM     22  C   UNL     1       5.342   3.277  13.236  0.00  0.00    +0.000 A 
ATOM     23  C   UNL     1       5.603   3.883  14.459  0.00  0.00    +0.000 A 
ATOM     24  C   UNL     1       6.682   4.761  14.589  0.00  0.00    +0.000 A 
BRANCH  19  26
ATOM     25  C   UNL     1       9.348   6.244  12.582  0.00  0.00    +0.000 C 
ATOM     26  O   UNL     1       8.592   5.865  13.731  0.00  0.00    +0.000 OA
ENDBRANCH  19  26
ENDBRANCH  17  24
ENDBRANCH   1  17
TORSDOF 4
ENDMDL
MODEL 3
REMARK VINA RESULT:      -7.4      3.821      7.545
REMARK  Name = 
REMARK  6 active torsions:
REMARK  status: ('A' for Active; 'I' for Inactive)
REMARK    1  A    between atoms: C_1  and  O_2
REMARK    2  A    between atoms: O_2  and  C_3
REMARK    3  A    between atoms: C_8  and  N_9
REMARK    4  A    between atoms: N_9  and  S_10
REMARK    5  A    between atoms: S_10  and  C_13
REMARK    6  A    between atoms: C_18  and  C_19
REMARK                            x       y       z     vdW  Elec       q    Type
REMARK                         _______ _______ _______ _____ _____    ______ ____
ROOT
ATOM      1  S   UNL     1       2.059   5.458  20.243  0.00  0.00    +0.000 S 
ATOM      2  O   UNL     1       2.590   4.634  21.314  0.00  0.00    +0.000 OA
ATOM      3  O   UNL     1       0.637   5.467  19.978  0.00  0.00    +0.000 OA
ENDROOT
BRANCH   1   4
ATOM      4  C   UNL     1       2.854   4.931  18.715  0.00  0.00    +0.000 A 
ATOM      5  C   UNL     1       3.873   5.748  18.171  0.00  0.00    +0.000 A 
ATOM      6  C   UNL     1       4.740   5.214  17.223  0.00  0.00    +0.000 A 
ATOM      7  C   UNL     1       4.656   3.858  16.913  0.00  0.00    +0.000 A 
ATOM      8  C   UNL     1       3.613   3.072  17.373  0.00  0.00    +0.000 A 
ATOM      9  C   UNL     1       2.658   3.614  18.235  0.00  0.00    +0.000 A 
ATOM     10  C   UNL     1       1.520   2.724  18.641  0.00  0.00    +0.000 C 
ATOM     11  N   UNL     1       5.665   3.255  16.133  0.00  0.00    +0.000 N 
ATOM     12  C   UNL     1       6.056   4.035  15.064  0.00  0.00    +0.000 C 
ATOM     13  O   UNL     1       6.309   3.562  13.962  0.00  0.00    +0.000 OA
ATOM     14  C   UNL     1       6.173   5.529  15.401  0.00  0.00    +0.000 C 
ATOM     15  O   UNL     1       5.718   6.002  16.675  0.00  0.00    +0.000 OA
ATOM     16  H   UNL     1       6.484   3.218  16.741  0.00  0.00    +0.000 HD
ENDBRANCH   1   4
BRANCH   1  17
ATOM     17  N   UNL     1       2.513   7.061  20.491  0.00  0.00    +0.000 N 
ATOM     18  H   UNL     1       2.926   7.241  21.404  0.00  0.00    +0.000 HD
BRANCH  17  24
ATOM     19  C   UNL     1       0.832   8.837  20.734  0.00  0.00    +0.000 A 
ATOM     20  C   UNL     1       0.071   9.843  20.131  0.00  0.00    +0.000 A 
ATOM     21  C   UNL     1       0.216  10.119  18.766  0.00  0.00    +0.000 A 
ATOM     22  C   UNL     1       1.132   9.408  17.994  0.00  0.00    +0.000 A 
ATOM     23  C   UNL     1       1.882   8.393  18.580  0.00  0.00    +0.000 A 
ATOM     24  C   UNL     1       1.725   8.102  19.937  0.00  0.00    +0.000 A 
BRANCH  19  26
ATOM     25  C   UNL     1       0.140   9.468  22.914  0.00  0.00    +0.000 C 
ATOM     26  O   UNL     1       0.775   8.513  22.066  0.00  0.00    +0.000 OA
ENDBRANCH  19  26
ENDBRANCH  17  24
ENDBRANCH   1  17
TORSDOF 4
ENDMDL
MODEL 4
REMARK VINA RESULT:      -7.4      3.804      7.668
REMARK  Name = 
REMARK  6 active torsions:
REMARK  status: ('A' for Active; 'I' for Inactive)
REMARK    1  A    between atoms: C_1  and  O_2
REMARK    2  A    between atoms: O_2  and  C_3
REMARK    3  A    between atoms: C_8  and  N_9
REMARK    4  A    between atoms: N_9  and  S_10
REMARK    5  A    between atoms: S_10  and  C_13
REMARK    6  A    between atoms: C_18  and  C_19
REMARK                            x       y       z     vdW  Elec       q    Type
REMARK                         _______ _______ _______ _____ _____    ______ ____
ROOT
ATOM      1  S   UNL     1       1.948   5.192  20.605  0.00  0.00    +0.000 S 
ATOM      2  O   UNL     1       2.441   4.280  21.620  0.00  0.00    +0.000 OA
ATOM      3  O   UNL     1       0.632   4.999  20.037  0.00  0.00    +0.000 OA
ENDROOT
BRANCH   1   4
ATOM      4  C   UNL     1       3.105   5.136  19.225  0.00  0.00    +0.000 A 
ATOM      5  C   UNL     1       4.448   5.516  19.458  0.00  0.00    +0.000 A 
ATOM      6  C   UNL     1       5.428   5.149  18.540  0.00  0.00    +0.000 A 
ATOM      7  C   UNL     1       5.084   4.321  17.473  0.00  0.00    +0.000 A 
ATOM      8  C   UNL     1       3.763   4.015  17.189  0.00  0.00    +0.000 A 
ATOM      9  C   UNL     1       2.744   4.470  18.029  0.00  0.00    +0.000 A 
ATOM     10  C   UNL     1       1.334   4.157  17.624  0.00  0.00    +0.000 C 
ATOM     11  N   UNL     1       6.097   3.757  16.670  0.00  0.00    +0.000 N 
ATOM     12  C   UNL     1       7.101   4.653  16.363  0.00  0.00    +0.000 C 
ATOM     13  O   UNL     1       7.631   4.694  15.259  0.00  0.00    +0.000 OA
ATOM     14  C   UNL     1       7.503   5.554  17.540  0.00  0.00    +0.000 C 
ATOM     15  O   UNL     1       6.729   5.528  18.746  0.00  0.00    +0.000 OA
ATOM     16  H   UNL     1       6.545   3.057  17.262  0.00  0.00    +0.000 HD
ENDBRANCH   1   4
BRANCH   1  17
ATOM     17  N   UNL     1       1.990   6.767  21.199  0.00  0.00    +0.000 N 
ATOM     18  H   UNL     1       1.789   6.843  22.194  0.00  0.00    +0.000 HD
BRANCH  17  24
ATOM     19  C   UNL     1       0.604   8.768  20.857  0.00  0.00    +0.000 A 
ATOM     20  C   UNL     1       0.184   9.790  20.000  0.00  0.00    +0.000 A 
ATOM     21  C   UNL     1       0.702   9.884  18.703  0.00  0.00    +0.000 A 
ATOM     22  C   UNL     1       1.656   8.973  18.255  0.00  0.00    +0.000 A 
ATOM     23  C   UNL     1       2.068   7.943  19.092  0.00  0.00    +0.000 A 
ATOM     24  C   UNL     1       1.537   7.834  20.380  0.00  0.00    +0.000 A 
BRANCH  19  26
ATOM     25  C   UNL     1      -0.458   9.747  22.740  0.00  0.00    +0.000 C 
ATOM     26  O   UNL     1       0.170   8.611  22.149  0.00  0.00    +0.000 OA
ENDBRANCH  19  26
ENDBRANCH  17  24
ENDBRANCH   1  17
TORSDOF 4
ENDMDL
MODEL 5
REMARK VINA RESULT:      -7.1      1.247      2.080
REMARK  Name = 
REMARK  6 active torsions:
REMARK  status: ('A' for Active; 'I' for Inactive)
REMARK    1  A    between atoms: C_1  and  O_2
REMARK    2  A    between atoms: O_2  and  C_3
REMARK    3  A    between atoms: C_8  and  N_9
REMARK    4  A    between atoms: N_9  and  S_10
REMARK    5  A    between atoms: S_10  and  C_13
REMARK    6  A    between atoms: C_18  and  C_19
REMARK                            x       y       z     vdW  Elec       q    Type
REMARK                         _______ _______ _______ _____ _____    ______ ____
ROOT
ATOM      1  S   UNL     1       6.407   6.865  16.492  0.00  0.00    +0.000 S 
ATOM      2  O   UNL     1       7.163   8.004  16.980  0.00  0.00    +0.000 OA
ATOM      3  O   UNL     1       5.391   7.052  15.481  0.00  0.00    +0.000 OA
ENDROOT
BRANCH   1   4
ATOM      4  C   UNL     1       5.578   6.123  17.909  0.00  0.00    +0.000 A 
ATOM      5  C   UNL     1       4.166   6.181  17.968  0.00  0.00    +0.000 A 
ATOM      6  C   UNL     1       3.485   5.328  18.832  0.00  0.00    +0.000 A 
ATOM      7  C   UNL     1       4.201   4.360  19.535  0.00  0.00    +0.000 A 
ATOM      8  C   UNL     1       5.586   4.351  19.551  0.00  0.00    +0.000 A 
ATOM      9  C   UNL     1       6.299   5.274  18.784  0.00  0.00    +0.000 A 
ATOM     10  C   UNL     1       7.795   5.249  18.900  0.00  0.00    +0.000 C 
ATOM     11  N   UNL     1       3.510   3.348  20.232  0.00  0.00    +0.000 N 
ATOM     12  C   UNL     1       2.413   3.823  20.922  0.00  0.00    +0.000 C 
ATOM     13  O   UNL     1       2.109   3.415  22.037  0.00  0.00    +0.000 OA
ATOM     14  C   UNL     1       1.604   4.873  20.145  0.00  0.00    +0.000 C 
ATOM     15  O   UNL     1       2.119   5.389  18.911  0.00  0.00    +0.000 OA
ATOM     16  H   UNL     1       3.120   2.745  19.507  0.00  0.00    +0.000 HD
ENDBRANCH   1   4
BRANCH   1  17
ATOM     17  N   UNL     1       7.470   5.701  15.898  0.00  0.00    +0.000 N 
ATOM     18  H   UNL     1       8.452   5.905  16.071  0.00  0.00    +0.000 HD
BRANCH  17  24
ATOM     19  C   UNL     1       6.308   3.929  14.651  0.00  0.00    +0.000 A 
ATOM     20  C   UNL     1       6.057   3.309  13.424  0.00  0.00    +0.000 A 
ATOM     21  C   UNL     1       6.639   3.801  12.250  0.00  0.00    +0.000 A 
ATOM     22  C   UNL     1       7.461   4.926  12.286  0.00  0.00    +0.000 A 
ATOM     23  C   UNL     1       7.731   5.540  13.503  0.00  0.00    +0.000 A 
ATOM     24  C   UNL     1       7.168   5.039  14.680  0.00  0.00    +0.000 A 
BRANCH  19  26
ATOM     25  C   UNL     1       4.344   3.414  15.879  0.00  0.00    +0.000 C 
ATOM     26  O   UNL     1       5.765   3.532  15.848  0.00  0.00    +0.000 OA
ENDBRANCH  19  26
ENDBRANCH  17  24
ENDBRANCH   1  17
TORSDOF 4
ENDMDL
MODEL 6
REMARK VINA RESULT:      -7.1      1.016      1.153
REMARK  Name = 
REMARK  6 active torsions:
REMARK  status: ('A' for Active; 'I' for Inactive)
REMARK    1  A    between atoms: C_1  and  O_2
REMARK    2  A    between atoms: O_2  and  C_3
REMARK    3  A    between atoms: C_8  and  N_9
REMARK    4  A    between atoms: N_9  and  S_10
REMARK    5  A    between atoms: S_10  and  C_13
REMARK    6  A    between atoms: C_18  and  C_19
REMARK                            x       y       z     vdW  Elec       q    Type
REMARK                         _______ _______ _______ _____ _____    ______ ____
ROOT
ATOM      1  S   UNL     1       6.736   5.481  16.361  0.00  0.00    +0.000 S 
ATOM      2  O   UNL     1       7.638   4.352  16.225  0.00  0.00    +0.000 OA
ATOM      3  O   UNL     1       7.242   6.761  16.805  0.00  0.00    +0.000 OA
ENDROOT
BRANCH   1   4
ATOM      4  C   UNL     1       5.457   5.007  17.537  0.00  0.00    +0.000 A 
ATOM      5  C   UNL     1       4.222   4.534  17.034  0.00  0.00    +0.000 A 
ATOM      6  C   UNL     1       3.366   3.833  17.878  0.00  0.00    +0.000 A 
ATOM      7  C   UNL     1       3.793   3.517  19.167  0.00  0.00    +0.000 A 
ATOM      8  C   UNL     1       4.958   4.047  19.697  0.00  0.00    +0.000 A 
ATOM      9  C   UNL     1       5.780   4.853  18.907  0.00  0.00    +0.000 A 
ATOM     10  C   UNL     1       6.991   5.445  19.564  0.00  0.00    +0.000 C 
ATOM     11  N   UNL     1       3.040   2.618  19.952  0.00  0.00    +0.000 N 
ATOM     12  C   UNL     1       1.680   2.839  19.867  0.00  0.00    +0.000 C 
ATOM     13  O   UNL     1       0.937   2.751  20.837  0.00  0.00    +0.000 OA
ATOM     14  C   UNL     1       1.197   3.166  18.446  0.00  0.00    +0.000 C 
ATOM     15  O   UNL     1       2.160   3.387  17.407  0.00  0.00    +0.000 OA
ATOM     16  H   UNL     1       3.183   1.705  19.521  0.00  0.00    +0.000 HD
ENDBRANCH   1   4
BRANCH   1  17
ATOM     17  N   UNL     1       5.957   5.755  14.892  0.00  0.00    +0.000 N 
ATOM     18  H   UNL     1       5.027   6.159  14.982  0.00  0.00    +0.000 HD
BRANCH  17  24
ATOM     19  C   UNL     1       7.325   4.858  13.057  0.00  0.00    +0.000 A 
ATOM     20  C   UNL     1       7.452   3.945  12.007  0.00  0.00    +0.000 A 
ATOM     21  C   UNL     1       6.430   3.025  11.741  0.00  0.00    +0.000 A 
ATOM     22  C   UNL     1       5.283   2.995  12.530  0.00  0.00    +0.000 A 
ATOM     23  C   UNL     1       5.139   3.910  13.567  0.00  0.00    +0.000 A 
ATOM     24  C   UNL     1       6.147   4.843  13.822  0.00  0.00    +0.000 A 
BRANCH  19  26
ATOM     25  C   UNL     1       9.021   6.350  12.329  0.00  0.00    +0.000 C 
ATOM     26  O   UNL     1       8.282   5.779  13.406  0.00  0.00    +0.000 OA
ENDBRANCH  19  26
ENDBRANCH  17  24
ENDBRANCH   1  17
TORSDOF 4
ENDMDL
MODEL 7
REMARK VINA RESULT:      -7.1      3.868      7.470
REMARK  Name = 
REMARK  6 active torsions:
REMARK  status: ('A' for Active; 'I' for Inactive)
REMARK    1  A    between atoms: C_1  and  O_2
REMARK    2  A    between atoms: O_2  and  C_3
REMARK    3  A    between atoms: C_8  and  N_9
REMARK    4  A    between atoms: N_9  and  S_10
REMARK    5  A    between atoms: S_10  and  C_13
REMARK    6  A    between atoms: C_18  and  C_19
REMARK                            x       y       z     vdW  Elec       q    Type
REMARK                         _______ _______ _______ _____ _____    ______ ____
ROOT
ATOM      1  S   UNL     1       1.967   5.551  20.331  0.00  0.00    +0.000 S 
ATOM      2  O   UNL     1       2.513   4.767  21.423  0.00  0.00    +0.000 OA
ATOM      3  O   UNL     1       0.542   5.552  20.084  0.00  0.00    +0.000 OA
ENDROOT
BRANCH   1   4
ATOM      4  C   UNL     1       2.741   4.968  18.812  0.00  0.00    +0.000 A 
ATOM      5  C   UNL     1       3.555   5.868  18.084  0.00  0.00    +0.000 A 
ATOM      6  C   UNL     1       4.440   5.368  17.133  0.00  0.00    +0.000 A 
ATOM      7  C   UNL     1       4.584   3.988  16.998  0.00  0.00    +0.000 A 
ATOM      8  C   UNL     1       3.733   3.103  17.641  0.00  0.00    +0.000 A 
ATOM      9  C   UNL     1       2.756   3.584  18.514  0.00  0.00    +0.000 A 
ATOM     10  C   UNL     1       1.829   2.575  19.124  0.00  0.00    +0.000 C 
ATOM     11  N   UNL     1       5.631   3.467  16.209  0.00  0.00    +0.000 N 
ATOM     12  C   UNL     1       5.801   4.152  15.022  0.00  0.00    +0.000 C 
ATOM     13  O   UNL     1       6.062   3.585  13.967  0.00  0.00    +0.000 OA
ATOM     14  C   UNL     1       5.667   5.676  15.165  0.00  0.00    +0.000 C 
ATOM     15  O   UNL     1       5.219   6.231  16.409  0.00  0.00    +0.000 OA
ATOM     16  H   UNL     1       6.482   3.654  16.740  0.00  0.00    +0.000 HD
ENDBRANCH   1   4
BRANCH   1  17
ATOM     17  N   UNL     1       2.426   7.162  20.513  0.00  0.00    +0.000 N 
ATOM     18  H   UNL     1       3.303   7.292  21.013  0.00  0.00    +0.000 HD
BRANCH  17  24
ATOM     19  C   UNL     1       0.997   8.974  19.665  0.00  0.00    +0.000 A 
ATOM     20  C   UNL     1       0.022   9.940  19.930  0.00  0.00    +0.000 A 
ATOM     21  C   UNL     1      -0.521  10.065  21.214  0.00  0.00    +0.000 A 
ATOM     22  C   UNL     1      -0.111   9.218  22.240  0.00  0.00    +0.000 A 
ATOM     23  C   UNL     1       0.871   8.265  21.993  0.00  0.00    +0.000 A 
ATOM     24  C   UNL     1       1.430   8.151  20.718  0.00  0.00    +0.000 A 
BRANCH  19  26
ATOM     25  C   UNL     1       2.134   9.909  17.804  0.00  0.00    +0.000 C 
ATOM     26  O   UNL     1       1.568   8.762  18.435  0.00  0.00    +0.000 OA
ENDBRANCH  19  26
ENDBRANCH  17  24
ENDBRANCH   1  17
TORSDOF 4
ENDMDL
MODEL 8
REMARK VINA RESULT:      -7.1      2.539      7.027
REMARK  Name = 
REMARK  6 active torsions:
REMARK  status: ('A' for Active; 'I' for Inactive)
REMARK    1  A    between atoms: C_1  and  O_2
REMARK    2  A    between atoms: O_2  and  C_3
REMARK    3  A    between atoms: C_8  and  N_9
REMARK    4  A    between atoms: N_9  and  S_10
REMARK    5  A    between atoms: S_10  and  C_13
REMARK    6  A    between atoms: C_18  and  C_19
REMARK                            x       y       z     vdW  Elec       q    Type
REMARK                         _______ _______ _______ _____ _____    ______ ____
ROOT
ATOM      1  S   UNL     1       4.914   4.411  18.938  0.00  0.00    +0.000 S 
ATOM      2  O   UNL     1       5.490   5.564  19.606  0.00  0.00    +0.000 OA
ATOM      3  O   UNL     1       4.971   3.109  19.565  0.00  0.00    +0.000 OA
ENDROOT
BRANCH   1   4
ATOM      4  C   UNL     1       5.746   4.241  17.348  0.00  0.00    +0.000 A 
ATOM      5  C   UNL     1       4.958   3.984  16.202  0.00  0.00    +0.000 A 
ATOM      6  C   UNL     1       5.501   4.204  14.939  0.00  0.00    +0.000 A 
ATOM      7  C   UNL     1       6.767   4.778  14.835  0.00  0.00    +0.000 A 
ATOM      8  C   UNL     1       7.578   4.953  15.944  0.00  0.00    +0.000 A 
ATOM      9  C   UNL     1       7.101   4.629  17.216  0.00  0.00    +0.000 A 
ATOM     10  C   UNL     1       8.055   4.783  18.363  0.00  0.00    +0.000 C 
ATOM     11  N   UNL     1       7.235   5.215  13.578  0.00  0.00    +0.000 N 
ATOM     12  C   UNL     1       6.954   4.326  12.561  0.00  0.00    +0.000 C 
ATOM     13  O   UNL     1       7.748   4.086  11.658  0.00  0.00    +0.000 OA
ATOM     14  C   UNL     1       5.552   3.706  12.654  0.00  0.00    +0.000 C 
ATOM     15  O   UNL     1       4.753   3.939  13.822  0.00  0.00    +0.000 OA
ATOM     16  H   UNL     1       6.679   6.043  13.362  0.00  0.00    +0.000 HD
ENDBRANCH   1   4
BRANCH   1  17
ATOM     17  N   UNL     1       3.292   4.712  18.599  0.00  0.00    +0.000 N 
ATOM     18  H   UNL     1       2.982   4.358  17.696  0.00  0.00    +0.000 HD
BRANCH  17  24
ATOM     19  C   UNL     1       2.102   6.023  20.303  0.00  0.00    +0.000 A 
ATOM     20  C   UNL     1       1.526   7.241  20.677  0.00  0.00    +0.000 A 
ATOM     21  C   UNL     1       1.566   8.339  19.810  0.00  0.00    +0.000 A 
ATOM     22  C   UNL     1       2.196   8.240  18.573  0.00  0.00    +0.000 A 
ATOM     23  C   UNL     1       2.759   7.029  18.183  0.00  0.00    +0.000 A 
ATOM     24  C   UNL     1       2.702   5.925  19.038  0.00  0.00    +0.000 A 
BRANCH  19  26
ATOM     25  C   UNL     1       1.167   3.897  20.790  0.00  0.00    +0.000 C 
ATOM     26  O   UNL     1       2.132   4.902  21.095  0.00  0.00    +0.000 OA
ENDBRANCH  19  26
ENDBRANCH  17  24
ENDBRANCH   1  17
TORSDOF 4
ENDMDL
MODEL 9
REMARK VINA RESULT:      -7.0      3.479      5.321
REMARK  Name = 
REMARK  6 active torsions:
REMARK  status: ('A' for Active; 'I' for Inactive)
REMARK    1  A    between atoms: C_1  and  O_2
REMARK    2  A    between atoms: O_2  and  C_3
REMARK    3  A    between atoms: C_8  and  N_9
REMARK    4  A    between atoms: N_9  and  S_10
REMARK    5  A    between atoms: S_10  and  C_13
REMARK    6  A    between atoms: C_18  and  C_19
REMARK                            x       y       z     vdW  Elec       q    Type
REMARK                         _______ _______ _______ _____ _____    ______ ____
ROOT
ATOM      1  S   UNL     1       3.028   4.115  18.103  0.00  0.00    +0.000 S 
ATOM      2  O   UNL     1       1.894   3.782  17.260  0.00  0.00    +0.000 OA
ATOM      3  O   UNL     1       3.345   3.287  19.245  0.00  0.00    +0.000 OA
ENDROOT
BRANCH   1   4
ATOM      4  C   UNL     1       2.750   5.775  18.745  0.00  0.00    +0.000 A 
ATOM      5  C   UNL     1       2.743   6.856  17.832  0.00  0.00    +0.000 A 
ATOM      6  C   UNL     1       2.185   8.071  18.220  0.00  0.00    +0.000 A 
ATOM      7  C   UNL     1       1.547   8.161  19.457  0.00  0.00    +0.000 A 
ATOM      8  C   UNL     1       1.624   7.140  20.389  0.00  0.00    +0.000 A 
ATOM      9  C   UNL     1       2.281   5.950  20.069  0.00  0.00    +0.000 A 
ATOM     10  C   UNL     1       2.382   4.914  21.149  0.00  0.00    +0.000 C 
ATOM     11  N   UNL     1       0.784   9.306  19.768  0.00  0.00    +0.000 N 
ATOM     12  C   UNL     1       1.397  10.481  19.383  0.00  0.00    +0.000 C 
ATOM     13  O   UNL     1       1.364  11.496  20.070  0.00  0.00    +0.000 OA
ATOM     14  C   UNL     1       2.083  10.398  18.011  0.00  0.00    +0.000 C 
ATOM     15  O   UNL     1       2.190   9.130  17.351  0.00  0.00    +0.000 OA
ATOM     16  H   UNL     1      -0.046   9.240  19.178  0.00  0.00    +0.000 HD
ENDBRANCH   1   4
BRANCH   1  17
ATOM     17  N   UNL     1       4.422   4.194  17.162  0.00  0.00    +0.000 N 
ATOM     18  H   UNL     1       4.638   3.333  16.663  0.00  0.00    +0.000 HD
BRANCH  17  24
ATOM     19  C   UNL     1       6.220   5.822  16.761  0.00  0.00    +0.000 A 
ATOM     20  C   UNL     1       7.312   6.534  17.265  0.00  0.00    +0.000 A 
ATOM     21  C   UNL     1       7.692   6.392  18.605  0.00  0.00    +0.000 A 
ATOM     22  C   UNL     1       6.977   5.554  19.458  0.00  0.00    +0.000 A 
ATOM     23  C   UNL     1       5.900   4.828  18.963  0.00  0.00    +0.000 A 
ATOM     24  C   UNL     1       5.530   4.952  17.621  0.00  0.00    +0.000 A 
BRANCH  19  26
ATOM     25  C   UNL     1       6.395   5.064  14.519  0.00  0.00    +0.000 C 
ATOM     26  O   UNL     1       5.760   5.915  15.471  0.00  0.00    +0.000 OA
ENDBRANCH  19  26
ENDBRANCH  17  24
ENDBRANCH   1  17
TORSDOF 4
ENDMDL
