MODEL 1
REMARK VINA RESULT:      -8.1      0.000      0.000
REMARK  Name = 
REMARK  3 active torsions:
REMARK  status: ('A' for Active; 'I' for Inactive)
REMARK    1  A    between atoms: C_1  and  C_2
REMARK    2  A    between atoms: N_21  and  C_22
REMARK    3  A    between atoms: N_25  and  C_26
REMARK                            x       y       z     vdW  Elec       q    Type
REMARK                         _______ _______ _______ _____ _____    ______ ____
ROOT
ATOM      1  C   UNL     1      -7.592   8.067  20.502  0.00  0.00    +0.000 C 
ATOM      2  C   UNL     1      -7.782   9.571  20.202  0.00  0.00    +0.000 C 
ATOM      3  C   UNL     1      -6.815   9.904  19.079  0.00  0.00    +0.000 C 
ATOM      4  C   UNL     1      -7.115  11.347  18.769  0.00  0.00    +0.000 C 
ATOM      5  N   UNL     1      -6.315  12.072  19.732  0.00  0.00    +0.000 N 
ATOM      6  C   UNL     1      -5.028  12.432  19.336  0.00  0.00    +0.000 A 
ATOM      7  N   UNL     1      -4.665  12.182  18.061  0.00  0.00    +0.000 NA
ATOM      8  C   UNL     1      -3.484  11.683  17.947  0.00  0.00    +0.000 A 
ATOM      9  C   UNL     1      -3.148  10.967  16.680  0.00  0.00    +0.000 A 
ATOM     10  C   UNL     1      -2.563   9.814  17.056  0.00  0.00    +0.000 A 
ATOM     11  C   UNL     1      -1.355  10.002  17.867  0.00  0.00    +0.000 A 
ATOM     12  C   UNL     1      -1.373  10.991  18.793  0.00  0.00    +0.000 A 
ATOM     13  N   UNL     1      -2.513  11.755  18.931  0.00  0.00    +0.000 N 
ATOM     14  C   UNL     1      -2.731  12.592  20.024  0.00  0.00    +0.000 A 
ATOM     15  O   UNL     1      -1.875  12.984  20.815  0.00  0.00    +0.000 OA
ATOM     16  C   UNL     1      -4.174  12.868  20.274  0.00  0.00    +0.000 A 
ATOM     17  C   UNL     1      -4.667  13.336  21.614  0.00  0.00    +0.000 C 
ATOM     18  C   UNL     1      -6.298  13.396  21.696  0.00  0.00    +0.000 C 
ATOM     19  C   UNL     1      -6.843  14.441  20.677  0.00  0.00    +0.000 C 
ATOM     20  O   UNL     1      -7.917  14.342  20.085  0.00  0.00    +0.000 OA
ATOM     21  N   UNL     1      -6.078  15.570  20.654  0.00  0.00    +0.000 N 
ATOM     22  C   UNL     1      -5.777  16.230  19.389  0.00  0.00    +0.000 C 
ATOM     23  C   UNL     1      -5.836  16.242  21.815  0.00  0.00    +0.000 C 
ATOM     24  O   UNL     1      -5.472  17.419  21.831  0.00  0.00    +0.000 OA
ATOM     25  N   UNL     1      -6.023  15.473  22.995  0.00  0.00    +0.000 N 
ATOM     26  C   UNL     1      -5.451  16.066  24.193  0.00  0.00    +0.000 C 
ATOM     27  C   UNL     1      -6.451  14.096  23.048  0.00  0.00    +0.000 C 
ATOM     28  O   UNL     1      -6.741  13.514  24.087  0.00  0.00    +0.000 OA
ATOM     29  C   UNL     1      -6.623  11.892  21.184  0.00  0.00    +0.000 C 
ATOM     30  C   UNL     1      -7.780  10.768  21.343  0.00  0.00    +0.000 C 
ENDROOT
TORSDOF 0
ENDMDL
MODEL 2
REMARK VINA RESULT:      -7.4      3.400      4.889
REMARK  Name = 
REMARK  3 active torsions:
REMARK  status: ('A' for Active; 'I' for Inactive)
REMARK    1  A    between atoms: C_1  and  C_2
REMARK    2  A    between atoms: N_21  and  C_22
REMARK    3  A    between atoms: N_25  and  C_26
REMARK                            x       y       z     vdW  Elec       q    Type
REMARK                         _______ _______ _______ _____ _____    ______ ____
ROOT
ATOM      1  C   UNL     1      -4.054  10.194  16.583  0.00  0.00    +0.000 C 
ATOM      2  C   UNL     1      -3.439  11.413  17.306  0.00  0.00    +0.000 C 
ATOM      3  C   UNL     1      -1.936  11.194  17.303  0.00  0.00    +0.000 C 
ATOM      4  C   UNL     1      -1.392  12.452  17.929  0.00  0.00    +0.000 C 
ATOM      5  N   UNL     1      -1.473  12.183  19.348  0.00  0.00    +0.000 N 
ATOM      6  C   UNL     1      -0.352  11.606  19.944  0.00  0.00    +0.000 A 
ATOM      7  N   UNL     1       0.754  11.445  19.188  0.00  0.00    +0.000 NA
ATOM      8  C   UNL     1       1.320  10.300  19.336  0.00  0.00    +0.000 A 
ATOM      9  C   UNL     1       2.255   9.839  18.266  0.00  0.00    +0.000 A 
ATOM     10  C   UNL     1       1.909   8.564  18.002  0.00  0.00    +0.000 A 
ATOM     11  C   UNL     1       1.994   7.676  19.166  0.00  0.00    +0.000 A 
ATOM     12  C   UNL     1       1.584   8.170  20.359  0.00  0.00    +0.000 A 
ATOM     13  N   UNL     1       1.106   9.463  20.418  0.00  0.00    +0.000 N 
ATOM     14  C   UNL     1       0.410   9.959  21.518  0.00  0.00    +0.000 A 
ATOM     15  O   UNL     1       0.385   9.461  22.642  0.00  0.00    +0.000 OA
ATOM     16  C   UNL     1      -0.477  11.109  21.182  0.00  0.00    +0.000 A 
ATOM     17  C   UNL     1      -1.634  11.495  22.060  0.00  0.00    +0.000 C 
ATOM     18  C   UNL     1      -2.561  12.665  21.396  0.00  0.00    +0.000 C 
ATOM     19  C   UNL     1      -1.729  13.971  21.226  0.00  0.00    +0.000 C 
ATOM     20  O   UNL     1      -1.882  14.781  20.312  0.00  0.00    +0.000 OA
ATOM     21  N   UNL     1      -0.932  14.207  22.307  0.00  0.00    +0.000 N 
ATOM     22  C   UNL     1       0.426  14.707  22.127  0.00  0.00    +0.000 C 
ATOM     23  C   UNL     1      -1.485  14.253  23.552  0.00  0.00    +0.000 C 
ATOM     24  O   UNL     1      -0.921  14.795  24.504  0.00  0.00    +0.000 OA
ATOM     25  N   UNL     1      -2.751  13.617  23.662  0.00  0.00    +0.000 N 
ATOM     26  C   UNL     1      -3.179  13.370  25.030  0.00  0.00    +0.000 C 
ATOM     27  C   UNL     1      -3.468  12.969  22.591  0.00  0.00    +0.000 C 
ATOM     28  O   UNL     1      -4.619  12.561  22.692  0.00  0.00    +0.000 OA
ATOM     29  C   UNL     1      -2.825  11.976  19.952  0.00  0.00    +0.000 C 
ATOM     30  C   UNL     1      -3.937  11.990  18.773  0.00  0.00    +0.000 C 
ENDROOT
TORSDOF 0
ENDMDL
MODEL 3
REMARK VINA RESULT:      -7.2     12.359     15.531
REMARK  Name = 
REMARK  3 active torsions:
REMARK  status: ('A' for Active; 'I' for Inactive)
REMARK    1  A    between atoms: C_1  and  C_2
REMARK    2  A    between atoms: N_21  and  C_22
REMARK    3  A    between atoms: N_25  and  C_26
REMARK                            x       y       z     vdW  Elec       q    Type
REMARK                         _______ _______ _______ _____ _____    ______ ____
ROOT
ATOM      1  C   UNL     1       8.471   9.653  18.075  0.00  0.00    +0.000 C 
ATOM      2  C   UNL     1       9.552  10.664  18.515  0.00  0.00    +0.000 C 
ATOM      3  C   UNL     1       9.407  10.811  20.020  0.00  0.00    +0.000 C 
ATOM      4  C   UNL     1      10.542  11.726  20.399  0.00  0.00    +0.000 C 
ATOM      5  N   UNL     1       9.997  13.047  20.174  0.00  0.00    +0.000 N 
ATOM      6  C   UNL     1       9.367  13.660  21.256  0.00  0.00    +0.000 A 
ATOM      7  N   UNL     1       9.409  13.034  22.450  0.00  0.00    +0.000 NA
ATOM      8  C   UNL     1       8.284  13.034  23.075  0.00  0.00    +0.000 A 
ATOM      9  C   UNL     1       8.086  12.023  24.157  0.00  0.00    +0.000 A 
ATOM     10  C   UNL     1       6.873  11.482  23.933  0.00  0.00    +0.000 A 
ATOM     11  C   UNL     1       5.779  12.459  23.946  0.00  0.00    +0.000 A 
ATOM     12  C   UNL     1       6.010  13.662  23.367  0.00  0.00    +0.000 A 
ATOM     13  N   UNL     1       7.242  13.903  22.797  0.00  0.00    +0.000 N 
ATOM     14  C   UNL     1       7.480  14.979  21.945  0.00  0.00    +0.000 A 
ATOM     15  O   UNL     1       6.771  15.977  21.826  0.00  0.00    +0.000 OA
ATOM     16  C   UNL     1       8.631  14.757  21.024  0.00  0.00    +0.000 A 
ATOM     17  C   UNL     1       8.784  15.539  19.750  0.00  0.00    +0.000 C 
ATOM     18  C   UNL     1      10.017  14.995  18.826  0.00  0.00    +0.000 C 
ATOM     19  C   UNL     1      11.368  15.181  19.579  0.00  0.00    +0.000 C 
ATOM     20  O   UNL     1      12.333  14.425  19.476  0.00  0.00    +0.000 OA
ATOM     21  N   UNL     1      11.425  16.379  20.227  0.00  0.00    +0.000 N 
ATOM     22  C   UNL     1      12.013  16.470  21.558  0.00  0.00    +0.000 C 
ATOM     23  C   UNL     1      11.201  17.530  19.532  0.00  0.00    +0.000 C 
ATOM     24  O   UNL     1      11.572  18.631  19.943  0.00  0.00    +0.000 OA
ATOM     25  N   UNL     1      10.497  17.357  18.310  0.00  0.00    +0.000 N 
ATOM     26  C   UNL     1       9.967  18.589  17.745  0.00  0.00    +0.000 C 
ATOM     27  C   UNL     1      10.039  16.101  17.768  0.00  0.00    +0.000 C 
ATOM     28  O   UNL     1       9.566  15.977  16.644  0.00  0.00    +0.000 OA
ATOM     29  C   UNL     1       9.613  13.425  18.779  0.00  0.00    +0.000 C 
ATOM     30  C   UNL     1       9.806  12.139  17.812  0.00  0.00    +0.000 C 
ENDROOT
TORSDOF 0
ENDMDL
MODEL 4
REMARK VINA RESULT:      -6.8     10.872     14.564
REMARK  Name = 
REMARK  3 active torsions:
REMARK  status: ('A' for Active; 'I' for Inactive)
REMARK    1  A    between atoms: C_1  and  C_2
REMARK    2  A    between atoms: N_21  and  C_22
REMARK    3  A    between atoms: N_25  and  C_26
REMARK                            x       y       z     vdW  Elec       q    Type
REMARK                         _______ _______ _______ _____ _____    ______ ____
ROOT
ATOM      1  C   UNL     1       6.905  11.506  24.300  0.00  0.00    +0.000 C 
ATOM      2  C   UNL     1       7.857  12.585  23.738  0.00  0.00    +0.000 C 
ATOM      3  C   UNL     1       6.985  13.779  23.390  0.00  0.00    +0.000 C 
ATOM      4  C   UNL     1       7.975  14.823  22.943  0.00  0.00    +0.000 C 
ATOM      5  N   UNL     1       8.182  14.512  21.545  0.00  0.00    +0.000 N 
ATOM      6  C   UNL     1       7.351  15.153  20.628  0.00  0.00    +0.000 A 
ATOM      7  N   UNL     1       6.499  16.090  21.094  0.00  0.00    +0.000 NA
ATOM      8  C   UNL     1       5.314  16.005  20.599  0.00  0.00    +0.000 A 
ATOM      9  C   UNL     1       4.199  16.670  21.338  0.00  0.00    +0.000 A 
ATOM     10  C   UNL     1       3.207  15.761  21.395  0.00  0.00    +0.000 A 
ATOM     11  C   UNL     1       2.744  15.309  20.080  0.00  0.00    +0.000 A 
ATOM     12  C   UNL     1       3.682  15.105  19.123  0.00  0.00    +0.000 A 
ATOM     13  N   UNL     1       5.008  15.324  19.433  0.00  0.00    +0.000 N 
ATOM     14  C   UNL     1       6.053  14.881  18.624  0.00  0.00    +0.000 A 
ATOM     15  O   UNL     1       5.958  14.528  17.450  0.00  0.00    +0.000 OA
ATOM     16  C   UNL     1       7.335  14.705  19.365  0.00  0.00    +0.000 A 
ATOM     17  C   UNL     1       8.434  13.826  18.839  0.00  0.00    +0.000 C 
ATOM     18  C   UNL     1       9.659  13.650  19.905  0.00  0.00    +0.000 C 
ATOM     19  C   UNL     1      10.335  15.028  20.172  0.00  0.00    +0.000 C 
ATOM     20  O   UNL     1      10.834  15.364  21.245  0.00  0.00    +0.000 OA
ATOM     21  N   UNL     1      10.474  15.753  19.024  0.00  0.00    +0.000 N 
ATOM     22  C   UNL     1      10.228  17.190  19.025  0.00  0.00    +0.000 C 
ATOM     23  C   UNL     1      11.115  15.201  17.955  0.00  0.00    +0.000 C 
ATOM     24  O   UNL     1      11.582  15.884  17.043  0.00  0.00    +0.000 OA
ATOM     25  N   UNL     1      11.184  13.782  17.974  0.00  0.00    +0.000 N 
ATOM     26  C   UNL     1      11.554  13.184  16.700  0.00  0.00    +0.000 C 
ATOM     27  C   UNL     1      10.664  12.923  19.009  0.00  0.00    +0.000 C 
ATOM     28  O   UNL     1      10.873  11.716  19.061  0.00  0.00    +0.000 OA
ATOM     29  C   UNL     1       8.793  13.192  21.197  0.00  0.00    +0.000 C 
ATOM     30  C   UNL     1       8.982  12.325  22.554  0.00  0.00    +0.000 C 
ENDROOT
TORSDOF 0
ENDMDL
MODEL 5
REMARK VINA RESULT:      -6.6     11.512     14.105
REMARK  Name = 
REMARK  3 active torsions:
REMARK  status: ('A' for Active; 'I' for Inactive)
REMARK    1  A    between atoms: C_1  and  C_2
REMARK    2  A    between atoms: N_21  and  C_22
REMARK    3  A    between atoms: N_25  and  C_26
REMARK                            x       y       z     vdW  Elec       q    Type
REMARK                         _______ _______ _______ _____ _____    ______ ____
ROOT
ATOM      1  C   UNL     1       4.671  15.244  17.580  0.00  0.00    +0.000 C 
ATOM      2  C   UNL     1       5.308  15.803  18.872  0.00  0.00    +0.000 C 
ATOM      3  C   UNL     1       6.781  16.011  18.562  0.00  0.00    +0.000 C 
ATOM      4  C   UNL     1       7.322  16.644  19.818  0.00  0.00    +0.000 C 
ATOM      5  N   UNL     1       7.616  15.509  20.666  0.00  0.00    +0.000 N 
ATOM      6  C   UNL     1       8.903  14.979  20.582  0.00  0.00    +0.000 A 
ATOM      7  N   UNL     1       9.804  15.622  19.811  0.00  0.00    +0.000 NA
ATOM      8  C   UNL     1      10.509  14.838  19.074  0.00  0.00    +0.000 A 
ATOM      9  C   UNL     1      11.201  15.428  17.889  0.00  0.00    +0.000 A 
ATOM     10  C   UNL     1      10.939  14.597  16.862  0.00  0.00    +0.000 A 
ATOM     11  C   UNL     1      11.399  13.222  17.084  0.00  0.00    +0.000 A 
ATOM     12  C   UNL     1      11.239  12.703  18.326  0.00  0.00    +0.000 A 
ATOM     13  N   UNL     1      10.654  13.481  19.304  0.00  0.00    +0.000 N 
ATOM     14  C   UNL     1      10.195  12.955  20.510  0.00  0.00    +0.000 A 
ATOM     15  O   UNL     1      10.497  11.859  20.982  0.00  0.00    +0.000 OA
ATOM     16  C   UNL     1       9.135  13.786  21.148  0.00  0.00    +0.000 A 
ATOM     17  C   UNL     1       8.191  13.213  22.167  0.00  0.00    +0.000 C 
ATOM     18  C   UNL     1       7.011  14.262  22.586  0.00  0.00    +0.000 C 
ATOM     19  C   UNL     1       7.632  15.516  23.271  0.00  0.00    +0.000 C 
ATOM     20  O   UNL     1       7.177  16.656  23.183  0.00  0.00    +0.000 OA
ATOM     21  N   UNL     1       8.637  15.178  24.129  0.00  0.00    +0.000 N 
ATOM     22  C   UNL     1       9.849  15.985  24.199  0.00  0.00    +0.000 C 
ATOM     23  C   UNL     1       8.400  14.269  25.116  0.00  0.00    +0.000 C 
ATOM     24  O   UNL     1       9.116  14.179  26.114  0.00  0.00    +0.000 OA
ATOM     25  N   UNL     1       7.274  13.431  24.892  0.00  0.00    +0.000 N 
ATOM     26  C   UNL     1       7.218  12.260  25.754  0.00  0.00    +0.000 C 
ATOM     27  C   UNL     1       6.393  13.485  23.751  0.00  0.00    +0.000 C 
ATOM     28  O   UNL     1       5.351  12.846  23.665  0.00  0.00    +0.000 OA
ATOM     29  C   UNL     1       6.481  14.639  21.101  0.00  0.00    +0.000 C 
ATOM     30  C   UNL     1       5.122  15.144  20.377  0.00  0.00    +0.000 C 
ENDROOT
TORSDOF 0
ENDMDL
MODEL 6
REMARK VINA RESULT:      -6.5      1.750      2.173
REMARK  Name = 
REMARK  3 active torsions:
REMARK  status: ('A' for Active; 'I' for Inactive)
REMARK    1  A    between atoms: C_1  and  C_2
REMARK    2  A    between atoms: N_21  and  C_22
REMARK    3  A    between atoms: N_25  and  C_26
REMARK                            x       y       z     vdW  Elec       q    Type
REMARK                         _______ _______ _______ _____ _____    ______ ____
ROOT
ATOM      1  C   UNL     1      -7.167   9.517  19.989  0.00  0.00    +0.000 C 
ATOM      2  C   UNL     1      -6.818  11.006  19.774  0.00  0.00    +0.000 C 
ATOM      3  C   UNL     1      -5.407  11.035  19.213  0.00  0.00    +0.000 C 
ATOM      4  C   UNL     1      -5.165  12.495  18.935  0.00  0.00    +0.000 C 
ATOM      5  N   UNL     1      -4.714  13.009  20.210  0.00  0.00    +0.000 N 
ATOM      6  C   UNL     1      -3.340  13.001  20.442  0.00  0.00    +0.000 A 
ATOM      7  N   UNL     1      -2.530  12.624  19.431  0.00  0.00    +0.000 NA
ATOM      8  C   UNL     1      -1.589  11.824  19.792  0.00  0.00    +0.000 A 
ATOM      9  C   UNL     1      -0.924  11.005  18.734  0.00  0.00    +0.000 A 
ATOM     10  C   UNL     1      -0.876   9.750  19.220  0.00  0.00    +0.000 A 
ATOM     11  C   UNL     1      -0.143   9.635  20.484  0.00  0.00    +0.000 A 
ATOM     12  C   UNL     1      -0.315  10.621  21.398  0.00  0.00    +0.000 A 
ATOM     13  N   UNL     1      -1.165  11.665  21.100  0.00  0.00    +0.000 N 
ATOM     14  C   UNL     1      -1.621  12.563  22.063  0.00  0.00    +0.000 A 
ATOM     15  O   UNL     1      -1.132  12.737  23.178  0.00  0.00    +0.000 OA
ATOM     16  C   UNL     1      -2.905  13.222  21.691  0.00  0.00    +0.000 A 
ATOM     17  C   UNL     1      -3.800  13.846  22.724  0.00  0.00    +0.000 C 
ATOM     18  C   UNL     1      -5.227  14.341  22.102  0.00  0.00    +0.000 C 
ATOM     19  C   UNL     1      -4.985  15.462  21.046  0.00  0.00    +0.000 C 
ATOM     20  O   UNL     1      -5.676  15.635  20.043  0.00  0.00    +0.000 OA
ATOM     21  N   UNL     1      -4.030  16.345  21.456  0.00  0.00    +0.000 N 
ATOM     22  C   UNL     1      -3.048  16.861  20.510  0.00  0.00    +0.000 C 
ATOM     23  C   UNL     1      -4.161  16.963  22.664  0.00  0.00    +0.000 C 
ATOM     24  O   UNL     1      -3.556  18.000  22.942  0.00  0.00    +0.000 OA
ATOM     25  N   UNL     1      -5.035  16.309  23.573  0.00  0.00    +0.000 N 
ATOM     26  C   UNL     1      -4.917  16.765  24.950  0.00  0.00    +0.000 C 
ATOM     27  C   UNL     1      -5.775  15.099  23.313  0.00  0.00    +0.000 C 
ATOM     28  O   UNL     1      -6.629  14.647  24.068  0.00  0.00    +0.000 OA
ATOM     29  C   UNL     1      -5.663  12.963  21.365  0.00  0.00    +0.000 C 
ATOM     30  C   UNL     1      -7.014  12.194  20.908  0.00  0.00    +0.000 C 
ENDROOT
TORSDOF 0
ENDMDL
MODEL 7
REMARK VINA RESULT:      -6.5      1.655      1.795
REMARK  Name = 
REMARK  3 active torsions:
REMARK  status: ('A' for Active; 'I' for Inactive)
REMARK    1  A    between atoms: C_1  and  C_2
REMARK    2  A    between atoms: N_21  and  C_22
REMARK    3  A    between atoms: N_25  and  C_26
REMARK                            x       y       z     vdW  Elec       q    Type
REMARK                         _______ _______ _______ _____ _____    ______ ____
ROOT
ATOM      1  C   UNL     1      -7.563   9.214  20.075  0.00  0.00    +0.000 C 
ATOM      2  C   UNL     1      -7.249  10.727  20.080  0.00  0.00    +0.000 C 
ATOM      3  C   UNL     1      -6.174  10.939  19.027  0.00  0.00    +0.000 C 
ATOM      4  C   UNL     1      -5.983  12.433  19.011  0.00  0.00    +0.000 C 
ATOM      5  N   UNL     1      -5.039  12.662  20.083  0.00  0.00    +0.000 N 
ATOM      6  C   UNL     1      -3.687  12.657  19.743  0.00  0.00    +0.000 A 
ATOM      7  N   UNL     1      -3.364  12.553  18.437  0.00  0.00    +0.000 NA
ATOM      8  C   UNL     1      -2.402  11.731  18.206  0.00  0.00    +0.000 A 
ATOM      9  C   UNL     1      -2.253  11.202  16.817  0.00  0.00    +0.000 A 
ATOM     10  C   UNL     1      -2.085   9.872  16.949  0.00  0.00    +0.000 A 
ATOM     11  C   UNL     1      -0.919   9.503  17.759  0.00  0.00    +0.000 A 
ATOM     12  C   UNL     1      -0.664  10.247  18.861  0.00  0.00    +0.000 A 
ATOM     13  N   UNL     1      -1.505  11.297  19.167  0.00  0.00    +0.000 N 
ATOM     14  C   UNL     1      -1.494  11.934  20.406  0.00  0.00    +0.000 A 
ATOM     15  O   UNL     1      -0.596  11.870  21.244  0.00  0.00    +0.000 OA
ATOM     16  C   UNL     1      -2.784  12.607  20.732  0.00  0.00    +0.000 A 
ATOM     17  C   UNL     1      -3.163  12.942  22.147  0.00  0.00    +0.000 C 
ATOM     18  C   UNL     1      -4.691  13.508  22.269  0.00  0.00    +0.000 C 
ATOM     19  C   UNL     1      -4.826  14.848  21.485  0.00  0.00    +0.000 C 
ATOM     20  O   UNL     1      -5.846  15.216  20.904  0.00  0.00    +0.000 OA
ATOM     21  N   UNL     1      -3.740  15.653  21.669  0.00  0.00    +0.000 N 
ATOM     22  C   UNL     1      -3.186  16.410  20.553  0.00  0.00    +0.000 C 
ATOM     23  C   UNL     1      -3.350  15.975  22.935  0.00  0.00    +0.000 C 
ATOM     24  O   UNL     1      -2.631  16.946  23.176  0.00  0.00    +0.000 OA
ATOM     25  N   UNL     1      -3.828  15.096  23.944  0.00  0.00    +0.000 N 
ATOM     26  C   UNL     1      -3.152  15.232  25.225  0.00  0.00    +0.000 C 
ATOM     27  C   UNL     1      -4.675  13.948  23.735  0.00  0.00    +0.000 C 
ATOM     28  O   UNL     1      -5.184  13.302  24.644  0.00  0.00    +0.000 OA
ATOM     29  C   UNL     1      -5.455  12.317  21.477  0.00  0.00    +0.000 C 
ATOM     30  C   UNL     1      -6.917  11.617  21.433  0.00  0.00    +0.000 C 
ENDROOT
TORSDOF 0
ENDMDL
MODEL 8
REMARK VINA RESULT:      -6.5     11.226     13.524
REMARK  Name = 
REMARK  3 active torsions:
REMARK  status: ('A' for Active; 'I' for Inactive)
REMARK    1  A    between atoms: C_1  and  C_2
REMARK    2  A    between atoms: N_21  and  C_22
REMARK    3  A    between atoms: N_25  and  C_26
REMARK                            x       y       z     vdW  Elec       q    Type
REMARK                         _______ _______ _______ _____ _____    ______ ____
ROOT
ATOM      1  C   UNL     1       4.415  15.348  17.566  0.00  0.00    +0.000 C 
ATOM      2  C   UNL     1       5.233  15.979  18.715  0.00  0.00    +0.000 C 
ATOM      3  C   UNL     1       6.688  15.647  18.430  0.00  0.00    +0.000 C 
ATOM      4  C   UNL     1       7.436  16.367  19.522  0.00  0.00    +0.000 C 
ATOM      5  N   UNL     1       7.396  15.434  20.628  0.00  0.00    +0.000 N 
ATOM      6  C   UNL     1       8.454  14.533  20.730  0.00  0.00    +0.000 A 
ATOM      7  N   UNL     1       9.484  14.667  19.869  0.00  0.00    +0.000 NA
ATOM      8  C   UNL     1       9.892  13.552  19.371  0.00  0.00    +0.000 A 
ATOM      9  C   UNL     1      10.693  13.601  18.112  0.00  0.00    +0.000 A 
ATOM     10  C   UNL     1      10.157  12.668  17.302  0.00  0.00    +0.000 A 
ATOM     11  C   UNL     1      10.180  11.314  17.864  0.00  0.00    +0.000 A 
ATOM     12  C   UNL     1       9.908  11.182  19.185  0.00  0.00    +0.000 A 
ATOM     13  N   UNL     1       9.621  12.312  19.923  0.00  0.00    +0.000 N 
ATOM     14  C   UNL     1       9.061  12.256  21.198  0.00  0.00    +0.000 A 
ATOM     15  O   UNL     1       9.028  11.268  21.930  0.00  0.00    +0.000 OA
ATOM     16  C   UNL     1       8.328  13.499  21.573  0.00  0.00    +0.000 A 
ATOM     17  C   UNL     1       7.287  13.503  22.656  0.00  0.00    +0.000 C 
ATOM     18  C   UNL     1       6.498  14.930  22.761  0.00  0.00    +0.000 C 
ATOM     19  C   UNL     1       7.496  16.061  23.154  0.00  0.00    +0.000 C 
ATOM     20  O   UNL     1       7.408  17.229  22.778  0.00  0.00    +0.000 OA
ATOM     21  N   UNL     1       8.375  15.649  24.112  0.00  0.00    +0.000 N 
ATOM     22  C   UNL     1       9.778  16.040  24.042  0.00  0.00    +0.000 C 
ATOM     23  C   UNL     1       7.901  15.120  25.276  0.00  0.00    +0.000 C 
ATOM     24  O   UNL     1       8.587  15.058  26.298  0.00  0.00    +0.000 OA
ATOM     25  N   UNL     1       6.567  14.637  25.207  0.00  0.00    +0.000 N 
ATOM     26  C   UNL     1       6.182  13.782  26.320  0.00  0.00    +0.000 C 
ATOM     27  C   UNL     1       5.709  14.682  24.049  0.00  0.00    +0.000 C 
ATOM     28  O   UNL     1       4.519  14.390  24.071  0.00  0.00    +0.000 OA
ATOM     29  C   UNL     1       6.063  15.083  21.207  0.00  0.00    +0.000 C 
ATOM     30  C   UNL     1       4.901  15.790  20.324  0.00  0.00    +0.000 C 
ENDROOT
TORSDOF 0
ENDMDL
MODEL 9
REMARK VINA RESULT:      -6.3     10.708     13.321
REMARK  Name = 
REMARK  3 active torsions:
REMARK  status: ('A' for Active; 'I' for Inactive)
REMARK    1  A    between atoms: C_1  and  C_2
REMARK    2  A    between atoms: N_21  and  C_22
REMARK    3  A    between atoms: N_25  and  C_26
REMARK                            x       y       z     vdW  Elec       q    Type
REMARK                         _______ _______ _______ _____ _____    ______ ____
ROOT
ATOM      1  C   UNL     1       3.284  13.778  18.099  0.00  0.00    +0.000 C 
ATOM      2  C   UNL     1       4.324  14.900  18.308  0.00  0.00    +0.000 C 
ATOM      3  C   UNL     1       5.668  14.311  17.916  0.00  0.00    +0.000 C 
ATOM      4  C   UNL     1       6.617  15.474  18.047  0.00  0.00    +0.000 C 
ATOM      5  N   UNL     1       6.972  15.461  19.450  0.00  0.00    +0.000 N 
ATOM      6  C   UNL     1       8.098  14.721  19.807  0.00  0.00    +0.000 A 
ATOM      7  N   UNL     1       8.833  14.170  18.819  0.00  0.00    +0.000 NA
ATOM      8  C   UNL     1       9.191  12.957  19.055  0.00  0.00    +0.000 A 
ATOM      9  C   UNL     1       9.605  12.113  17.894  0.00  0.00    +0.000 A 
ATOM     10  C   UNL     1       8.957  10.941  18.045  0.00  0.00    +0.000 A 
ATOM     11  C   UNL     1       9.262  10.255  19.304  0.00  0.00    +0.000 A 
ATOM     12  C   UNL     1       9.379  11.018  20.418  0.00  0.00    +0.000 A 
ATOM     13  N   UNL     1       9.201  12.382  20.314  0.00  0.00    +0.000 N 
ATOM     14  C   UNL     1       9.024  13.205  21.425  0.00  0.00    +0.000 A 
ATOM     15  O   UNL     1       9.287  12.912  22.590  0.00  0.00    +0.000 OA
ATOM     16  C   UNL     1       8.308  14.473  21.108  0.00  0.00    +0.000 A 
ATOM     17  C   UNL     1       7.611  15.272  22.172  0.00  0.00    +0.000 C 
ATOM     18  C   UNL     1       6.751  16.518  21.559  0.00  0.00    +0.000 C 
ATOM     19  C   UNL     1       7.706  17.528  20.855  0.00  0.00    +0.000 C 
ATOM     20  O   UNL     1       7.408  18.196  19.866  0.00  0.00    +0.000 OA
ATOM     21  N   UNL     1       8.851  17.723  21.571  0.00  0.00    +0.000 N 
ATOM     22  C   UNL     1      10.136  17.830  20.891  0.00  0.00    +0.000 C 
ATOM     23  C   UNL     1       8.770  18.103  22.877  0.00  0.00    +0.000 C 
ATOM     24  O   UNL     1       9.713  18.629  23.470  0.00  0.00    +0.000 OA
ATOM     25  N   UNL     1       7.520  17.832  23.497  0.00  0.00    +0.000 N 
ATOM     26  C   UNL     1       7.541  17.920  24.949  0.00  0.00    +0.000 C 
ATOM     27  C   UNL     1       6.375  17.225  22.863  0.00  0.00    +0.000 C 
ATOM     28  O   UNL     1       5.271  17.142  23.388  0.00  0.00    +0.000 OA
ATOM     29  C   UNL     1       5.890  15.699  20.454  0.00  0.00    +0.000 C 
ATOM     30  C   UNL     1       4.469  15.808  19.683  0.00  0.00    +0.000 C 
ENDROOT
TORSDOF 0
ENDMDL
