MODEL 1
REMARK VINA RESULT:      -7.0      0.000      0.000
REMARK  Name = 
REMARK  5 active torsions:
REMARK  status: ('A' for Active; 'I' for Inactive)
REMARK    1  A    between atoms: C_1  and  O_2
REMARK    2  A    between atoms: O_2  and  C_3
REMARK    3  A    between atoms: C_3  and  C_5
REMARK    4  A    between atoms: C_7  and  C_8
REMARK    5  A    between atoms: C_10  and  C_11
REMARK                            x       y       z     vdW  Elec       q    Type
REMARK                         _______ _______ _______ _____ _____    ______ ____
ROOT
ATOM      1  C   UNL     1       7.060   5.601  16.673  0.00  0.00    +0.000 C 
ATOM      2  C   UNL     1       5.943   6.107  15.764  0.00  0.00    +0.000 C 
ATOM      3  C   UNL     1       5.122   4.867  15.443  0.00  0.00    +0.000 C 
ATOM      4  C   UNL     1       5.219   4.051  16.741  0.00  0.00    +0.000 C 
ATOM      5  N   UNL     1       6.580   4.325  17.267  0.00  0.00    +0.000 NA
ATOM      6  H   UNL     1       7.213   3.574  16.986  0.00  0.00    +0.000 HD
ENDROOT
BRANCH   4   7
ATOM      7  C   UNL     1       4.136   4.400  17.754  0.00  0.00    +0.000 A 
ATOM      8  C   UNL     1       4.393   5.152  18.913  0.00  0.00    +0.000 A 
ATOM      9  C   UNL     1       3.378   5.445  19.826  0.00  0.00    +0.000 A 
ATOM     10  C   UNL     1       2.083   4.979  19.609  0.00  0.00    +0.000 A 
ATOM     11  C   UNL     1       1.809   4.212  18.480  0.00  0.00    +0.000 A 
ATOM     12  C   UNL     1       2.829   3.926  17.573  0.00  0.00    +0.000 A 
ATOM     13  F   UNL     1       2.538   3.173  16.501  0.00  0.00    +0.000 F 
ENDBRANCH   4   7
BRANCH   1  14
ATOM     14  C   UNL     1       7.441   6.614  17.762  0.00  0.00    +0.000 C 
ATOM     15  O   UNL     1       7.800   6.323  18.896  0.00  0.00    +0.000 OA
BRANCH  14  17
ATOM     16  C   UNL     1       8.131   8.847  17.921  0.00  0.00    +0.000 C 
ATOM     17  O   UNL     1       7.262   7.892  17.312  0.00  0.00    +0.000 OA
ENDBRANCH  14  17
ENDBRANCH   1  14
BRANCH   3  18
ATOM     18  C   UNL     1       5.710   4.119  14.314  0.00  0.00    +0.000 C 
ATOM     19  N   UNL     1       6.182   3.555  13.416  0.00  0.00    +0.000 NA
ENDBRANCH   3  18
TORSDOF 4
ENDMDL
MODEL 2
REMARK VINA RESULT:      -6.6      1.169      1.315
REMARK  Name = 
REMARK  5 active torsions:
REMARK  status: ('A' for Active; 'I' for Inactive)
REMARK    1  A    between atoms: C_1  and  O_2
REMARK    2  A    between atoms: O_2  and  C_3
REMARK    3  A    between atoms: C_3  and  C_5
REMARK    4  A    between atoms: C_7  and  C_8
REMARK    5  A    between atoms: C_10  and  C_11
REMARK                            x       y       z     vdW  Elec       q    Type
REMARK                         _______ _______ _______ _____ _____    ______ ____
ROOT
ATOM      1  C   UNL     1       6.811   5.173  17.231  0.00  0.00    +0.000 C 
ATOM      2  C   UNL     1       5.881   5.954  16.306  0.00  0.00    +0.000 C 
ATOM      3  C   UNL     1       5.154   4.884  15.505  0.00  0.00    +0.000 C 
ATOM      4  C   UNL     1       5.013   3.739  16.519  0.00  0.00    +0.000 C 
ATOM      5  N   UNL     1       6.244   3.802  17.345  0.00  0.00    +0.000 NA
ATOM      6  H   UNL     1       6.930   3.133  16.990  0.00  0.00    +0.000 HD
ENDROOT
BRANCH   4   7
ATOM      7  C   UNL     1       3.752   3.838  17.369  0.00  0.00    +0.000 A 
ATOM      8  C   UNL     1       3.149   5.065  17.696  0.00  0.00    +0.000 A 
ATOM      9  C   UNL     1       1.999   5.119  18.485  0.00  0.00    +0.000 A 
ATOM     10  C   UNL     1       1.432   3.946  18.980  0.00  0.00    +0.000 A 
ATOM     11  C   UNL     1       2.024   2.720  18.689  0.00  0.00    +0.000 A 
ATOM     12  C   UNL     1       3.172   2.676  17.898  0.00  0.00    +0.000 A 
ATOM     13  F   UNL     1       3.727   1.481  17.646  0.00  0.00    +0.000 F 
ENDBRANCH   4   7
BRANCH   1  14
ATOM     14  C   UNL     1       6.963   5.830  18.610  0.00  0.00    +0.000 C 
ATOM     15  O   UNL     1       6.182   5.690  19.544  0.00  0.00    +0.000 OA
BRANCH  14  17
ATOM     16  C   UNL     1       7.877   7.879  17.936  0.00  0.00    +0.000 C 
ATOM     17  O   UNL     1       8.058   6.647  18.634  0.00  0.00    +0.000 OA
ENDBRANCH  14  17
ENDBRANCH   1  14
BRANCH   3  18
ATOM     18  C   UNL     1       5.956   4.453  14.344  0.00  0.00    +0.000 C 
ATOM     19  N   UNL     1       6.598   4.141  13.429  0.00  0.00    +0.000 NA
ENDBRANCH   3  18
TORSDOF 4
ENDMDL
MODEL 3
REMARK VINA RESULT:      -6.6      1.184      1.496
REMARK  Name = 
REMARK  5 active torsions:
REMARK  status: ('A' for Active; 'I' for Inactive)
REMARK    1  A    between atoms: C_1  and  O_2
REMARK    2  A    between atoms: O_2  and  C_3
REMARK    3  A    between atoms: C_3  and  C_5
REMARK    4  A    between atoms: C_7  and  C_8
REMARK    5  A    between atoms: C_10  and  C_11
REMARK                            x       y       z     vdW  Elec       q    Type
REMARK                         _______ _______ _______ _____ _____    ______ ____
ROOT
ATOM      1  C   UNL     1       6.905   5.444  16.239  0.00  0.00    +0.000 C 
ATOM      2  C   UNL     1       5.795   5.882  15.287  0.00  0.00    +0.000 C 
ATOM      3  C   UNL     1       5.099   4.588  14.891  0.00  0.00    +0.000 C 
ATOM      4  C   UNL     1       5.201   3.744  16.170  0.00  0.00    +0.000 C 
ATOM      5  N   UNL     1       6.506   4.114  16.773  0.00  0.00    +0.000 NA
ATOM      6  H   UNL     1       7.214   3.428  16.504  0.00  0.00    +0.000 HD
ENDROOT
BRANCH   4   7
ATOM      7  C   UNL     1       4.044   3.969  17.134  0.00  0.00    +0.000 A 
ATOM      8  C   UNL     1       3.564   5.249  17.461  0.00  0.00    +0.000 A 
ATOM      9  C   UNL     1       2.507   5.419  18.358  0.00  0.00    +0.000 A 
ATOM     10  C   UNL     1       1.915   4.312  18.962  0.00  0.00    +0.000 A 
ATOM     11  C   UNL     1       2.388   3.036  18.672  0.00  0.00    +0.000 A 
ATOM     12  C   UNL     1       3.443   2.876  17.774  0.00  0.00    +0.000 A 
ATOM     13  F   UNL     1       3.886   1.634  17.525  0.00  0.00    +0.000 F 
ENDBRANCH   4   7
BRANCH   1  14
ATOM     14  C   UNL     1       7.143   6.451  17.372  0.00  0.00    +0.000 C 
ATOM     15  O   UNL     1       7.608   7.575  17.225  0.00  0.00    +0.000 OA
BRANCH  14  17
ATOM     16  C   UNL     1       7.930   5.787  19.476  0.00  0.00    +0.000 C 
ATOM     17  O   UNL     1       6.824   5.899  18.580  0.00  0.00    +0.000 OA
ENDBRANCH  14  17
ENDBRANCH   1  14
BRANCH   3  18
ATOM     18  C   UNL     1       5.803   3.927  13.775  0.00  0.00    +0.000 C 
ATOM     19  N   UNL     1       6.331   3.400  12.885  0.00  0.00    +0.000 NA
ENDBRANCH   3  18
TORSDOF 4
ENDMDL
MODEL 4
REMARK VINA RESULT:      -6.5      3.454      5.831
REMARK  Name = 
REMARK  5 active torsions:
REMARK  status: ('A' for Active; 'I' for Inactive)
REMARK    1  A    between atoms: C_1  and  O_2
REMARK    2  A    between atoms: O_2  and  C_3
REMARK    3  A    between atoms: C_3  and  C_5
REMARK    4  A    between atoms: C_7  and  C_8
REMARK    5  A    between atoms: C_10  and  C_11
REMARK                            x       y       z     vdW  Elec       q    Type
REMARK                         _______ _______ _______ _____ _____    ______ ____
ROOT
ATOM      1  C   UNL     1       2.566   4.295  19.467  0.00  0.00    +0.000 C 
ATOM      2  C   UNL     1       2.069   5.065  18.245  0.00  0.00    +0.000 C 
ATOM      3  C   UNL     1       2.885   6.350  18.248  0.00  0.00    +0.000 C 
ATOM      4  C   UNL     1       4.243   5.888  18.797  0.00  0.00    +0.000 C 
ATOM      5  N   UNL     1       3.918   4.827  19.784  0.00  0.00    +0.000 NA
ATOM      6  H   UNL     1       3.901   5.227  20.724  0.00  0.00    +0.000 HD
ENDROOT
BRANCH   4   7
ATOM      7  C   UNL     1       5.193   5.388  17.716  0.00  0.00    +0.000 A 
ATOM      8  C   UNL     1       4.787   5.172  16.388  0.00  0.00    +0.000 A 
ATOM      9  C   UNL     1       5.683   4.704  15.424  0.00  0.00    +0.000 A 
ATOM     10  C   UNL     1       7.003   4.425  15.771  0.00  0.00    +0.000 A 
ATOM     11  C   UNL     1       7.423   4.609  17.085  0.00  0.00    +0.000 A 
ATOM     12  C   UNL     1       6.522   5.079  18.040  0.00  0.00    +0.000 A 
ATOM     13  F   UNL     1       6.951   5.234  19.302  0.00  0.00    +0.000 F 
ENDBRANCH   4   7
BRANCH   1  14
ATOM     14  C   UNL     1       2.603   2.779  19.234  0.00  0.00    +0.000 C 
ATOM     15  O   UNL     1       3.351   2.207  18.450  0.00  0.00    +0.000 OA
BRANCH  14  17
ATOM     16  C   UNL     1       1.413   2.757  21.252  0.00  0.00    +0.000 C 
ATOM     17  O   UNL     1       1.641   2.155  19.978  0.00  0.00    +0.000 OA
ENDBRANCH  14  17
ENDBRANCH   1  14
BRANCH   3  18
ATOM     18  C   UNL     1       2.281   7.361  19.137  0.00  0.00    +0.000 C 
ATOM     19  N   UNL     1       1.781   8.152  19.823  0.00  0.00    +0.000 NA
ENDBRANCH   3  18
TORSDOF 4
ENDMDL
MODEL 5
REMARK VINA RESULT:      -6.5      2.454      3.254
REMARK  Name = 
REMARK  5 active torsions:
REMARK  status: ('A' for Active; 'I' for Inactive)
REMARK    1  A    between atoms: C_1  and  O_2
REMARK    2  A    between atoms: O_2  and  C_3
REMARK    3  A    between atoms: C_3  and  C_5
REMARK    4  A    between atoms: C_7  and  C_8
REMARK    5  A    between atoms: C_10  and  C_11
REMARK                            x       y       z     vdW  Elec       q    Type
REMARK                         _______ _______ _______ _____ _____    ______ ____
ROOT
ATOM      1  C   UNL     1       5.928   4.520  17.589  0.00  0.00    +0.000 C 
ATOM      2  C   UNL     1       4.731   4.230  16.687  0.00  0.00    +0.000 C 
ATOM      3  C   UNL     1       3.610   3.864  17.648  0.00  0.00    +0.000 C 
ATOM      4  C   UNL     1       3.898   4.760  18.862  0.00  0.00    +0.000 C 
ATOM      5  N   UNL     1       5.379   4.848  18.932  0.00  0.00    +0.000 NA
ATOM      6  H   UNL     1       5.731   4.165  19.606  0.00  0.00    +0.000 HD
ENDROOT
BRANCH   4   7
ATOM      7  C   UNL     1       3.250   6.135  18.765  0.00  0.00    +0.000 A 
ATOM      8  C   UNL     1       3.506   7.023  17.706  0.00  0.00    +0.000 A 
ATOM      9  C   UNL     1       2.901   8.281  17.654  0.00  0.00    +0.000 A 
ATOM     10  C   UNL     1       2.038   8.686  18.670  0.00  0.00    +0.000 A 
ATOM     11  C   UNL     1       1.788   7.834  19.742  0.00  0.00    +0.000 A 
ATOM     12  C   UNL     1       2.395   6.579  19.784  0.00  0.00    +0.000 A 
ATOM     13  F   UNL     1       2.145   5.784  20.835  0.00  0.00    +0.000 F 
ENDBRANCH   4   7
BRANCH   1  14
ATOM     14  C   UNL     1       6.810   5.658  17.055  0.00  0.00    +0.000 C 
ATOM     15  O   UNL     1       7.226   5.742  15.905  0.00  0.00    +0.000 OA
BRANCH  14  17
ATOM     16  C   UNL     1       7.623   7.788  17.591  0.00  0.00    +0.000 C 
ATOM     17  O   UNL     1       7.121   6.534  18.055  0.00  0.00    +0.000 OA
ENDBRANCH  14  17
ENDBRANCH   1  14
BRANCH   3  18
ATOM     18  C   UNL     1       3.677   2.439  18.025  0.00  0.00    +0.000 C 
ATOM     19  N   UNL     1       3.702   1.319  18.328  0.00  0.00    +0.000 NA
ENDBRANCH   3  18
TORSDOF 4
ENDMDL
MODEL 6
REMARK VINA RESULT:      -6.4      3.577      5.240
REMARK  Name = 
REMARK  5 active torsions:
REMARK  status: ('A' for Active; 'I' for Inactive)
REMARK    1  A    between atoms: C_1  and  O_2
REMARK    2  A    between atoms: O_2  and  C_3
REMARK    3  A    between atoms: C_3  and  C_5
REMARK    4  A    between atoms: C_7  and  C_8
REMARK    5  A    between atoms: C_10  and  C_11
REMARK                            x       y       z     vdW  Elec       q    Type
REMARK                         _______ _______ _______ _____ _____    ______ ____
ROOT
ATOM      1  C   UNL     1       3.835   4.258  18.856  0.00  0.00    +0.000 C 
ATOM      2  C   UNL     1       2.327   4.031  18.778  0.00  0.00    +0.000 C 
ATOM      3  C   UNL     1       1.784   4.639  20.063  0.00  0.00    +0.000 C 
ATOM      4  C   UNL     1       2.720   5.834  20.295  0.00  0.00    +0.000 C 
ATOM      5  N   UNL     1       4.047   5.385  19.804  0.00  0.00    +0.000 NA
ATOM      6  H   UNL     1       4.608   5.052  20.590  0.00  0.00    +0.000 HD
ENDROOT
BRANCH   4   7
ATOM      7  C   UNL     1       2.256   7.107  19.598  0.00  0.00    +0.000 A 
ATOM      8  C   UNL     1       2.550   7.389  18.253  0.00  0.00    +0.000 A 
ATOM      9  C   UNL     1       2.117   8.571  17.649  0.00  0.00    +0.000 A 
ATOM     10  C   UNL     1       1.392   9.508  18.382  0.00  0.00    +0.000 A 
ATOM     11  C   UNL     1       1.108   9.263  19.722  0.00  0.00    +0.000 A 
ATOM     12  C   UNL     1       1.543   8.078  20.316  0.00  0.00    +0.000 A 
ATOM     13  F   UNL     1       1.266   7.875  21.613  0.00  0.00    +0.000 F 
ENDBRANCH   4   7
BRANCH   1  14
ATOM     14  C   UNL     1       4.460   4.557  17.486  0.00  0.00    +0.000 C 
ATOM     15  O   UNL     1       4.083   4.076  16.424  0.00  0.00    +0.000 OA
BRANCH  14  17
ATOM     16  C   UNL     1       5.617   6.400  16.619  0.00  0.00    +0.000 C 
ATOM     17  O   UNL     1       5.537   5.386  17.620  0.00  0.00    +0.000 OA
ENDBRANCH  14  17
ENDBRANCH   1  14
BRANCH   3  18
ATOM     18  C   UNL     1       1.875   3.682  21.183  0.00  0.00    +0.000 C 
ATOM     19  N   UNL     1       1.927   2.914  22.052  0.00  0.00    +0.000 NA
ENDBRANCH   3  18
TORSDOF 4
ENDMDL
MODEL 7
REMARK VINA RESULT:      -6.4      2.590      3.884
REMARK  Name = 
REMARK  5 active torsions:
REMARK  status: ('A' for Active; 'I' for Inactive)
REMARK    1  A    between atoms: C_1  and  O_2
REMARK    2  A    between atoms: O_2  and  C_3
REMARK    3  A    between atoms: C_3  and  C_5
REMARK    4  A    between atoms: C_7  and  C_8
REMARK    5  A    between atoms: C_10  and  C_11
REMARK                            x       y       z     vdW  Elec       q    Type
REMARK                         _______ _______ _______ _____ _____    ______ ____
ROOT
ATOM      1  C   UNL     1       6.506   5.359  15.552  0.00  0.00    +0.000 C 
ATOM      2  C   UNL     1       7.047   4.452  16.655  0.00  0.00    +0.000 C 
ATOM      3  C   UNL     1       6.572   5.099  17.948  0.00  0.00    +0.000 C 
ATOM      4  C   UNL     1       5.206   5.681  17.554  0.00  0.00    +0.000 C 
ATOM      5  N   UNL     1       5.362   6.108  16.141  0.00  0.00    +0.000 NA
ATOM      6  H   UNL     1       5.572   7.107  16.106  0.00  0.00    +0.000 HD
ENDROOT
BRANCH   4   7
ATOM      7  C   UNL     1       4.058   4.695  17.727  0.00  0.00    +0.000 A 
ATOM      8  C   UNL     1       4.244   3.301  17.720  0.00  0.00    +0.000 A 
ATOM      9  C   UNL     1       3.167   2.426  17.872  0.00  0.00    +0.000 A 
ATOM     10  C   UNL     1       1.874   2.924  18.018  0.00  0.00    +0.000 A 
ATOM     11  C   UNL     1       1.661   4.299  18.004  0.00  0.00    +0.000 A 
ATOM     12  C   UNL     1       2.743   5.166  17.854  0.00  0.00    +0.000 A 
ATOM     13  F   UNL     1       2.506   6.486  17.831  0.00  0.00    +0.000 F 
ENDBRANCH   4   7
BRANCH   1  14
ATOM     14  C   UNL     1       6.078   4.579  14.302  0.00  0.00    +0.000 C 
ATOM     15  O   UNL     1       5.005   4.002  14.168  0.00  0.00    +0.000 OA
BRANCH  14  17
ATOM     16  C   UNL     1       6.801   3.767  12.228  0.00  0.00    +0.000 C 
ATOM     17  O   UNL     1       7.084   4.562  13.379  0.00  0.00    +0.000 OA
ENDBRANCH  14  17
ENDBRANCH   1  14
BRANCH   3  18
ATOM     18  C   UNL     1       7.491   6.173  18.373  0.00  0.00    +0.000 C 
ATOM     19  N   UNL     1       8.191   7.036  18.706  0.00  0.00    +0.000 NA
ENDBRANCH   3  18
TORSDOF 4
ENDMDL
MODEL 8
REMARK VINA RESULT:      -6.4      3.671      5.579
REMARK  Name = 
REMARK  5 active torsions:
REMARK  status: ('A' for Active; 'I' for Inactive)
REMARK    1  A    between atoms: C_1  and  O_2
REMARK    2  A    between atoms: O_2  and  C_3
REMARK    3  A    between atoms: C_3  and  C_5
REMARK    4  A    between atoms: C_7  and  C_8
REMARK    5  A    between atoms: C_10  and  C_11
REMARK                            x       y       z     vdW  Elec       q    Type
REMARK                         _______ _______ _______ _____ _____    ______ ____
ROOT
ATOM      1  C   UNL     1       3.076   3.493  18.687  0.00  0.00    +0.000 C 
ATOM      2  C   UNL     1       1.576   3.632  18.934  0.00  0.00    +0.000 C 
ATOM      3  C   UNL     1       1.475   4.371  20.260  0.00  0.00    +0.000 C 
ATOM      4  C   UNL     1       2.689   5.311  20.218  0.00  0.00    +0.000 C 
ATOM      5  N   UNL     1       3.740   4.550  19.497  0.00  0.00    +0.000 NA
ATOM      6  H   UNL     1       4.363   4.103  20.171  0.00  0.00    +0.000 HD
ENDROOT
BRANCH   4   7
ATOM      7  C   UNL     1       2.394   6.648  19.550  0.00  0.00    +0.000 A 
ATOM      8  C   UNL     1       2.837   6.964  18.254  0.00  0.00    +0.000 A 
ATOM      9  C   UNL     1       2.556   8.204  17.676  0.00  0.00    +0.000 A 
ATOM     10  C   UNL     1       1.839   9.163  18.388  0.00  0.00    +0.000 A 
ATOM     11  C   UNL     1       1.409   8.882  19.682  0.00  0.00    +0.000 A 
ATOM     12  C   UNL     1       1.693   7.640  20.250  0.00  0.00    +0.000 A 
ATOM     13  F   UNL     1       1.278   7.402  21.503  0.00  0.00    +0.000 F 
ENDBRANCH   4   7
BRANCH   1  14
ATOM     14  C   UNL     1       3.445   3.613  17.202  0.00  0.00    +0.000 C 
ATOM     15  O   UNL     1       2.710   3.309  16.270  0.00  0.00    +0.000 OA
BRANCH  14  17
ATOM     16  C   UNL     1       5.127   4.259  15.706  0.00  0.00    +0.000 C 
ATOM     17  O   UNL     1       4.732   4.049  17.061  0.00  0.00    +0.000 OA
ENDBRANCH  14  17
ENDBRANCH   1  14
BRANCH   3  18
ATOM     18  C   UNL     1       1.580   3.437  21.398  0.00  0.00    +0.000 C 
ATOM     19  N   UNL     1       1.640   2.687  22.282  0.00  0.00    +0.000 NA
ENDBRANCH   3  18
TORSDOF 4
ENDMDL
MODEL 9
REMARK VINA RESULT:      -6.3      3.533      5.785
REMARK  Name = 
REMARK  5 active torsions:
REMARK  status: ('A' for Active; 'I' for Inactive)
REMARK    1  A    between atoms: C_1  and  O_2
REMARK    2  A    between atoms: O_2  and  C_3
REMARK    3  A    between atoms: C_3  and  C_5
REMARK    4  A    between atoms: C_7  and  C_8
REMARK    5  A    between atoms: C_10  and  C_11
REMARK                            x       y       z     vdW  Elec       q    Type
REMARK                         _______ _______ _______ _____ _____    ______ ____
ROOT
ATOM      1  C   UNL     1       2.177   4.520  19.513  0.00  0.00    +0.000 C 
ATOM      2  C   UNL     1       1.879   5.319  18.246  0.00  0.00    +0.000 C 
ATOM      3  C   UNL     1       2.780   6.542  18.347  0.00  0.00    +0.000 C 
ATOM      4  C   UNL     1       4.029   5.986  19.046  0.00  0.00    +0.000 C 
ATOM      5  N   UNL     1       3.519   4.955  19.984  0.00  0.00    +0.000 NA
ATOM      6  H   UNL     1       3.423   5.359  20.918  0.00  0.00    +0.000 HD
ENDROOT
BRANCH   4   7
ATOM      7  C   UNL     1       5.058   5.415  18.078  0.00  0.00    +0.000 A 
ATOM      8  C   UNL     1       4.734   5.022  16.768  0.00  0.00    +0.000 A 
ATOM      9  C   UNL     1       5.701   4.493  15.911  0.00  0.00    +0.000 A 
ATOM     10  C   UNL     1       7.013   4.330  16.350  0.00  0.00    +0.000 A 
ATOM     11  C   UNL     1       7.354   4.691  17.650  0.00  0.00    +0.000 A 
ATOM     12  C   UNL     1       6.381   5.219  18.499  0.00  0.00    +0.000 A 
ATOM     13  F   UNL     1       6.736   5.545  19.751  0.00  0.00    +0.000 F 
ENDBRANCH   4   7
BRANCH   1  14
ATOM     14  C   UNL     1       2.131   3.004  19.280  0.00  0.00    +0.000 C 
ATOM     15  O   UNL     1       1.106   2.339  19.183  0.00  0.00    +0.000 OA
BRANCH  14  17
ATOM     16  C   UNL     1       3.659   1.655  18.125  0.00  0.00    +0.000 C 
ATOM     17  O   UNL     1       3.394   2.484  19.257  0.00  0.00    +0.000 OA
ENDBRANCH  14  17
ENDBRANCH   1  14
BRANCH   3  18
ATOM     18  C   UNL     1       2.153   7.597  19.166  0.00  0.00    +0.000 C 
ATOM     19  N   UNL     1       1.684   8.442  19.810  0.00  0.00    +0.000 NA
ENDBRANCH   3  18
TORSDOF 4
ENDMDL
