MODEL 1
REMARK VINA RESULT:      -8.1      0.000      0.000
REMARK  Name = 
REMARK  5 active torsions:
REMARK  status: ('A' for Active; 'I' for Inactive)
REMARK    1  A    between atoms: C_1  and  C_2
REMARK    2  A    between atoms: C_4  and  C_5
REMARK    3  A    between atoms: C_5  and  N_6
REMARK    4  A    between atoms: C_8  and  C_9
REMARK    5  A    between atoms: C_9  and  C_10
REMARK                            x       y       z     vdW  Elec       q    Type
REMARK                         _______ _______ _______ _____ _____    ______ ____
ROOT
ATOM      1  N   UNL     1       5.074   4.706  18.219  0.00  0.00    +0.000 N 
ATOM      2  C   UNL     1       4.125   5.524  17.501  0.00  0.00    +0.000 C 
ATOM      3  C   UNL     1       2.866   5.413  18.369  0.00  0.00    +0.000 C 
ATOM      4  C   UNL     1       2.950   3.950  18.825  0.00  0.00    +0.000 C 
ATOM      5  C   UNL     1       4.438   3.737  18.984  0.00  0.00    +0.000 C 
ATOM      6  O   UNL     1       4.966   2.842  19.621  0.00  0.00    +0.000 OA
ENDROOT
BRANCH   1   7
ATOM      7  C   UNL     1       6.471   4.577  17.827  0.00  0.00    +0.000 C 
BRANCH   7  11
ATOM      8  C   UNL     1       6.394   3.727  12.941  0.00  0.00    +0.000 C 
ATOM      9  C   UNL     1       6.564   4.259  14.303  0.00  0.00    +0.000 A 
ATOM     10  N   UNL     1       6.035   3.858  15.436  0.00  0.00    +0.000 NA
ATOM     11  C   UNL     1       6.651   4.689  16.348  0.00  0.00    +0.000 A 
ATOM     12  N   UNL     1       7.457   5.613  15.804  0.00  0.00    +0.000 NA
ATOM     13  O   UNL     1       7.413   5.317  14.442  0.00  0.00    +0.000 OA
ENDBRANCH   7  11
ENDBRANCH   1   7
BRANCH   3  14
ATOM     14  C   UNL     1       2.933   6.421  19.540  0.00  0.00    +0.000 C 
BRANCH  14  15
ATOM     15  C   UNL     1       2.127   7.683  19.342  0.00  0.00    +0.000 A 
ATOM     16  C   UNL     1       1.443   8.265  20.419  0.00  0.00    +0.000 A 
ATOM     17  C   UNL     1       0.722   9.448  20.250  0.00  0.00    +0.000 A 
ATOM     18  C   UNL     1       0.688  10.070  19.004  0.00  0.00    +0.000 A 
ATOM     19  C   UNL     1       1.366   9.504  17.927  0.00  0.00    +0.000 A 
ATOM     20  C   UNL     1       2.077   8.312  18.092  0.00  0.00    +0.000 A 
ENDBRANCH  14  15
ENDBRANCH   3  14
TORSDOF 4
ENDMDL
MODEL 2
REMARK VINA RESULT:      -8.1      0.169      1.092
REMARK  Name = 
REMARK  5 active torsions:
REMARK  status: ('A' for Active; 'I' for Inactive)
REMARK    1  A    between atoms: C_1  and  C_2
REMARK    2  A    between atoms: C_4  and  C_5
REMARK    3  A    between atoms: C_5  and  N_6
REMARK    4  A    between atoms: C_8  and  C_9
REMARK    5  A    between atoms: C_9  and  C_10
REMARK                            x       y       z     vdW  Elec       q    Type
REMARK                         _______ _______ _______ _____ _____    ______ ____
ROOT
ATOM      1  N   UNL     1       5.081   4.678  18.090  0.00  0.00    +0.000 N 
ATOM      2  C   UNL     1       4.115   5.492  17.390  0.00  0.00    +0.000 C 
ATOM      3  C   UNL     1       2.897   5.436  18.320  0.00  0.00    +0.000 C 
ATOM      4  C   UNL     1       2.974   3.986  18.820  0.00  0.00    +0.000 C 
ATOM      5  C   UNL     1       4.463   3.748  18.916  0.00  0.00    +0.000 C 
ATOM      6  O   UNL     1       5.003   2.863  19.557  0.00  0.00    +0.000 OA
ENDROOT
BRANCH   1   7
ATOM      7  C   UNL     1       6.455   4.507  17.637  0.00  0.00    +0.000 C 
BRANCH   7  11
ATOM      8  C   UNL     1       6.314   3.615  12.760  0.00  0.00    +0.000 C 
ATOM      9  C   UNL     1       6.470   4.173  14.113  0.00  0.00    +0.000 A 
ATOM     10  N   UNL     1       6.023   3.727  15.265  0.00  0.00    +0.000 NA
ATOM     11  C   UNL     1       6.575   4.626  16.153  0.00  0.00    +0.000 A 
ATOM     12  N   UNL     1       7.260   5.626  15.578  0.00  0.00    +0.000 NA
ATOM     13  O   UNL     1       7.205   5.316  14.220  0.00  0.00    +0.000 OA
ENDBRANCH   7  11
ENDBRANCH   1   7
BRANCH   3  14
ATOM     14  C   UNL     1       3.039   6.480  19.452  0.00  0.00    +0.000 C 
BRANCH  14  15
ATOM     15  C   UNL     1       2.186   7.716  19.291  0.00  0.00    +0.000 A 
ATOM     16  C   UNL     1       2.047   8.324  18.034  0.00  0.00    +0.000 A 
ATOM     17  C   UNL     1       1.236   9.448  17.873  0.00  0.00    +0.000 A 
ATOM     18  C   UNL     1       0.543   9.969  18.963  0.00  0.00    +0.000 A 
ATOM     19  C   UNL     1       0.671   9.372  20.216  0.00  0.00    +0.000 A 
ATOM     20  C   UNL     1       1.494   8.256  20.382  0.00  0.00    +0.000 A 
ENDBRANCH  14  15
ENDBRANCH   3  14
TORSDOF 4
ENDMDL
MODEL 3
REMARK VINA RESULT:      -8.0      3.399      4.940
REMARK  Name = 
REMARK  5 active torsions:
REMARK  status: ('A' for Active; 'I' for Inactive)
REMARK    1  A    between atoms: C_1  and  C_2
REMARK    2  A    between atoms: C_4  and  C_5
REMARK    3  A    between atoms: C_5  and  N_6
REMARK    4  A    between atoms: C_8  and  C_9
REMARK    5  A    between atoms: C_9  and  C_10
REMARK                            x       y       z     vdW  Elec       q    Type
REMARK                         _______ _______ _______ _____ _____    ______ ____
ROOT
ATOM      1  N   UNL     1       6.386   5.067  17.814  0.00  0.00    +0.000 N 
ATOM      2  C   UNL     1       5.016   5.449  18.064  0.00  0.00    +0.000 C 
ATOM      3  C   UNL     1       4.236   4.516  17.129  0.00  0.00    +0.000 C 
ATOM      4  C   UNL     1       5.170   4.468  15.913  0.00  0.00    +0.000 C 
ATOM      5  C   UNL     1       6.541   4.520  16.547  0.00  0.00    +0.000 C 
ATOM      6  O   UNL     1       7.587   4.193  16.012  0.00  0.00    +0.000 OA
ENDROOT
BRANCH   1   7
ATOM      7  C   UNL     1       7.514   5.618  18.554  0.00  0.00    +0.000 C 
BRANCH   7  11
ATOM      8  C   UNL     1       9.011  10.347  18.565  0.00  0.00    +0.000 C 
ATOM      9  C   UNL     1       8.469   9.013  18.257  0.00  0.00    +0.000 A 
ATOM     10  N   UNL     1       8.608   7.877  18.901  0.00  0.00    +0.000 NA
ATOM     11  C   UNL     1       7.795   7.034  18.173  0.00  0.00    +0.000 A 
ATOM     12  N   UNL     1       7.245   7.595  17.085  0.00  0.00    +0.000 NA
ATOM     13  O   UNL     1       7.680   8.918  17.148  0.00  0.00    +0.000 OA
ENDBRANCH   7  11
ENDBRANCH   1   7
BRANCH   3  14
ATOM     14  C   UNL     1       4.031   3.137  17.798  0.00  0.00    +0.000 C 
BRANCH  14  15
ATOM     15  C   UNL     1       3.069   3.128  18.962  0.00  0.00    +0.000 A 
ATOM     16  C   UNL     1       3.479   2.660  20.219  0.00  0.00    +0.000 A 
ATOM     17  C   UNL     1       2.604   2.677  21.305  0.00  0.00    +0.000 A 
ATOM     18  C   UNL     1       1.313   3.176  21.152  0.00  0.00    +0.000 A 
ATOM     19  C   UNL     1       0.894   3.647  19.909  0.00  0.00    +0.000 A 
ATOM     20  C   UNL     1       1.764   3.617  18.817  0.00  0.00    +0.000 A 
ENDBRANCH  14  15
ENDBRANCH   3  14
TORSDOF 4
ENDMDL
MODEL 4
REMARK VINA RESULT:      -7.9      2.787      4.016
REMARK  Name = 
REMARK  5 active torsions:
REMARK  status: ('A' for Active; 'I' for Inactive)
REMARK    1  A    between atoms: C_1  and  C_2
REMARK    2  A    between atoms: C_4  and  C_5
REMARK    3  A    between atoms: C_5  and  N_6
REMARK    4  A    between atoms: C_8  and  C_9
REMARK    5  A    between atoms: C_9  and  C_10
REMARK                            x       y       z     vdW  Elec       q    Type
REMARK                         _______ _______ _______ _____ _____    ______ ____
ROOT
ATOM      1  N   UNL     1       5.965   5.628  16.895  0.00  0.00    +0.000 N 
ATOM      2  C   UNL     1       5.738   5.433  18.308  0.00  0.00    +0.000 C 
ATOM      3  C   UNL     1       4.262   5.817  18.463  0.00  0.00    +0.000 C 
ATOM      4  C   UNL     1       4.155   6.984  17.473  0.00  0.00    +0.000 C 
ATOM      5  C   UNL     1       5.087   6.562  16.361  0.00  0.00    +0.000 C 
ATOM      6  O   UNL     1       5.091   7.008  15.226  0.00  0.00    +0.000 OA
ENDROOT
BRANCH   1   7
ATOM      7  C   UNL     1       7.222   5.294  16.237  0.00  0.00    +0.000 C 
BRANCH   7  11
ATOM      8  C   UNL     1       5.830   2.933  12.103  0.00  0.00    +0.000 C 
ATOM      9  C   UNL     1       6.380   3.845  13.120  0.00  0.00    +0.000 A 
ATOM     10  N   UNL     1       6.139   3.914  14.409  0.00  0.00    +0.000 NA
ATOM     11  C   UNL     1       7.019   4.895  14.812  0.00  0.00    +0.000 A 
ATOM     12  N   UNL     1       7.711   5.466  13.814  0.00  0.00    +0.000 NA
ATOM     13  O   UNL     1       7.298   4.756  12.688  0.00  0.00    +0.000 OA
ENDBRANCH   7  11
ENDBRANCH   1   7
BRANCH   3  14
ATOM     14  C   UNL     1       3.355   4.619  18.095  0.00  0.00    +0.000 C 
BRANCH  14  15
ATOM     15  C   UNL     1       2.685   3.941  19.266  0.00  0.00    +0.000 A 
ATOM     16  C   UNL     1       1.297   4.036  19.443  0.00  0.00    +0.000 A 
ATOM     17  C   UNL     1       0.668   3.387  20.506  0.00  0.00    +0.000 A 
ATOM     18  C   UNL     1       1.418   2.624  21.398  0.00  0.00    +0.000 A 
ATOM     19  C   UNL     1       2.798   2.520  21.232  0.00  0.00    +0.000 A 
ATOM     20  C   UNL     1       3.431   3.181  20.176  0.00  0.00    +0.000 A 
ENDBRANCH  14  15
ENDBRANCH   3  14
TORSDOF 4
ENDMDL
MODEL 5
REMARK VINA RESULT:      -7.9      3.436      4.943
REMARK  Name = 
REMARK  5 active torsions:
REMARK  status: ('A' for Active; 'I' for Inactive)
REMARK    1  A    between atoms: C_1  and  C_2
REMARK    2  A    between atoms: C_4  and  C_5
REMARK    3  A    between atoms: C_5  and  N_6
REMARK    4  A    between atoms: C_8  and  C_9
REMARK    5  A    between atoms: C_9  and  C_10
REMARK                            x       y       z     vdW  Elec       q    Type
REMARK                         _______ _______ _______ _____ _____    ______ ____
ROOT
ATOM      1  N   UNL     1       6.119   4.788  17.699  0.00  0.00    +0.000 N 
ATOM      2  C   UNL     1       4.778   5.215  18.020  0.00  0.00    +0.000 C 
ATOM      3  C   UNL     1       3.921   4.343  17.094  0.00  0.00    +0.000 C 
ATOM      4  C   UNL     1       4.800   4.297  15.836  0.00  0.00    +0.000 C 
ATOM      5  C   UNL     1       6.198   4.276  16.410  0.00  0.00    +0.000 C 
ATOM      6  O   UNL     1       7.206   3.927  15.819  0.00  0.00    +0.000 OA
ENDROOT
BRANCH   1   7
ATOM      7  C   UNL     1       7.299   5.272  18.404  0.00  0.00    +0.000 C 
BRANCH   7  11
ATOM      8  C   UNL     1       8.891   9.967  18.574  0.00  0.00    +0.000 C 
ATOM      9  C   UNL     1       8.319   8.657  18.222  0.00  0.00    +0.000 A 
ATOM     10  N   UNL     1       8.442   7.495  18.822  0.00  0.00    +0.000 NA
ATOM     11  C   UNL     1       7.605   6.696  18.072  0.00  0.00    +0.000 A 
ATOM     12  N   UNL     1       7.055   7.307  17.012  0.00  0.00    +0.000 NA
ATOM     13  O   UNL     1       7.518   8.618  17.120  0.00  0.00    +0.000 OA
ENDBRANCH   7  11
ENDBRANCH   1   7
BRANCH   3  14
ATOM     14  C   UNL     1       3.691   2.952  17.729  0.00  0.00    +0.000 C 
BRANCH  14  15
ATOM     15  C   UNL     1       2.890   2.960  19.010  0.00  0.00    +0.000 A 
ATOM     16  C   UNL     1       1.530   3.300  18.995  0.00  0.00    +0.000 A 
ATOM     17  C   UNL     1       0.777   3.280  20.170  0.00  0.00    +0.000 A 
ATOM     18  C   UNL     1       1.373   2.905  21.371  0.00  0.00    +0.000 A 
ATOM     19  C   UNL     1       2.723   2.561  21.399  0.00  0.00    +0.000 A 
ATOM     20  C   UNL     1       3.481   2.595  20.226  0.00  0.00    +0.000 A 
ENDBRANCH  14  15
ENDBRANCH   3  14
TORSDOF 4
ENDMDL
MODEL 6
REMARK VINA RESULT:      -7.9      2.943      4.070
REMARK  Name = 
REMARK  5 active torsions:
REMARK  status: ('A' for Active; 'I' for Inactive)
REMARK    1  A    between atoms: C_1  and  C_2
REMARK    2  A    between atoms: C_4  and  C_5
REMARK    3  A    between atoms: C_5  and  N_6
REMARK    4  A    between atoms: C_8  and  C_9
REMARK    5  A    between atoms: C_9  and  C_10
REMARK                            x       y       z     vdW  Elec       q    Type
REMARK                         _______ _______ _______ _____ _____    ______ ____
ROOT
ATOM      1  N   UNL     1       6.131   5.423  16.351  0.00  0.00    +0.000 N 
ATOM      2  C   UNL     1       5.987   4.934  17.702  0.00  0.00    +0.000 C 
ATOM      3  C   UNL     1       4.538   5.306  18.038  0.00  0.00    +0.000 C 
ATOM      4  C   UNL     1       4.409   6.661  17.329  0.00  0.00    +0.000 C 
ATOM      5  C   UNL     1       5.253   6.467  16.090  0.00  0.00    +0.000 C 
ATOM      6  O   UNL     1       5.200   7.146  15.079  0.00  0.00    +0.000 OA
ENDROOT
BRANCH   1   7
ATOM      7  C   UNL     1       7.330   5.212  15.550  0.00  0.00    +0.000 C 
BRANCH   7  11
ATOM      8  C   UNL     1       5.568   2.575  11.736  0.00  0.00    +0.000 C 
ATOM      9  C   UNL     1       6.215   3.548  12.632  0.00  0.00    +0.000 A 
ATOM     10  N   UNL     1       6.076   3.725  13.926  0.00  0.00    +0.000 NA
ATOM     11  C   UNL     1       7.008   4.709  14.182  0.00  0.00    +0.000 A 
ATOM     12  N   UNL     1       7.635   5.178  13.092  0.00  0.00    +0.000 NA
ATOM     13  O   UNL     1       7.119   4.394  12.061  0.00  0.00    +0.000 OA
ENDBRANCH   7  11
ENDBRANCH   1   7
BRANCH   3  14
ATOM     14  C   UNL     1       3.569   4.234  17.488  0.00  0.00    +0.000 C 
BRANCH  14  15
ATOM     15  C   UNL     1       2.469   3.821  18.437  0.00  0.00    +0.000 A 
ATOM     16  C   UNL     1       1.764   2.626  18.231  0.00  0.00    +0.000 A 
ATOM     17  C   UNL     1       0.768   2.223  19.121  0.00  0.00    +0.000 A 
ATOM     18  C   UNL     1       0.474   3.004  20.236  0.00  0.00    +0.000 A 
ATOM     19  C   UNL     1       1.169   4.192  20.454  0.00  0.00    +0.000 A 
ATOM     20  C   UNL     1       2.156   4.603  19.556  0.00  0.00    +0.000 A 
ENDBRANCH  14  15
ENDBRANCH   3  14
TORSDOF 4
ENDMDL
MODEL 7
REMARK VINA RESULT:      -7.8      1.420      2.356
REMARK  Name = 
REMARK  5 active torsions:
REMARK  status: ('A' for Active; 'I' for Inactive)
REMARK    1  A    between atoms: C_1  and  C_2
REMARK    2  A    between atoms: C_4  and  C_5
REMARK    3  A    between atoms: C_5  and  N_6
REMARK    4  A    between atoms: C_8  and  C_9
REMARK    5  A    between atoms: C_9  and  C_10
REMARK                            x       y       z     vdW  Elec       q    Type
REMARK                         _______ _______ _______ _____ _____    ______ ____
ROOT
ATOM      1  N   UNL     1       4.335   4.367  18.011  0.00  0.00    +0.000 N 
ATOM      2  C   UNL     1       3.116   5.035  17.622  0.00  0.00    +0.000 C 
ATOM      3  C   UNL     1       2.390   5.209  18.961  0.00  0.00    +0.000 C 
ATOM      4  C   UNL     1       2.761   3.899  19.670  0.00  0.00    +0.000 C 
ATOM      5  C   UNL     1       4.172   3.651  19.190  0.00  0.00    +0.000 C 
ATOM      6  O   UNL     1       4.984   2.911  19.718  0.00  0.00    +0.000 OA
ENDROOT
BRANCH   1   7
ATOM      7  C   UNL     1       5.414   4.069  17.077  0.00  0.00    +0.000 C 
BRANCH   7  11
ATOM      8  C   UNL     1       7.970   8.247  17.864  0.00  0.00    +0.000 C 
ATOM      9  C   UNL     1       7.425   6.965  17.386  0.00  0.00    +0.000 A 
ATOM     10  N   UNL     1       6.561   6.154  17.950  0.00  0.00    +0.000 NA
ATOM     11  C   UNL     1       6.393   5.192  16.976  0.00  0.00    +0.000 A 
ATOM     12  N   UNL     1       7.174   5.352  15.896  0.00  0.00    +0.000 NA
ATOM     13  O   UNL     1       7.851   6.542  16.161  0.00  0.00    +0.000 OA
ENDBRANCH   7  11
ENDBRANCH   1   7
BRANCH   3  14
ATOM     14  C   UNL     1       2.911   6.468  19.693  0.00  0.00    +0.000 C 
BRANCH  14  15
ATOM     15  C   UNL     1       2.085   7.715  19.485  0.00  0.00    +0.000 A 
ATOM     16  C   UNL     1       2.058   8.348  18.233  0.00  0.00    +0.000 A 
ATOM     17  C   UNL     1       1.274   9.483  18.026  0.00  0.00    +0.000 A 
ATOM     18  C   UNL     1       0.495   9.991  19.064  0.00  0.00    +0.000 A 
ATOM     19  C   UNL     1       0.511   9.369  20.311  0.00  0.00    +0.000 A 
ATOM     20  C   UNL     1       1.307   8.241  20.524  0.00  0.00    +0.000 A 
ENDBRANCH  14  15
ENDBRANCH   3  14
TORSDOF 4
ENDMDL
MODEL 8
REMARK VINA RESULT:      -7.8      1.399      2.006
REMARK  Name = 
REMARK  5 active torsions:
REMARK  status: ('A' for Active; 'I' for Inactive)
REMARK    1  A    between atoms: C_1  and  C_2
REMARK    2  A    between atoms: C_4  and  C_5
REMARK    3  A    between atoms: C_5  and  N_6
REMARK    4  A    between atoms: C_8  and  C_9
REMARK    5  A    between atoms: C_9  and  C_10
REMARK                            x       y       z     vdW  Elec       q    Type
REMARK                         _______ _______ _______ _____ _____    ______ ____
ROOT
ATOM      1  N   UNL     1       3.943   4.148  18.072  0.00  0.00    +0.000 N 
ATOM      2  C   UNL     1       2.690   4.826  17.837  0.00  0.00    +0.000 C 
ATOM      3  C   UNL     1       2.155   5.037  19.259  0.00  0.00    +0.000 C 
ATOM      4  C   UNL     1       2.602   3.735  19.938  0.00  0.00    +0.000 C 
ATOM      5  C   UNL     1       3.932   3.456  19.276  0.00  0.00    +0.000 C 
ATOM      6  O   UNL     1       4.799   2.714  19.705  0.00  0.00    +0.000 OA
ENDROOT
BRANCH   1   7
ATOM      7  C   UNL     1       4.881   3.816  17.007  0.00  0.00    +0.000 C 
BRANCH   7  11
ATOM      8  C   UNL     1       7.786   7.788  17.629  0.00  0.00    +0.000 C 
ATOM      9  C   UNL     1       7.126   6.546  17.195  0.00  0.00    +0.000 A 
ATOM     10  N   UNL     1       6.217   5.818  17.801  0.00  0.00    +0.000 NA
ATOM     11  C   UNL     1       5.944   4.854  16.853  0.00  0.00    +0.000 A 
ATOM     12  N   UNL     1       6.703   4.929  15.749  0.00  0.00    +0.000 NA
ATOM     13  O   UNL     1       7.480   6.066  15.969  0.00  0.00    +0.000 OA
ENDBRANCH   7  11
ENDBRANCH   1   7
BRANCH   3  14
ATOM     14  C   UNL     1       2.786   6.301  19.887  0.00  0.00    +0.000 C 
BRANCH  14  15
ATOM     15  C   UNL     1       2.122   7.603  19.506  0.00  0.00    +0.000 A 
ATOM     16  C   UNL     1       1.322   8.290  20.431  0.00  0.00    +0.000 A 
ATOM     17  C   UNL     1       0.731   9.508  20.094  0.00  0.00    +0.000 A 
ATOM     18  C   UNL     1       0.944  10.061  18.834  0.00  0.00    +0.000 A 
ATOM     19  C   UNL     1       1.740   9.390  17.907  0.00  0.00    +0.000 A 
ATOM     20  C   UNL     1       2.320   8.163  18.237  0.00  0.00    +0.000 A 
ENDBRANCH  14  15
ENDBRANCH   3  14
TORSDOF 4
ENDMDL
MODEL 9
REMARK VINA RESULT:      -7.8      3.138      4.141
REMARK  Name = 
REMARK  5 active torsions:
REMARK  status: ('A' for Active; 'I' for Inactive)
REMARK    1  A    between atoms: C_1  and  C_2
REMARK    2  A    between atoms: C_4  and  C_5
REMARK    3  A    between atoms: C_5  and  N_6
REMARK    4  A    between atoms: C_8  and  C_9
REMARK    5  A    between atoms: C_9  and  C_10
REMARK                            x       y       z     vdW  Elec       q    Type
REMARK                         _______ _______ _______ _____ _____    ______ ____
ROOT
ATOM      1  N   UNL     1       6.394   5.363  16.389  0.00  0.00    +0.000 N 
ATOM      2  C   UNL     1       6.452   4.827  17.728  0.00  0.00    +0.000 C 
ATOM      3  C   UNL     1       5.010   5.006  18.220  0.00  0.00    +0.000 C 
ATOM      4  C   UNL     1       4.644   6.350  17.578  0.00  0.00    +0.000 C 
ATOM      5  C   UNL     1       5.372   6.295  16.255  0.00  0.00    +0.000 C 
ATOM      6  O   UNL     1       5.133   6.986  15.280  0.00  0.00    +0.000 OA
ENDROOT
BRANCH   1   7
ATOM      7  C   UNL     1       7.521   5.324  15.466  0.00  0.00    +0.000 C 
BRANCH   7  11
ATOM      8  C   UNL     1       5.556   2.594  11.821  0.00  0.00    +0.000 C 
ATOM      9  C   UNL     1       6.256   3.584  12.655  0.00  0.00    +0.000 A 
ATOM     10  N   UNL     1       6.176   3.805  13.948  0.00  0.00    +0.000 NA
ATOM     11  C   UNL     1       7.132   4.782  14.130  0.00  0.00    +0.000 A 
ATOM     12  N   UNL     1       7.718   5.206  12.999  0.00  0.00    +0.000 NA
ATOM     13  O   UNL     1       7.146   4.397  12.018  0.00  0.00    +0.000 OA
ENDBRANCH   7  11
ENDBRANCH   1   7
BRANCH   3  14
ATOM     14  C   UNL     1       4.128   3.834  17.730  0.00  0.00    +0.000 C 
BRANCH  14  15
ATOM     15  C   UNL     1       3.013   3.438  18.669  0.00  0.00    +0.000 A 
ATOM     16  C   UNL     1       3.167   3.583  20.055  0.00  0.00    +0.000 A 
ATOM     17  C   UNL     1       2.130   3.247  20.926  0.00  0.00    +0.000 A 
ATOM     18  C   UNL     1       0.921   2.776  20.421  0.00  0.00    +0.000 A 
ATOM     19  C   UNL     1       0.754   2.630  19.044  0.00  0.00    +0.000 A 
ATOM     20  C   UNL     1       1.797   2.952  18.172  0.00  0.00    +0.000 A 
ENDBRANCH  14  15
ENDBRANCH   3  14
TORSDOF 4
ENDMDL
