MODEL 1
REMARK VINA RESULT:      -9.0      0.000      0.000
REMARK  Name = 
REMARK  6 active torsions:
REMARK  status: ('A' for Active; 'I' for Inactive)
REMARK    1  A    between atoms: C_1  and  C_2
REMARK    2  A    between atoms: N_5  and  C_6
REMARK    3  A    between atoms: C_6  and  C_7
REMARK    4  A    between atoms: C_17  and  C_18
REMARK    5  A    between atoms: N_20  and  C_21
REMARK    6  A    between atoms: C_21  and  C_22
REMARK                            x       y       z     vdW  Elec       q    Type
REMARK                         _______ _______ _______ _____ _____    ______ ____
ROOT
ATOM      1  C   UNL     1       1.448  11.939  18.601  0.00  0.00    +0.000 C 
ATOM      2  C   UNL     1       0.882  11.338  19.852  0.00  0.00    +0.000 A 
ATOM      3  C   UNL     1       0.190  12.227  20.822  0.00  0.00    +0.000 A 
ATOM      4  O   UNL     1       0.237  13.445  20.655  0.00  0.00    +0.000 OA
ATOM      5  N   UNL     1      -0.439  11.623  21.902  0.00  0.00    +0.000 N 
ATOM      6  C   UNL     1      -0.273  10.275  22.249  0.00  0.00    +0.000 A 
ATOM      7  O   UNL     1      -0.722   9.790  23.289  0.00  0.00    +0.000 OA
ATOM      8  N   UNL     1       0.469   9.529  21.340  0.00  0.00    +0.000 N 
ATOM      9  C   UNL     1       0.798   8.188  21.458  0.00  0.00    +0.000 A 
ATOM     10  C   UNL     1       1.516   7.688  20.440  0.00  0.00    +0.000 A 
ATOM     11  S   UNL     1       1.840   8.873  19.221  0.00  0.00    +0.000 S 
ATOM     12  C   UNL     1       0.994  10.050  20.185  0.00  0.00    +0.000 A 
ENDROOT
BRANCH  10  13
ATOM     13  C   UNL     1       2.023   6.292  20.299  0.00  0.00    +0.000 C 
ATOM     14  O   UNL     1       1.367   5.328  20.674  0.00  0.00    +0.000 OA
ATOM     15  N   UNL     1       3.271   6.204  19.727  0.00  0.00    +0.000 N 
ATOM     16  H   UNL     1       3.726   7.062  19.441  0.00  0.00    +0.000 HD
BRANCH  15  17
ATOM     17  C   UNL     1       3.993   4.974  19.502  0.00  0.00    +0.000 C 
BRANCH  17  18
ATOM     18  C   UNL     1       4.991   5.117  18.374  0.00  0.00    +0.000 A 
ATOM     19  C   UNL     1       6.271   5.646  18.596  0.00  0.00    +0.000 A 
ATOM     20  C   UNL     1       7.217   5.739  17.563  0.00  0.00    +0.000 A 
ATOM     21  C   UNL     1       6.844   5.279  16.297  0.00  0.00    +0.000 A 
ATOM     22  N   UNL     1       7.557   5.229  15.119  0.00  0.00    +0.000 N 
ATOM     23  C   UNL     1       6.786   4.693  14.122  0.00  0.00    +0.000 A 
ATOM     24  C   UNL     1       5.555   4.392  14.658  0.00  0.00    +0.000 A 
ATOM     25  C   UNL     1       5.580   4.753  16.034  0.00  0.00    +0.000 A 
ATOM     26  C   UNL     1       4.645   4.674  17.083  0.00  0.00    +0.000 A 
ATOM     27  H   UNL     1       8.515   5.535  15.014  0.00  0.00    +0.000 HD
ENDBRANCH  17  18
ENDBRANCH  15  17
ENDBRANCH  10  13
BRANCH   5  28
ATOM     28  C   UNL     1      -1.106  12.503  22.857  0.00  0.00    +0.000 C 
BRANCH  28  29
ATOM     29  C   UNL     1      -2.615  12.572  22.722  0.00  0.00    +0.000 A 
ATOM     30  C   UNL     1      -3.431  12.619  23.862  0.00  0.00    +0.000 A 
ATOM     31  C   UNL     1      -4.808  12.839  23.745  0.00  0.00    +0.000 A 
ATOM     32  C   UNL     1      -5.388  13.002  22.489  0.00  0.00    +0.000 A 
ATOM     33  C   UNL     1      -4.595  12.916  21.346  0.00  0.00    +0.000 A 
ATOM     34  C   UNL     1      -3.220  12.694  21.460  0.00  0.00    +0.000 A 
ENDBRANCH  28  29
ENDBRANCH   5  28
TORSDOF 5
ENDMDL
MODEL 2
REMARK VINA RESULT:      -8.6      3.261     11.171
REMARK  Name = 
REMARK  6 active torsions:
REMARK  status: ('A' for Active; 'I' for Inactive)
REMARK    1  A    between atoms: C_1  and  C_2
REMARK    2  A    between atoms: N_5  and  C_6
REMARK    3  A    between atoms: C_6  and  C_7
REMARK    4  A    between atoms: C_17  and  C_18
REMARK    5  A    between atoms: N_20  and  C_21
REMARK    6  A    between atoms: C_21  and  C_22
REMARK                            x       y       z     vdW  Elec       q    Type
REMARK                         _______ _______ _______ _____ _____    ______ ____
ROOT
ATOM      1  C   UNL     1       2.095   3.757  18.138  0.00  0.00    +0.000 C 
ATOM      2  C   UNL     1       3.164   4.698  17.672  0.00  0.00    +0.000 A 
ATOM      3  C   UNL     1       4.459   4.136  17.208  0.00  0.00    +0.000 A 
ATOM      4  O   UNL     1       4.681   2.936  17.366  0.00  0.00    +0.000 OA
ATOM      5  N   UNL     1       5.376   5.020  16.657  0.00  0.00    +0.000 N 
ATOM      6  C   UNL     1       5.250   6.415  16.717  0.00  0.00    +0.000 A 
ATOM      7  O   UNL     1       6.139   7.185  16.353  0.00  0.00    +0.000 OA
ATOM      8  N   UNL     1       4.049   6.866  17.254  0.00  0.00    +0.000 N 
ATOM      9  C   UNL     1       3.685   8.189  17.446  0.00  0.00    +0.000 A 
ATOM     10  C   UNL     1       2.463   8.371  17.972  0.00  0.00    +0.000 A 
ATOM     11  S   UNL     1       1.646   6.874  18.268  0.00  0.00    +0.000 S 
ATOM     12  C   UNL     1       3.051   6.028  17.684  0.00  0.00    +0.000 A 
ENDROOT
BRANCH  10  13
ATOM     13  C   UNL     1       1.811   9.672  18.302  0.00  0.00    +0.000 C 
ATOM     14  O   UNL     1       2.336  10.743  18.026  0.00  0.00    +0.000 OA
ATOM     15  N   UNL     1       0.598   9.546  18.938  0.00  0.00    +0.000 N 
ATOM     16  H   UNL     1       0.246   8.612  19.112  0.00  0.00    +0.000 HD
BRANCH  15  17
ATOM     17  C   UNL     1      -0.221  10.648  19.385  0.00  0.00    +0.000 C 
BRANCH  17  18
ATOM     18  C   UNL     1      -1.495  10.754  18.577  0.00  0.00    +0.000 A 
ATOM     19  C   UNL     1      -1.657  10.050  17.375  0.00  0.00    +0.000 A 
ATOM     20  C   UNL     1      -2.853  10.107  16.643  0.00  0.00    +0.000 A 
ATOM     21  C   UNL     1      -3.891  10.891  17.157  0.00  0.00    +0.000 A 
ATOM     22  N   UNL     1      -5.162  11.118  16.675  0.00  0.00    +0.000 N 
ATOM     23  C   UNL     1      -5.843  11.959  17.515  0.00  0.00    +0.000 A 
ATOM     24  C   UNL     1      -5.004  12.283  18.556  0.00  0.00    +0.000 A 
ATOM     25  C   UNL     1      -3.769  11.611  18.345  0.00  0.00    +0.000 A 
ATOM     26  C   UNL     1      -2.557  11.542  19.060  0.00  0.00    +0.000 A 
ATOM     27  H   UNL     1      -5.536  10.712  15.828  0.00  0.00    +0.000 HD
ENDBRANCH  17  18
ENDBRANCH  15  17
ENDBRANCH  10  13
BRANCH   5  28
ATOM     28  C   UNL     1       6.651   4.463  16.215  0.00  0.00    +0.000 C 
BRANCH  28  29
ATOM     29  C   UNL     1       6.813   4.342  14.712  0.00  0.00    +0.000 A 
ATOM     30  C   UNL     1       5.981   3.489  13.972  0.00  0.00    +0.000 A 
ATOM     31  C   UNL     1       6.020   3.490  12.574  0.00  0.00    +0.000 A 
ATOM     32  C   UNL     1       6.902   4.331  11.899  0.00  0.00    +0.000 A 
ATOM     33  C   UNL     1       7.764   5.153  12.621  0.00  0.00    +0.000 A 
ATOM     34  C   UNL     1       7.727   5.153  14.019  0.00  0.00    +0.000 A 
ENDBRANCH  28  29
ENDBRANCH   5  28
TORSDOF 5
ENDMDL
MODEL 3
REMARK VINA RESULT:      -8.5      2.578      3.983
REMARK  Name = 
REMARK  6 active torsions:
REMARK  status: ('A' for Active; 'I' for Inactive)
REMARK    1  A    between atoms: C_1  and  C_2
REMARK    2  A    between atoms: N_5  and  C_6
REMARK    3  A    between atoms: C_6  and  C_7
REMARK    4  A    between atoms: C_17  and  C_18
REMARK    5  A    between atoms: N_20  and  C_21
REMARK    6  A    between atoms: C_21  and  C_22
REMARK                            x       y       z     vdW  Elec       q    Type
REMARK                         _______ _______ _______ _____ _____    ______ ____
ROOT
ATOM      1  C   UNL     1      -0.417   9.675  23.547  0.00  0.00    +0.000 C 
ATOM      2  C   UNL     1      -0.727  10.528  22.355  0.00  0.00    +0.000 A 
ATOM      3  C   UNL     1      -1.802  11.548  22.465  0.00  0.00    +0.000 A 
ATOM      4  O   UNL     1      -2.513  11.562  23.469  0.00  0.00    +0.000 OA
ATOM      5  N   UNL     1      -1.974  12.411  21.391  0.00  0.00    +0.000 N 
ATOM      6  C   UNL     1      -1.359  12.237  20.143  0.00  0.00    +0.000 A 
ATOM      7  O   UNL     1      -1.632  12.925  19.159  0.00  0.00    +0.000 OA
ATOM      8  N   UNL     1      -0.435  11.198  20.092  0.00  0.00    +0.000 N 
ATOM      9  C   UNL     1       0.289  10.803  18.978  0.00  0.00    +0.000 A 
ATOM     10  C   UNL     1       1.131   9.778  19.183  0.00  0.00    +0.000 A 
ATOM     11  S   UNL     1       1.094   9.216  20.820  0.00  0.00    +0.000 S 
ATOM     12  C   UNL     1      -0.127  10.406  21.168  0.00  0.00    +0.000 A 
ENDROOT
BRANCH  10  13
ATOM     13  C   UNL     1       2.022   9.132  18.177  0.00  0.00    +0.000 C 
ATOM     14  O   UNL     1       2.208   9.625  17.071  0.00  0.00    +0.000 OA
ATOM     15  N   UNL     1       2.591   7.954  18.605  0.00  0.00    +0.000 N 
ATOM     16  H   UNL     1       2.380   7.637  19.543  0.00  0.00    +0.000 HD
BRANCH  15  17
ATOM     17  C   UNL     1       3.470   7.124  17.814  0.00  0.00    +0.000 C 
BRANCH  17  18
ATOM     18  C   UNL     1       3.127   5.659  17.963  0.00  0.00    +0.000 A 
ATOM     19  C   UNL     1       3.815   4.672  17.242  0.00  0.00    +0.000 A 
ATOM     20  C   UNL     1       3.533   3.307  17.409  0.00  0.00    +0.000 A 
ATOM     21  C   UNL     1       2.541   2.957  18.331  0.00  0.00    +0.000 A 
ATOM     22  N   UNL     1       2.073   1.719  18.711  0.00  0.00    +0.000 N 
ATOM     23  C   UNL     1       1.089   1.855  19.655  0.00  0.00    +0.000 A 
ATOM     24  C   UNL     1       0.916   3.199  19.890  0.00  0.00    +0.000 A 
ATOM     25  C   UNL     1       1.831   3.907  19.063  0.00  0.00    +0.000 A 
ATOM     26  C   UNL     1       2.127   5.271  18.875  0.00  0.00    +0.000 A 
ATOM     27  H   UNL     1       2.416   0.839  18.350  0.00  0.00    +0.000 HD
ENDBRANCH  17  18
ENDBRANCH  15  17
ENDBRANCH  10  13
BRANCH   5  28
ATOM     28  C   UNL     1      -3.040  13.402  21.501  0.00  0.00    +0.000 C 
BRANCH  28  29
ATOM     29  C   UNL     1      -4.445  12.854  21.348  0.00  0.00    +0.000 A 
ATOM     30  C   UNL     1      -5.387  13.009  22.377  0.00  0.00    +0.000 A 
ATOM     31  C   UNL     1      -6.723  12.646  22.182  0.00  0.00    +0.000 A 
ATOM     32  C   UNL     1      -7.133  12.111  20.963  0.00  0.00    +0.000 A 
ATOM     33  C   UNL     1      -6.201  11.912  19.946  0.00  0.00    +0.000 A 
ATOM     34  C   UNL     1      -4.864  12.272  20.139  0.00  0.00    +0.000 A 
ENDBRANCH  28  29
ENDBRANCH   5  28
TORSDOF 5
ENDMDL
MODEL 4
REMARK VINA RESULT:      -8.4      2.969      4.364
REMARK  Name = 
REMARK  6 active torsions:
REMARK  status: ('A' for Active; 'I' for Inactive)
REMARK    1  A    between atoms: C_1  and  C_2
REMARK    2  A    between atoms: N_5  and  C_6
REMARK    3  A    between atoms: C_6  and  C_7
REMARK    4  A    between atoms: C_17  and  C_18
REMARK    5  A    between atoms: N_20  and  C_21
REMARK    6  A    between atoms: C_21  and  C_22
REMARK                            x       y       z     vdW  Elec       q    Type
REMARK                         _______ _______ _______ _____ _____    ______ ____
ROOT
ATOM      1  C   UNL     1      -4.097  10.374  17.314  0.00  0.00    +0.000 C 
ATOM      2  C   UNL     1      -3.263  11.089  18.334  0.00  0.00    +0.000 A 
ATOM      3  C   UNL     1      -3.912  12.106  19.201  0.00  0.00    +0.000 A 
ATOM      4  O   UNL     1      -5.068  12.449  18.958  0.00  0.00    +0.000 OA
ATOM      5  N   UNL     1      -3.148  12.652  20.223  0.00  0.00    +0.000 N 
ATOM      6  C   UNL     1      -1.763  12.473  20.344  0.00  0.00    +0.000 A 
ATOM      7  O   UNL     1      -1.078  13.078  21.170  0.00  0.00    +0.000 OA
ATOM      8  N   UNL     1      -1.212  11.579  19.433  0.00  0.00    +0.000 N 
ATOM      9  C   UNL     1       0.129  11.244  19.324  0.00  0.00    +0.000 A 
ATOM     10  C   UNL     1       0.413  10.343  18.370  0.00  0.00    +0.000 A 
ATOM     11  S   UNL     1      -1.000   9.822  17.518  0.00  0.00    +0.000 S 
ATOM     12  C   UNL     1      -1.950  10.906  18.493  0.00  0.00    +0.000 A 
ENDROOT
BRANCH  10  13
ATOM     13  C   UNL     1       1.758   9.807  18.014  0.00  0.00    +0.000 C 
ATOM     14  O   UNL     1       2.655  10.535  17.606  0.00  0.00    +0.000 OA
ATOM     15  N   UNL     1       1.881   8.446  18.178  0.00  0.00    +0.000 N 
ATOM     16  H   UNL     1       1.082   7.935  18.531  0.00  0.00    +0.000 HD
BRANCH  15  17
ATOM     17  C   UNL     1       3.069   7.680  17.881  0.00  0.00    +0.000 C 
BRANCH  17  18
ATOM     18  C   UNL     1       2.902   6.229  18.269  0.00  0.00    +0.000 A 
ATOM     19  C   UNL     1       3.503   5.201  17.527  0.00  0.00    +0.000 A 
ATOM     20  C   UNL     1       3.389   3.855  17.908  0.00  0.00    +0.000 A 
ATOM     21  C   UNL     1       2.657   3.567  19.064  0.00  0.00    +0.000 A 
ATOM     22  N   UNL     1       2.397   2.362  19.679  0.00  0.00    +0.000 N 
ATOM     23  C   UNL     1       1.633   2.558  20.799  0.00  0.00    +0.000 A 
ATOM     24  C   UNL     1       1.394   3.908  20.914  0.00  0.00    +0.000 A 
ATOM     25  C   UNL     1       2.039   4.557  19.826  0.00  0.00    +0.000 A 
ATOM     26  C   UNL     1       2.162   5.901  19.422  0.00  0.00    +0.000 A 
ATOM     27  H   UNL     1       2.732   1.466  19.352  0.00  0.00    +0.000 HD
ENDBRANCH  17  18
ENDBRANCH  15  17
ENDBRANCH  10  13
BRANCH   5  28
ATOM     28  C   UNL     1      -3.788  13.660  21.063  0.00  0.00    +0.000 C 
BRANCH  28  29
ATOM     29  C   UNL     1      -4.458  13.123  22.314  0.00  0.00    +0.000 A 
ATOM     30  C   UNL     1      -3.695  12.773  23.437  0.00  0.00    +0.000 A 
ATOM     31  C   UNL     1      -4.316  12.427  24.642  0.00  0.00    +0.000 A 
ATOM     32  C   UNL     1      -5.705  12.412  24.735  0.00  0.00    +0.000 A 
ATOM     33  C   UNL     1      -6.477  12.717  23.615  0.00  0.00    +0.000 A 
ATOM     34  C   UNL     1      -5.859  13.062  22.410  0.00  0.00    +0.000 A 
ENDBRANCH  28  29
ENDBRANCH   5  28
TORSDOF 5
ENDMDL
MODEL 5
REMARK VINA RESULT:      -8.4      2.834     10.501
REMARK  Name = 
REMARK  6 active torsions:
REMARK  status: ('A' for Active; 'I' for Inactive)
REMARK    1  A    between atoms: C_1  and  C_2
REMARK    2  A    between atoms: N_5  and  C_6
REMARK    3  A    between atoms: C_6  and  C_7
REMARK    4  A    between atoms: C_17  and  C_18
REMARK    5  A    between atoms: N_20  and  C_21
REMARK    6  A    between atoms: C_21  and  C_22
REMARK                            x       y       z     vdW  Elec       q    Type
REMARK                         _______ _______ _______ _____ _____    ______ ____
ROOT
ATOM      1  C   UNL     1       2.608   2.916  20.790  0.00  0.00    +0.000 C 
ATOM      2  C   UNL     1       3.276   3.997  19.996  0.00  0.00    +0.000 A 
ATOM      3  C   UNL     1       4.543   3.684  19.286  0.00  0.00    +0.000 A 
ATOM      4  O   UNL     1       5.094   2.604  19.494  0.00  0.00    +0.000 OA
ATOM      5  N   UNL     1       5.065   4.664  18.452  0.00  0.00    +0.000 N 
ATOM      6  C   UNL     1       4.600   5.986  18.414  0.00  0.00    +0.000 A 
ATOM      7  O   UNL     1       5.164   6.877  17.777  0.00  0.00    +0.000 OA
ATOM      8  N   UNL     1       3.465   6.224  19.181  0.00  0.00    +0.000 N 
ATOM      9  C   UNL     1       2.823   7.442  19.335  0.00  0.00    +0.000 A 
ATOM     10  C   UNL     1       1.735   7.415  20.121  0.00  0.00    +0.000 A 
ATOM     11  S   UNL     1       1.412   5.831  20.740  0.00  0.00    +0.000 S 
ATOM     12  C   UNL     1       2.830   5.253  19.913  0.00  0.00    +0.000 A 
ENDROOT
BRANCH  10  13
ATOM     13  C   UNL     1       0.856   8.566  20.479  0.00  0.00    +0.000 C 
ATOM     14  O   UNL     1       0.160   8.555  21.487  0.00  0.00    +0.000 OA
ATOM     15  N   UNL     1       0.901   9.607  19.580  0.00  0.00    +0.000 N 
ATOM     16  H   UNL     1       1.518   9.520  18.782  0.00  0.00    +0.000 HD
BRANCH  15  17
ATOM     17  C   UNL     1       0.129  10.823  19.682  0.00  0.00    +0.000 C 
BRANCH  17  18
ATOM     18  C   UNL     1      -1.065  10.799  18.756  0.00  0.00    +0.000 A 
ATOM     19  C   UNL     1      -1.065  10.027  17.584  0.00  0.00    +0.000 A 
ATOM     20  C   UNL     1      -2.187   9.964  16.744  0.00  0.00    +0.000 A 
ATOM     21  C   UNL     1      -3.319  10.696  17.115  0.00  0.00    +0.000 A 
ATOM     22  N   UNL     1      -4.549  10.808  16.506  0.00  0.00    +0.000 N 
ATOM     23  C   UNL     1      -5.361  11.639  17.232  0.00  0.00    +0.000 A 
ATOM     24  C   UNL     1      -4.650  12.073  18.326  0.00  0.00    +0.000 A 
ATOM     25  C   UNL     1      -3.358  11.480  18.267  0.00  0.00    +0.000 A 
ATOM     26  C   UNL     1      -2.219  11.532  19.094  0.00  0.00    +0.000 A 
ATOM     27  H   UNL     1      -4.812  10.336  15.652  0.00  0.00    +0.000 HD
ENDBRANCH  17  18
ENDBRANCH  15  17
ENDBRANCH  10  13
BRANCH   5  28
ATOM     28  C   UNL     1       6.317   4.354  17.768  0.00  0.00    +0.000 C 
BRANCH  28  29
ATOM     29  C   UNL     1       6.252   4.408  16.254  0.00  0.00    +0.000 A 
ATOM     30  C   UNL     1       7.287   5.004  15.517  0.00  0.00    +0.000 A 
ATOM     31  C   UNL     1       7.309   4.918  14.121  0.00  0.00    +0.000 A 
ATOM     32  C   UNL     1       6.292   4.250  13.443  0.00  0.00    +0.000 A 
ATOM     33  C   UNL     1       5.236   3.690  14.159  0.00  0.00    +0.000 A 
ATOM     34  C   UNL     1       5.211   3.775  15.554  0.00  0.00    +0.000 A 
ENDBRANCH  28  29
ENDBRANCH   5  28
TORSDOF 5
ENDMDL
MODEL 6
REMARK VINA RESULT:      -8.4      3.197     10.954
REMARK  Name = 
REMARK  6 active torsions:
REMARK  status: ('A' for Active; 'I' for Inactive)
REMARK    1  A    between atoms: C_1  and  C_2
REMARK    2  A    between atoms: N_5  and  C_6
REMARK    3  A    between atoms: C_6  and  C_7
REMARK    4  A    between atoms: C_17  and  C_18
REMARK    5  A    between atoms: N_20  and  C_21
REMARK    6  A    between atoms: C_21  and  C_22
REMARK                            x       y       z     vdW  Elec       q    Type
REMARK                         _______ _______ _______ _____ _____    ______ ____
ROOT
ATOM      1  C   UNL     1       3.387   4.153  19.946  0.00  0.00    +0.000 C 
ATOM      2  C   UNL     1       3.972   5.004  18.860  0.00  0.00    +0.000 A 
ATOM      3  C   UNL     1       5.142   4.490  18.102  0.00  0.00    +0.000 A 
ATOM      4  O   UNL     1       5.698   3.461  18.483  0.00  0.00    +0.000 OA
ATOM      5  N   UNL     1       5.576   5.239  17.016  0.00  0.00    +0.000 N 
ATOM      6  C   UNL     1       5.129   6.538  16.735  0.00  0.00    +0.000 A 
ATOM      7  O   UNL     1       5.626   7.242  15.855  0.00  0.00    +0.000 OA
ATOM      8  N   UNL     1       4.096   6.986  17.552  0.00  0.00    +0.000 N 
ATOM      9  C   UNL     1       3.494   8.233  17.499  0.00  0.00    +0.000 A 
ATOM     10  C   UNL     1       2.507   8.425  18.388  0.00  0.00    +0.000 A 
ATOM     11  S   UNL     1       2.236   7.031  19.378  0.00  0.00    +0.000 S 
ATOM     12  C   UNL     1       3.538   6.227  18.549  0.00  0.00    +0.000 A 
ENDROOT
BRANCH  10  13
ATOM     13  C   UNL     1       1.693   9.661  18.574  0.00  0.00    +0.000 C 
ATOM     14  O   UNL     1       1.998  10.719  18.039  0.00  0.00    +0.000 OA
ATOM     15  N   UNL     1       0.601   9.495  19.394  0.00  0.00    +0.000 N 
ATOM     16  H   UNL     1       0.431   8.575  19.781  0.00  0.00    +0.000 HD
BRANCH  15  17
ATOM     17  C   UNL     1      -0.330  10.539  19.755  0.00  0.00    +0.000 C 
BRANCH  17  18
ATOM     18  C   UNL     1      -1.467  10.633  18.763  0.00  0.00    +0.000 A 
ATOM     19  C   UNL     1      -1.488   9.847  17.601  0.00  0.00    +0.000 A 
ATOM     20  C   UNL     1      -2.563   9.895  16.699  0.00  0.00    +0.000 A 
ATOM     21  C   UNL     1      -3.624  10.754  17.000  0.00  0.00    +0.000 A 
ATOM     22  N   UNL     1      -4.800  10.992  16.322  0.00  0.00    +0.000 N 
ATOM     23  C   UNL     1      -5.553  11.919  16.992  0.00  0.00    +0.000 A 
ATOM     24  C   UNL     1      -4.858  12.289  18.121  0.00  0.00    +0.000 A 
ATOM     25  C   UNL     1      -3.639  11.556  18.140  0.00  0.00    +0.000 A 
ATOM     26  C   UNL     1      -2.548  11.495  19.028  0.00  0.00    +0.000 A 
ATOM     27  H   UNL     1      -5.067  10.538  15.459  0.00  0.00    +0.000 HD
ENDBRANCH  17  18
ENDBRANCH  15  17
ENDBRANCH  10  13
BRANCH   5  28
ATOM     28  C   UNL     1       6.733   4.736  16.283  0.00  0.00    +0.000 C 
BRANCH  28  29
ATOM     29  C   UNL     1       6.497   4.479  14.807  0.00  0.00    +0.000 A 
ATOM     30  C   UNL     1       7.442   4.886  13.853  0.00  0.00    +0.000 A 
ATOM     31  C   UNL     1       7.306   4.515  12.511  0.00  0.00    +0.000 A 
ATOM     32  C   UNL     1       6.218   3.746  12.103  0.00  0.00    +0.000 A 
ATOM     33  C   UNL     1       5.250   3.370  13.032  0.00  0.00    +0.000 A 
ATOM     34  C   UNL     1       5.383   3.741  14.374  0.00  0.00    +0.000 A 
ENDBRANCH  28  29
ENDBRANCH   5  28
TORSDOF 5
ENDMDL
MODEL 7
REMARK VINA RESULT:      -8.3      1.659      2.441
REMARK  Name = 
REMARK  6 active torsions:
REMARK  status: ('A' for Active; 'I' for Inactive)
REMARK    1  A    between atoms: C_1  and  C_2
REMARK    2  A    between atoms: N_5  and  C_6
REMARK    3  A    between atoms: C_6  and  C_7
REMARK    4  A    between atoms: C_17  and  C_18
REMARK    5  A    between atoms: N_20  and  C_21
REMARK    6  A    between atoms: C_21  and  C_22
REMARK                            x       y       z     vdW  Elec       q    Type
REMARK                         _______ _______ _______ _____ _____    ______ ____
ROOT
ATOM      1  C   UNL     1       0.051   9.373  23.466  0.00  0.00    +0.000 C 
ATOM      2  C   UNL     1       0.100   9.841  22.043  0.00  0.00    +0.000 A 
ATOM      3  C   UNL     1      -0.626  11.084  21.675  0.00  0.00    +0.000 A 
ATOM      4  O   UNL     1      -1.374  11.608  22.499  0.00  0.00    +0.000 OA
ATOM      5  N   UNL     1      -0.452  11.564  20.383  0.00  0.00    +0.000 N 
ATOM      6  C   UNL     1       0.175  10.841  19.359  0.00  0.00    +0.000 A 
ATOM      7  O   UNL     1       0.195  11.218  18.187  0.00  0.00    +0.000 OA
ATOM      8  N   UNL     1       0.747   9.640  19.764  0.00  0.00    +0.000 N 
ATOM      9  C   UNL     1       1.402   8.730  18.948  0.00  0.00    +0.000 A 
ATOM     10  C   UNL     1       1.881   7.645  19.578  0.00  0.00    +0.000 A 
ATOM     11  S   UNL     1       1.555   7.677  21.277  0.00  0.00    +0.000 S 
ATOM     12  C   UNL     1       0.723   9.189  21.059  0.00  0.00    +0.000 A 
ENDROOT
BRANCH  10  13
ATOM     13  C   UNL     1       2.612   6.499  18.963  0.00  0.00    +0.000 C 
ATOM     14  O   UNL     1       2.398   6.143  17.811  0.00  0.00    +0.000 OA
ATOM     15  N   UNL     1       3.518   5.896  19.804  0.00  0.00    +0.000 N 
ATOM     16  H   UNL     1       3.626   6.274  20.737  0.00  0.00    +0.000 HD
BRANCH  15  17
ATOM     17  C   UNL     1       4.332   4.753  19.462  0.00  0.00    +0.000 C 
BRANCH  17  18
ATOM     18  C   UNL     1       5.215   5.042  18.269  0.00  0.00    +0.000 A 
ATOM     19  C   UNL     1       6.288   5.941  18.356  0.00  0.00    +0.000 A 
ATOM     20  C   UNL     1       7.140   6.179  17.266  0.00  0.00    +0.000 A 
ATOM     21  C   UNL     1       6.887   5.481  16.080  0.00  0.00    +0.000 A 
ATOM     22  N   UNL     1       7.555   5.498  14.875  0.00  0.00    +0.000 N 
ATOM     23  C   UNL     1       6.951   4.645  13.989  0.00  0.00    +0.000 A 
ATOM     24  C   UNL     1       5.877   4.068  14.626  0.00  0.00    +0.000 A 
ATOM     25  C   UNL     1       5.828   4.584  15.950  0.00  0.00    +0.000 A 
ATOM     26  C   UNL     1       4.984   4.365  17.056  0.00  0.00    +0.000 A 
ATOM     27  H   UNL     1       8.376   6.053  14.681  0.00  0.00    +0.000 HD
ENDBRANCH  17  18
ENDBRANCH  15  17
ENDBRANCH  10  13
BRANCH   5  28
ATOM     28  C   UNL     1      -1.178  12.778  20.024  0.00  0.00    +0.000 C 
BRANCH  28  29
ATOM     29  C   UNL     1      -2.671  12.599  19.825  0.00  0.00    +0.000 A 
ATOM     30  C   UNL     1      -3.585  13.291  20.633  0.00  0.00    +0.000 A 
ATOM     31  C   UNL     1      -4.955  13.251  20.354  0.00  0.00    +0.000 A 
ATOM     32  C   UNL     1      -5.430  12.510  19.274  0.00  0.00    +0.000 A 
ATOM     33  C   UNL     1      -4.537  11.785  18.488  0.00  0.00    +0.000 A 
ATOM     34  C   UNL     1      -3.167  11.821  18.765  0.00  0.00    +0.000 A 
ENDBRANCH  28  29
ENDBRANCH   5  28
TORSDOF 5
ENDMDL
MODEL 8
REMARK VINA RESULT:      -8.3      2.123      4.104
REMARK  Name = 
REMARK  6 active torsions:
REMARK  status: ('A' for Active; 'I' for Inactive)
REMARK    1  A    between atoms: C_1  and  C_2
REMARK    2  A    between atoms: N_5  and  C_6
REMARK    3  A    between atoms: C_6  and  C_7
REMARK    4  A    between atoms: C_17  and  C_18
REMARK    5  A    between atoms: N_20  and  C_21
REMARK    6  A    between atoms: C_21  and  C_22
REMARK                            x       y       z     vdW  Elec       q    Type
REMARK                         _______ _______ _______ _____ _____    ______ ____
ROOT
ATOM      1  C   UNL     1      -1.050  11.102  22.549  0.00  0.00    +0.000 C 
ATOM      2  C   UNL     1      -0.240  11.092  21.289  0.00  0.00    +0.000 A 
ATOM      3  C   UNL     1      -0.235  12.307  20.433  0.00  0.00    +0.000 A 
ATOM      4  O   UNL     1      -1.012  13.225  20.692  0.00  0.00    +0.000 OA
ATOM      5  N   UNL     1       0.629  12.316  19.346  0.00  0.00    +0.000 N 
ATOM      6  C   UNL     1       1.317  11.185  18.885  0.00  0.00    +0.000 A 
ATOM      7  O   UNL     1       1.965  11.175  17.837  0.00  0.00    +0.000 OA
ATOM      8  N   UNL     1       1.184  10.058  19.689  0.00  0.00    +0.000 N 
ATOM      9  C   UNL     1       1.739   8.812  19.447  0.00  0.00    +0.000 A 
ATOM     10  C   UNL     1       1.477   7.883  20.380  0.00  0.00    +0.000 A 
ATOM     11  S   UNL     1       0.502   8.505  21.668  0.00  0.00    +0.000 S 
ATOM     12  C   UNL     1       0.454  10.039  20.850  0.00  0.00    +0.000 A 
ENDROOT
BRANCH  10  13
ATOM     13  C   UNL     1       1.925   6.460  20.383  0.00  0.00    +0.000 C 
ATOM     14  O   UNL     1       1.278   5.582  20.940  0.00  0.00    +0.000 OA
ATOM     15  N   UNL     1       3.110   6.244  19.719  0.00  0.00    +0.000 N 
ATOM     16  H   UNL     1       3.563   7.038  19.282  0.00  0.00    +0.000 HD
BRANCH  15  17
ATOM     17  C   UNL     1       3.770   4.965  19.597  0.00  0.00    +0.000 C 
BRANCH  17  18
ATOM     18  C   UNL     1       4.859   5.003  18.549  0.00  0.00    +0.000 A 
ATOM     19  C   UNL     1       6.200   5.220  18.898  0.00  0.00    +0.000 A 
ATOM     20  C   UNL     1       7.222   5.211  17.936  0.00  0.00    +0.000 A 
ATOM     21  C   UNL     1       6.860   4.969  16.607  0.00  0.00    +0.000 A 
ATOM     22  N   UNL     1       7.636   4.885  15.472  0.00  0.00    +0.000 N 
ATOM     23  C   UNL     1       6.850   4.628  14.380  0.00  0.00    +0.000 A 
ATOM     24  C   UNL     1       5.546   4.546  14.811  0.00  0.00    +0.000 A 
ATOM     25  C   UNL     1       5.539   4.755  16.218  0.00  0.00    +0.000 A 
ATOM     26  C   UNL     1       4.529   4.774  17.200  0.00  0.00    +0.000 A 
ATOM     27  H   UNL     1       8.642   4.988  15.454  0.00  0.00    +0.000 HD
ENDBRANCH  17  18
ENDBRANCH  15  17
ENDBRANCH  10  13
BRANCH   5  28
ATOM     28  C   UNL     1       0.620  13.508  18.502  0.00  0.00    +0.000 C 
BRANCH  28  29
ATOM     29  C   UNL     1       1.699  14.526  18.817  0.00  0.00    +0.000 A 
ATOM     30  C   UNL     1       1.451  15.572  19.718  0.00  0.00    +0.000 A 
ATOM     31  C   UNL     1       2.485  16.419  20.130  0.00  0.00    +0.000 A 
ATOM     32  C   UNL     1       3.775  16.242  19.637  0.00  0.00    +0.000 A 
ATOM     33  C   UNL     1       4.028  15.233  18.709  0.00  0.00    +0.000 A 
ATOM     34  C   UNL     1       2.996  14.386  18.294  0.00  0.00    +0.000 A 
ENDBRANCH  28  29
ENDBRANCH   5  28
TORSDOF 5
ENDMDL
MODEL 9
REMARK VINA RESULT:      -8.2      3.208      4.470
REMARK  Name = 
REMARK  6 active torsions:
REMARK  status: ('A' for Active; 'I' for Inactive)
REMARK    1  A    between atoms: C_1  and  C_2
REMARK    2  A    between atoms: N_5  and  C_6
REMARK    3  A    between atoms: C_6  and  C_7
REMARK    4  A    between atoms: C_17  and  C_18
REMARK    5  A    between atoms: N_20  and  C_21
REMARK    6  A    between atoms: C_21  and  C_22
REMARK                            x       y       z     vdW  Elec       q    Type
REMARK                         _______ _______ _______ _____ _____    ______ ____
ROOT
ATOM      1  C   UNL     1      -4.084  10.897  17.816  0.00  0.00    +0.000 C 
ATOM      2  C   UNL     1      -3.111  11.502  18.782  0.00  0.00    +0.000 A 
ATOM      3  C   UNL     1      -3.578  12.588  19.682  0.00  0.00    +0.000 A 
ATOM      4  O   UNL     1      -4.696  13.071  19.506  0.00  0.00    +0.000 OA
ATOM      5  N   UNL     1      -2.694  13.034  20.655  0.00  0.00    +0.000 N 
ATOM      6  C   UNL     1      -1.336  12.687  20.694  0.00  0.00    +0.000 A 
ATOM      7  O   UNL     1      -0.535  13.202  21.475  0.00  0.00    +0.000 OA
ATOM      8  N   UNL     1      -0.953  11.735  19.756  0.00  0.00    +0.000 N 
ATOM      9  C   UNL     1       0.328  11.240  19.569  0.00  0.00    +0.000 A 
ATOM     10  C   UNL     1       0.443  10.314  18.604  0.00  0.00    +0.000 A 
ATOM     11  S   UNL     1      -1.071   9.971  17.840  0.00  0.00    +0.000 S 
ATOM     12  C   UNL     1      -1.822  11.160  18.864  0.00  0.00    +0.000 A 
ENDROOT
BRANCH  10  13
ATOM     13  C   UNL     1       1.689   9.618  18.171  0.00  0.00    +0.000 C 
ATOM     14  O   UNL     1       2.590  10.212  17.590  0.00  0.00    +0.000 OA
ATOM     15  N   UNL     1       1.718   8.277  18.477  0.00  0.00    +0.000 N 
ATOM     16  H   UNL     1       0.926   7.883  18.969  0.00  0.00    +0.000 HD
BRANCH  15  17
ATOM     17  C   UNL     1       2.797   7.375  18.145  0.00  0.00    +0.000 C 
BRANCH  17  18
ATOM     18  C   UNL     1       2.495   5.964  18.595  0.00  0.00    +0.000 A 
ATOM     19  C   UNL     1       2.287   4.931  17.669  0.00  0.00    +0.000 A 
ATOM     20  C   UNL     1       2.052   3.610  18.080  0.00  0.00    +0.000 A 
ATOM     21  C   UNL     1       2.036   3.350  19.454  0.00  0.00    +0.000 A 
ATOM     22  N   UNL     1       1.852   2.168  20.137  0.00  0.00    +0.000 N 
ATOM     23  C   UNL     1       1.919   2.387  21.487  0.00  0.00    +0.000 A 
ATOM     24  C   UNL     1       2.151   3.729  21.684  0.00  0.00    +0.000 A 
ATOM     25  C   UNL     1       2.231   4.348  20.407  0.00  0.00    +0.000 A 
ATOM     26  C   UNL     1       2.461   5.668  19.972  0.00  0.00    +0.000 A 
ATOM     27  H   UNL     1       1.698   1.270  19.700  0.00  0.00    +0.000 HD
ENDBRANCH  17  18
ENDBRANCH  15  17
ENDBRANCH  10  13
BRANCH   5  28
ATOM     28  C   UNL     1      -3.155  14.110  21.527  0.00  0.00    +0.000 C 
BRANCH  28  29
ATOM     29  C   UNL     1      -4.045  13.671  22.674  0.00  0.00    +0.000 A 
ATOM     30  C   UNL     1      -5.386  14.078  22.732  0.00  0.00    +0.000 A 
ATOM     31  C   UNL     1      -6.250  13.553  23.698  0.00  0.00    +0.000 A 
ATOM     32  C   UNL     1      -5.783  12.625  24.626  0.00  0.00    +0.000 A 
ATOM     33  C   UNL     1      -4.443  12.242  24.606  0.00  0.00    +0.000 A 
ATOM     34  C   UNL     1      -3.577  12.767  23.643  0.00  0.00    +0.000 A 
ENDBRANCH  28  29
ENDBRANCH   5  28
TORSDOF 5
ENDMDL
