MODEL 1
REMARK VINA RESULT:      -8.4      0.000      0.000
REMARK  Name = 
REMARK  5 active torsions:
REMARK  status: ('A' for Active; 'I' for Inactive)
REMARK    1  A    between atoms: C_1  and  O_2
REMARK    2  A    between atoms: O_2  and  C_3
REMARK    3  A    between atoms: C_9  and  N_10
REMARK    4  A    between atoms: C_11  and  C_13
REMARK    5  A    between atoms: C_13  and  C_14
REMARK                            x       y       z     vdW  Elec       q    Type
REMARK                         _______ _______ _______ _____ _____    ______ ____
ROOT
ATOM      1  C   UNL     1       2.511   3.872  20.349  0.00  0.00    +0.000 A 
ATOM      2  O   UNL     1       2.842   2.638  19.742  0.00  0.00    +0.000 OA
ATOM      3  C   UNL     1       3.399   2.544  18.505  0.00  0.00    +0.000 A 
ATOM      4  O   UNL     1       3.641   1.462  17.991  0.00  0.00    +0.000 OA
ATOM      5  C   UNL     1       3.746   3.824  17.842  0.00  0.00    +0.000 A 
ATOM      6  C   UNL     1       4.404   3.771  16.603  0.00  0.00    +0.000 A 
ATOM      7  C   UNL     1       4.822   4.934  15.959  0.00  0.00    +0.000 A 
ATOM      8  C   UNL     1       4.594   6.160  16.588  0.00  0.00    +0.000 A 
ATOM      9  C   UNL     1       3.900   6.219  17.808  0.00  0.00    +0.000 A 
ATOM     10  C   UNL     1       3.464   5.049  18.453  0.00  0.00    +0.000 A 
ATOM     11  C   UNL     1       2.758   5.044  19.741  0.00  0.00    +0.000 A 
ATOM     12 CL   UNL     1       2.291   6.541  20.472  0.00  0.00    +0.000 Cl
ENDROOT
BRANCH   7  13
ATOM     13  N   UNL     1       5.476   4.922  14.706  0.00  0.00    +0.000 N 
ATOM     14  C   UNL     1       6.850   4.866  14.524  0.00  0.00    +0.000 C 
ATOM     15  O   UNL     1       7.689   4.774  15.422  0.00  0.00    +0.000 OA
ATOM     16  H   UNL     1       4.896   4.807  13.882  0.00  0.00    +0.000 HD
BRANCH  14  17
ATOM     17  C   UNL     1       7.302   4.885  13.076  0.00  0.00    +0.000 C 
BRANCH  17  18
ATOM     18  C   UNL     1       6.810   3.703  12.281  0.00  0.00    +0.000 A 
ATOM     19  C   UNL     1       7.718   2.813  11.696  0.00  0.00    +0.000 A 
ATOM     20  C   UNL     1       7.264   1.683  11.012  0.00  0.00    +0.000 A 
ATOM     21  C   UNL     1       5.899   1.433  10.901  0.00  0.00    +0.000 A 
ATOM     22  C   UNL     1       4.983   2.313  11.471  0.00  0.00    +0.000 A 
ATOM     23  C   UNL     1       5.434   3.443  12.158  0.00  0.00    +0.000 A 
ENDBRANCH  17  18
ENDBRANCH  14  17
ENDBRANCH   7  13
BRANCH   1  25
ATOM     24  C   UNL     1       1.464   2.541  21.957  0.00  0.00    +0.000 C 
ATOM     25  O   UNL     1       1.913   3.846  21.600  0.00  0.00    +0.000 OA
ENDBRANCH   1  25
TORSDOF 4
ENDMDL
MODEL 2
REMARK VINA RESULT:      -7.9      4.349      6.186
REMARK  Name = 
REMARK  5 active torsions:
REMARK  status: ('A' for Active; 'I' for Inactive)
REMARK    1  A    between atoms: C_1  and  O_2
REMARK    2  A    between atoms: O_2  and  C_3
REMARK    3  A    between atoms: C_9  and  N_10
REMARK    4  A    between atoms: C_11  and  C_13
REMARK    5  A    between atoms: C_13  and  C_14
REMARK                            x       y       z     vdW  Elec       q    Type
REMARK                         _______ _______ _______ _____ _____    ______ ____
ROOT
ATOM      1  C   UNL     1       0.209  10.730  20.489  0.00  0.00    +0.000 A 
ATOM      2  O   UNL     1       0.736  10.914  19.189  0.00  0.00    +0.000 OA
ATOM      3  C   UNL     1       1.500   9.981  18.558  0.00  0.00    +0.000 A 
ATOM      4  O   UNL     1       1.972  10.184  17.449  0.00  0.00    +0.000 OA
ATOM      5  C   UNL     1       1.679   8.691  19.266  0.00  0.00    +0.000 A 
ATOM      6  C   UNL     1       2.385   7.670  18.610  0.00  0.00    +0.000 A 
ATOM      7  C   UNL     1       2.530   6.409  19.188  0.00  0.00    +0.000 A 
ATOM      8  C   UNL     1       1.932   6.176  20.429  0.00  0.00    +0.000 A 
ATOM      9  C   UNL     1       1.259   7.207  21.104  0.00  0.00    +0.000 A 
ATOM     10  C   UNL     1       1.124   8.483  20.531  0.00  0.00    +0.000 A 
ATOM     11  C   UNL     1       0.410   9.594  21.175  0.00  0.00    +0.000 A 
ATOM     12 CL   UNL     1      -0.190   9.411  22.788  0.00  0.00    +0.000 Cl
ENDROOT
BRANCH   7  13
ATOM     13  N   UNL     1       3.243   5.360  18.566  0.00  0.00    +0.000 N 
ATOM     14  C   UNL     1       2.678   4.373  17.772  0.00  0.00    +0.000 C 
ATOM     15  O   UNL     1       1.489   4.296  17.461  0.00  0.00    +0.000 OA
ATOM     16  H   UNL     1       4.256   5.412  18.589  0.00  0.00    +0.000 HD
BRANCH  14  17
ATOM     17  C   UNL     1       3.660   3.347  17.237  0.00  0.00    +0.000 C 
BRANCH  17  18
ATOM     18  C   UNL     1       4.915   3.960  16.671  0.00  0.00    +0.000 A 
ATOM     19  C   UNL     1       6.037   4.159  17.483  0.00  0.00    +0.000 A 
ATOM     20  C   UNL     1       7.222   4.670  16.946  0.00  0.00    +0.000 A 
ATOM     21  C   UNL     1       7.295   4.992  15.594  0.00  0.00    +0.000 A 
ATOM     22  C   UNL     1       6.184   4.807  14.774  0.00  0.00    +0.000 A 
ATOM     23  C   UNL     1       5.000   4.294  15.308  0.00  0.00    +0.000 A 
ENDBRANCH  17  18
ENDBRANCH  14  17
ENDBRANCH   7  13
BRANCH   1  25
ATOM     24  C   UNL     1      -1.333  12.436  20.085  0.00  0.00    +0.000 C 
ATOM     25  O   UNL     1      -0.526  11.765  21.048  0.00  0.00    +0.000 OA
ENDBRANCH   1  25
TORSDOF 4
ENDMDL
MODEL 3
REMARK VINA RESULT:      -7.9      5.333      7.509
REMARK  Name = 
REMARK  5 active torsions:
REMARK  status: ('A' for Active; 'I' for Inactive)
REMARK    1  A    between atoms: C_1  and  O_2
REMARK    2  A    between atoms: O_2  and  C_3
REMARK    3  A    between atoms: C_9  and  N_10
REMARK    4  A    between atoms: C_11  and  C_13
REMARK    5  A    between atoms: C_13  and  C_14
REMARK                            x       y       z     vdW  Elec       q    Type
REMARK                         _______ _______ _______ _____ _____    ______ ____
ROOT
ATOM      1  C   UNL     1      -0.828  11.580  21.749  0.00  0.00    +0.000 A 
ATOM      2  O   UNL     1       0.112  10.868  22.530  0.00  0.00    +0.000 OA
ATOM      3  C   UNL     1       0.921   9.901  22.020  0.00  0.00    +0.000 A 
ATOM      4  O   UNL     1       1.698   9.277  22.727  0.00  0.00    +0.000 OA
ATOM      5  C   UNL     1       0.846   9.688  20.555  0.00  0.00    +0.000 A 
ATOM      6  C   UNL     1       1.729   8.763  19.975  0.00  0.00    +0.000 A 
ATOM      7  C   UNL     1       1.761   8.564  18.595  0.00  0.00    +0.000 A 
ATOM      8  C   UNL     1       0.909   9.330  17.795  0.00  0.00    +0.000 A 
ATOM      9  C   UNL     1      -0.002  10.228  18.375  0.00  0.00    +0.000 A 
ATOM     10  C   UNL     1      -0.047  10.419  19.767  0.00  0.00    +0.000 A 
ATOM     11  C   UNL     1      -0.958  11.361  20.431  0.00  0.00    +0.000 A 
ATOM     12 CL   UNL     1      -2.156  12.198  19.503  0.00  0.00    +0.000 Cl
ENDROOT
BRANCH   7  13
ATOM     13  N   UNL     1       2.625   7.634  17.976  0.00  0.00    +0.000 N 
ATOM     14  C   UNL     1       2.785   6.312  18.367  0.00  0.00    +0.000 C 
ATOM     15  O   UNL     1       2.169   5.753  19.275  0.00  0.00    +0.000 OA
ATOM     16  H   UNL     1       3.053   7.912  17.100  0.00  0.00    +0.000 HD
BRANCH  14  17
ATOM     17  C   UNL     1       3.791   5.524  17.548  0.00  0.00    +0.000 C 
BRANCH  17  18
ATOM     18  C   UNL     1       5.223   5.852  17.885  0.00  0.00    +0.000 A 
ATOM     19  C   UNL     1       5.940   6.774  17.115  0.00  0.00    +0.000 A 
ATOM     20  C   UNL     1       7.247   7.126  17.462  0.00  0.00    +0.000 A 
ATOM     21  C   UNL     1       7.852   6.556  18.579  0.00  0.00    +0.000 A 
ATOM     22  C   UNL     1       7.153   5.631  19.351  0.00  0.00    +0.000 A 
ATOM     23  C   UNL     1       5.846   5.279  19.008  0.00  0.00    +0.000 A 
ENDBRANCH  17  18
ENDBRANCH  14  17
ENDBRANCH   7  13
BRANCH   1  25
ATOM     24  C   UNL     1      -2.607  11.917  23.223  0.00  0.00    +0.000 C 
ATOM     25  O   UNL     1      -1.627  12.520  22.384  0.00  0.00    +0.000 OA
ENDBRANCH   1  25
TORSDOF 4
ENDMDL
MODEL 4
REMARK VINA RESULT:      -7.8      4.349      6.230
REMARK  Name = 
REMARK  5 active torsions:
REMARK  status: ('A' for Active; 'I' for Inactive)
REMARK    1  A    between atoms: C_1  and  O_2
REMARK    2  A    between atoms: O_2  and  C_3
REMARK    3  A    between atoms: C_9  and  N_10
REMARK    4  A    between atoms: C_11  and  C_13
REMARK    5  A    between atoms: C_13  and  C_14
REMARK                            x       y       z     vdW  Elec       q    Type
REMARK                         _______ _______ _______ _____ _____    ______ ____
ROOT
ATOM      1  C   UNL     1       0.136  10.708  20.416  0.00  0.00    +0.000 A 
ATOM      2  O   UNL     1       0.664  10.868  19.114  0.00  0.00    +0.000 OA
ATOM      3  C   UNL     1       1.442   9.931  18.507  0.00  0.00    +0.000 A 
ATOM      4  O   UNL     1       1.915  10.113  17.395  0.00  0.00    +0.000 OA
ATOM      5  C   UNL     1       1.635   8.660  19.245  0.00  0.00    +0.000 A 
ATOM      6  C   UNL     1       2.356   7.632  18.616  0.00  0.00    +0.000 A 
ATOM      7  C   UNL     1       2.515   6.388  19.223  0.00  0.00    +0.000 A 
ATOM      8  C   UNL     1       1.915   6.175  20.467  0.00  0.00    +0.000 A 
ATOM      9  C   UNL     1       1.227   7.213  21.117  0.00  0.00    +0.000 A 
ATOM     10  C   UNL     1       1.079   8.474  20.513  0.00  0.00    +0.000 A 
ATOM     11  C   UNL     1       0.349   9.590  21.130  0.00  0.00    +0.000 A 
ATOM     12 CL   UNL     1      -0.255   9.437  22.744  0.00  0.00    +0.000 Cl
ENDROOT
BRANCH   7  13
ATOM     13  N   UNL     1       3.243   5.333  18.628  0.00  0.00    +0.000 N 
ATOM     14  C   UNL     1       2.702   4.353  17.809  0.00  0.00    +0.000 C 
ATOM     15  O   UNL     1       1.525   4.287  17.451  0.00  0.00    +0.000 OA
ATOM     16  H   UNL     1       4.255   5.376  18.691  0.00  0.00    +0.000 HD
BRANCH  14  17
ATOM     17  C   UNL     1       3.695   3.319  17.312  0.00  0.00    +0.000 C 
BRANCH  17  18
ATOM     18  C   UNL     1       4.957   3.925  16.751  0.00  0.00    +0.000 A 
ATOM     19  C   UNL     1       4.995   4.391  15.432  0.00  0.00    +0.000 A 
ATOM     20  C   UNL     1       6.143   5.008  14.930  0.00  0.00    +0.000 A 
ATOM     21  C   UNL     1       7.265   5.163  15.738  0.00  0.00    +0.000 A 
ATOM     22  C   UNL     1       7.245   4.697  17.051  0.00  0.00    +0.000 A 
ATOM     23  C   UNL     1       6.098   4.082  17.557  0.00  0.00    +0.000 A 
ENDBRANCH  17  18
ENDBRANCH  14  17
ENDBRANCH   7  13
BRANCH   1  25
ATOM     24  C   UNL     1       0.201  12.813  21.424  0.00  0.00    +0.000 C 
ATOM     25  O   UNL     1      -0.615  11.746  20.949  0.00  0.00    +0.000 OA
ENDBRANCH   1  25
TORSDOF 4
ENDMDL
MODEL 5
REMARK VINA RESULT:      -7.7      5.460      7.921
REMARK  Name = 
REMARK  5 active torsions:
REMARK  status: ('A' for Active; 'I' for Inactive)
REMARK    1  A    between atoms: C_1  and  O_2
REMARK    2  A    between atoms: O_2  and  C_3
REMARK    3  A    between atoms: C_9  and  N_10
REMARK    4  A    between atoms: C_11  and  C_13
REMARK    5  A    between atoms: C_13  and  C_14
REMARK                            x       y       z     vdW  Elec       q    Type
REMARK                         _______ _______ _______ _____ _____    ______ ____
ROOT
ATOM      1  C   UNL     1      -1.279  11.863  21.684  0.00  0.00    +0.000 A 
ATOM      2  O   UNL     1      -0.830  11.207  22.854  0.00  0.00    +0.000 OA
ATOM      3  C   UNL     1      -0.067  10.081  22.829  0.00  0.00    +0.000 A 
ATOM      4  O   UNL     1       0.275   9.516  23.857  0.00  0.00    +0.000 OA
ATOM      5  C   UNL     1       0.369   9.614  21.491  0.00  0.00    +0.000 A 
ATOM      6  C   UNL     1       1.232   8.508  21.426  0.00  0.00    +0.000 A 
ATOM      7  C   UNL     1       1.737   8.059  20.207  0.00  0.00    +0.000 A 
ATOM      8  C   UNL     1       1.385   8.754  19.047  0.00  0.00    +0.000 A 
ATOM      9  C   UNL     1       0.492   9.836  19.105  0.00  0.00    +0.000 A 
ATOM     10  C   UNL     1      -0.032  10.282  20.331  0.00  0.00    +0.000 A 
ATOM     11  C   UNL     1      -0.948  11.422  20.459  0.00  0.00    +0.000 A 
ATOM     12 CL   UNL     1      -1.556  12.202  19.039  0.00  0.00    +0.000 Cl
ENDROOT
BRANCH   7  13
ATOM     13  N   UNL     1       2.596   6.943  20.099  0.00  0.00    +0.000 N 
ATOM     14  C   UNL     1       2.210   5.621  20.267  0.00  0.00    +0.000 C 
ATOM     15  O   UNL     1       1.063   5.231  20.489  0.00  0.00    +0.000 OA
ATOM     16  H   UNL     1       3.529   7.109  19.737  0.00  0.00    +0.000 HD
BRANCH  14  17
ATOM     17  C   UNL     1       3.329   4.607  20.118  0.00  0.00    +0.000 C 
BRANCH  17  18
ATOM     18  C   UNL     1       4.280   4.929  18.993  0.00  0.00    +0.000 A 
ATOM     19  C   UNL     1       3.826   4.974  17.670  0.00  0.00    +0.000 A 
ATOM     20  C   UNL     1       4.692   5.333  16.634  0.00  0.00    +0.000 A 
ATOM     21  C   UNL     1       6.020   5.645  16.909  0.00  0.00    +0.000 A 
ATOM     22  C   UNL     1       6.489   5.597  18.219  0.00  0.00    +0.000 A 
ATOM     23  C   UNL     1       5.625   5.241  19.258  0.00  0.00    +0.000 A 
ENDBRANCH  17  18
ENDBRANCH  14  17
ENDBRANCH   7  13
BRANCH   1  25
ATOM     24  C   UNL     1      -3.365  12.664  22.360  0.00  0.00    +0.000 C 
ATOM     25  O   UNL     1      -2.083  12.984  21.830  0.00  0.00    +0.000 OA
ENDBRANCH   1  25
TORSDOF 4
ENDMDL
MODEL 6
REMARK VINA RESULT:      -7.7      5.092      7.161
REMARK  Name = 
REMARK  5 active torsions:
REMARK  status: ('A' for Active; 'I' for Inactive)
REMARK    1  A    between atoms: C_1  and  O_2
REMARK    2  A    between atoms: O_2  and  C_3
REMARK    3  A    between atoms: C_9  and  N_10
REMARK    4  A    between atoms: C_11  and  C_13
REMARK    5  A    between atoms: C_13  and  C_14
REMARK                            x       y       z     vdW  Elec       q    Type
REMARK                         _______ _______ _______ _____ _____    ______ ____
ROOT
ATOM      1  C   UNL     1      -0.995  11.509  20.732  0.00  0.00    +0.000 A 
ATOM      2  O   UNL     1      -0.753  10.825  21.946  0.00  0.00    +0.000 OA
ATOM      3  C   UNL     1      -0.020   9.681  22.021  0.00  0.00    +0.000 A 
ATOM      4  O   UNL     1       0.141   9.092  23.079  0.00  0.00    +0.000 OA
ATOM      5  C   UNL     1       0.614   9.224  20.761  0.00  0.00    +0.000 A 
ATOM      6  C   UNL     1       1.452   8.098  20.813  0.00  0.00    +0.000 A 
ATOM      7  C   UNL     1       2.135   7.656  19.681  0.00  0.00    +0.000 A 
ATOM      8  C   UNL     1       1.988   8.378  18.493  0.00  0.00    +0.000 A 
ATOM      9  C   UNL     1       1.120   9.480  18.429  0.00  0.00    +0.000 A 
ATOM     10  C   UNL     1       0.418   9.919  19.565  0.00  0.00    +0.000 A 
ATOM     11  C   UNL     1      -0.483  11.080  19.567  0.00  0.00    +0.000 A 
ATOM     12 CL   UNL     1      -0.840  11.895  18.083  0.00  0.00    +0.000 Cl
ENDROOT
BRANCH   7  13
ATOM     13  N   UNL     1       2.976   6.521  19.689  0.00  0.00    +0.000 N 
ATOM     14  C   UNL     1       2.758   5.362  18.959  0.00  0.00    +0.000 C 
ATOM     15  O   UNL     1       1.830   5.175  18.170  0.00  0.00    +0.000 OA
ATOM     16  H   UNL     1       3.873   6.613  20.154  0.00  0.00    +0.000 HD
BRANCH  14  17
ATOM     17  C   UNL     1       3.801   4.279  19.158  0.00  0.00    +0.000 C 
BRANCH  17  18
ATOM     18  C   UNL     1       4.919   4.334  18.149  0.00  0.00    +0.000 A 
ATOM     19  C   UNL     1       4.704   3.927  16.827  0.00  0.00    +0.000 A 
ATOM     20  C   UNL     1       5.721   4.035  15.876  0.00  0.00    +0.000 A 
ATOM     21  C   UNL     1       6.965   4.546  16.236  0.00  0.00    +0.000 A 
ATOM     22  C   UNL     1       7.197   4.947  17.549  0.00  0.00    +0.000 A 
ATOM     23  C   UNL     1       6.181   4.843  18.502  0.00  0.00    +0.000 A 
ENDBRANCH  17  18
ENDBRANCH  14  17
ENDBRANCH   7  13
BRANCH   1  25
ATOM     24  C   UNL     1      -1.160  13.719  21.469  0.00  0.00    +0.000 C 
ATOM     25  O   UNL     1      -1.787  12.647  20.770  0.00  0.00    +0.000 OA
ENDBRANCH   1  25
TORSDOF 4
ENDMDL
MODEL 7
REMARK VINA RESULT:      -7.6      4.406      6.051
REMARK  Name = 
REMARK  5 active torsions:
REMARK  status: ('A' for Active; 'I' for Inactive)
REMARK    1  A    between atoms: C_1  and  O_2
REMARK    2  A    between atoms: O_2  and  C_3
REMARK    3  A    between atoms: C_9  and  N_10
REMARK    4  A    between atoms: C_11  and  C_13
REMARK    5  A    between atoms: C_13  and  C_14
REMARK                            x       y       z     vdW  Elec       q    Type
REMARK                         _______ _______ _______ _____ _____    ______ ____
ROOT
ATOM      1  C   UNL     1       0.418  10.921  20.488  0.00  0.00    +0.000 A 
ATOM      2  O   UNL     1       0.890  11.031  19.159  0.00  0.00    +0.000 OA
ATOM      3  C   UNL     1       1.573  10.037  18.529  0.00  0.00    +0.000 A 
ATOM      4  O   UNL     1       2.001  10.174  17.392  0.00  0.00    +0.000 OA
ATOM      5  C   UNL     1       1.719   8.765  19.276  0.00  0.00    +0.000 A 
ATOM      6  C   UNL     1       2.339   7.684  18.628  0.00  0.00    +0.000 A 
ATOM      7  C   UNL     1       2.446   6.439  19.245  0.00  0.00    +0.000 A 
ATOM      8  C   UNL     1       1.897   6.282  20.521  0.00  0.00    +0.000 A 
ATOM      9  C   UNL     1       1.312   7.371  21.187  0.00  0.00    +0.000 A 
ATOM     10  C   UNL     1       1.216   8.632  20.573  0.00  0.00    +0.000 A 
ATOM     11  C   UNL     1       0.593   9.801  21.207  0.00  0.00    +0.000 A 
ATOM     12 CL   UNL     1       0.062   9.708  22.852  0.00  0.00    +0.000 Cl
ENDROOT
BRANCH   7  13
ATOM     13  N   UNL     1       3.074   5.332  18.632  0.00  0.00    +0.000 N 
ATOM     14  C   UNL     1       4.383   4.933  18.856  0.00  0.00    +0.000 C 
ATOM     15  O   UNL     1       5.167   5.456  19.650  0.00  0.00    +0.000 OA
ATOM     16  H   UNL     1       2.484   4.704  18.096  0.00  0.00    +0.000 HD
BRANCH  14  17
ATOM     17  C   UNL     1       4.825   3.721  18.057  0.00  0.00    +0.000 C 
BRANCH  17  18
ATOM     18  C   UNL     1       5.523   4.078  16.769  0.00  0.00    +0.000 A 
ATOM     19  C   UNL     1       4.843   4.005  15.549  0.00  0.00    +0.000 A 
ATOM     20  C   UNL     1       5.469   4.394  14.362  0.00  0.00    +0.000 A 
ATOM     21  C   UNL     1       6.782   4.855  14.382  0.00  0.00    +0.000 A 
ATOM     22  C   UNL     1       7.475   4.926  15.588  0.00  0.00    +0.000 A 
ATOM     23  C   UNL     1       6.851   4.540  16.776  0.00  0.00    +0.000 A 
ENDBRANCH  17  18
ENDBRANCH  14  17
ENDBRANCH   7  13
BRANCH   1  25
ATOM     24  C   UNL     1      -1.609  12.066  20.668  0.00  0.00    +0.000 C 
ATOM     25  O   UNL     1      -0.235  12.013  21.041  0.00  0.00    +0.000 OA
ENDBRANCH   1  25
TORSDOF 4
ENDMDL
MODEL 8
REMARK VINA RESULT:      -7.5      6.625      9.178
REMARK  Name = 
REMARK  5 active torsions:
REMARK  status: ('A' for Active; 'I' for Inactive)
REMARK    1  A    between atoms: C_1  and  O_2
REMARK    2  A    between atoms: O_2  and  C_3
REMARK    3  A    between atoms: C_9  and  N_10
REMARK    4  A    between atoms: C_11  and  C_13
REMARK    5  A    between atoms: C_13  and  C_14
REMARK                            x       y       z     vdW  Elec       q    Type
REMARK                         _______ _______ _______ _____ _____    ______ ____
ROOT
ATOM      1  C   UNL     1      -2.359  12.884  20.836  0.00  0.00    +0.000 A 
ATOM      2  O   UNL     1      -2.154  12.418  19.516  0.00  0.00    +0.000 OA
ATOM      3  C   UNL     1      -1.300  11.404  19.211  0.00  0.00    +0.000 A 
ATOM      4  O   UNL     1      -1.116  11.047  18.057  0.00  0.00    +0.000 OA
ATOM      5  C   UNL     1      -0.651  10.724  20.357  0.00  0.00    +0.000 A 
ATOM      6  C   UNL     1       0.168   9.615  20.091  0.00  0.00    +0.000 A 
ATOM      7  C   UNL     1       0.752   8.886  21.127  0.00  0.00    +0.000 A 
ATOM      8  C   UNL     1       0.482   9.270  22.442  0.00  0.00    +0.000 A 
ATOM      9  C   UNL     1      -0.305  10.403  22.710  0.00  0.00    +0.000 A 
ATOM     10  C   UNL     1      -0.882  11.149  21.668  0.00  0.00    +0.000 A 
ATOM     11  C   UNL     1      -1.735  12.325  21.885  0.00  0.00    +0.000 A 
ATOM     12 CL   UNL     1      -1.951  12.949  23.484  0.00  0.00    +0.000 Cl
ENDROOT
BRANCH   7  13
ATOM     13  N   UNL     1       1.592   7.773  20.900  0.00  0.00    +0.000 N 
ATOM     14  C   UNL     1       2.237   7.492  19.704  0.00  0.00    +0.000 C 
ATOM     15  O   UNL     1       2.206   8.191  18.691  0.00  0.00    +0.000 OA
ATOM     16  H   UNL     1       1.851   7.217  21.707  0.00  0.00    +0.000 HD
BRANCH  14  17
ATOM     17  C   UNL     1       3.068   6.222  19.713  0.00  0.00    +0.000 C 
BRANCH  17  18
ATOM     18  C   UNL     1       2.242   4.968  19.582  0.00  0.00    +0.000 A 
ATOM     19  C   UNL     1       1.940   4.445  18.320  0.00  0.00    +0.000 A 
ATOM     20  C   UNL     1       1.228   3.249  18.199  0.00  0.00    +0.000 A 
ATOM     21  C   UNL     1       0.806   2.567  19.336  0.00  0.00    +0.000 A 
ATOM     22  C   UNL     1       1.092   3.079  20.600  0.00  0.00    +0.000 A 
ATOM     23  C   UNL     1       1.806   4.273  20.724  0.00  0.00    +0.000 A 
ENDBRANCH  17  18
ENDBRANCH  14  17
ENDBRANCH   7  13
BRANCH   1  25
ATOM     24  C   UNL     1      -4.593  13.551  20.955  0.00  0.00    +0.000 C 
ATOM     25  O   UNL     1      -3.227  13.950  21.025  0.00  0.00    +0.000 OA
ENDBRANCH   1  25
TORSDOF 4
ENDMDL
MODEL 9
REMARK VINA RESULT:      -7.5      5.412      9.838
REMARK  Name = 
REMARK  5 active torsions:
REMARK  status: ('A' for Active; 'I' for Inactive)
REMARK    1  A    between atoms: C_1  and  O_2
REMARK    2  A    between atoms: O_2  and  C_3
REMARK    3  A    between atoms: C_9  and  N_10
REMARK    4  A    between atoms: C_11  and  C_13
REMARK    5  A    between atoms: C_13  and  C_14
REMARK                            x       y       z     vdW  Elec       q    Type
REMARK                         _______ _______ _______ _____ _____    ______ ____
ROOT
ATOM      1  C   UNL     1       4.486   4.760  17.617  0.00  0.00    +0.000 A 
ATOM      2  O   UNL     1       4.018   4.012  18.723  0.00  0.00    +0.000 OA
ATOM      3  C   UNL     1       3.236   4.543  19.701  0.00  0.00    +0.000 A 
ATOM      4  O   UNL     1       2.877   3.882  20.664  0.00  0.00    +0.000 OA
ATOM      5  C   UNL     1       2.801   5.947  19.505  0.00  0.00    +0.000 A 
ATOM      6  C   UNL     1       1.920   6.504  20.446  0.00  0.00    +0.000 A 
ATOM      7  C   UNL     1       1.416   7.794  20.285  0.00  0.00    +0.000 A 
ATOM      8  C   UNL     1       1.788   8.514  19.147  0.00  0.00    +0.000 A 
ATOM      9  C   UNL     1       2.699   7.974  18.224  0.00  0.00    +0.000 A 
ATOM     10  C   UNL     1       3.221   6.680  18.392  0.00  0.00    +0.000 A 
ATOM     11  C   UNL     1       4.156   6.051  17.450  0.00  0.00    +0.000 A 
ATOM     12 CL   UNL     1       4.788   6.966  16.124  0.00  0.00    +0.000 Cl
ENDROOT
BRANCH   7  13
ATOM     13  N   UNL     1       0.538   8.394  21.215  0.00  0.00    +0.000 N 
ATOM     14  C   UNL     1       0.932   9.176  22.292  0.00  0.00    +0.000 C 
ATOM     15  O   UNL     1       2.091   9.492  22.563  0.00  0.00    +0.000 OA
ATOM     16  H   UNL     1      -0.453   8.366  21.002  0.00  0.00    +0.000 HD
BRANCH  14  17
ATOM     17  C   UNL     1      -0.206   9.688  23.156  0.00  0.00    +0.000 C 
BRANCH  17  18
ATOM     18  C   UNL     1      -0.894  10.899  22.579  0.00  0.00    +0.000 A 
ATOM     19  C   UNL     1      -0.507  11.412  21.336  0.00  0.00    +0.000 A 
ATOM     20  C   UNL     1      -1.184  12.496  20.773  0.00  0.00    +0.000 A 
ATOM     21  C   UNL     1      -2.250  13.082  21.447  0.00  0.00    +0.000 A 
ATOM     22  C   UNL     1      -2.643  12.588  22.689  0.00  0.00    +0.000 A 
ATOM     23  C   UNL     1      -1.969  11.503  23.254  0.00  0.00    +0.000 A 
ENDBRANCH  17  18
ENDBRANCH  14  17
ENDBRANCH   7  13
BRANCH   1  25
ATOM     24  C   UNL     1       6.684   4.429  16.902  0.00  0.00    +0.000 C 
ATOM     25  O   UNL     1       5.308   4.123  16.698  0.00  0.00    +0.000 OA
ENDBRANCH   1  25
TORSDOF 4
ENDMDL
