MODEL 1
REMARK VINA RESULT:      -7.4      0.000      0.000
REMARK  Name = 
REMARK  6 active torsions:
REMARK  status: ('A' for Active; 'I' for Inactive)
REMARK    1  A    between atoms: C_2  and  O_3
REMARK    2  A    between atoms: C_2  and  C_4
REMARK    3  A    between atoms: C_9  and  C_10
REMARK    4  A    between atoms: N_12  and  N_13
REMARK    5  A    between atoms: C_16  and  C_17
REMARK    6  A    between atoms: C_17  and  C_18
REMARK                            x       y       z     vdW  Elec       q    Type
REMARK                         _______ _______ _______ _____ _____    ______ ____
ROOT
ATOM      1  C   UNL     1       3.619   5.794  17.587  0.00  0.00    +0.000 C 
ATOM      2  O   UNL     1       2.673   5.024  17.682  0.00  0.00    +0.000 OA
ATOM      3  N   UNL     1       3.625   7.105  18.041  0.00  0.00    +0.000 N 
ATOM      4  H   UNL     1       4.349   7.772  17.788  0.00  0.00    +0.000 HD
ENDROOT
BRANCH   3   5
ATOM      5  N   UNL     1       2.498   7.592  18.700  0.00  0.00    +0.000 N 
ATOM      6  C   UNL     1       2.344   7.321  20.090  0.00  0.00    +0.000 C 
ATOM      7  N   UNL     1       1.138   8.031  20.488  0.00  0.00    +0.000 NA
ATOM      8  C   UNL     1       0.811   9.000  19.408  0.00  0.00    +0.000 C 
ATOM      9  C   UNL     1       1.877   8.779  18.338  0.00  0.00    +0.000 C 
ATOM     10  O   UNL     1       2.132   9.495  17.384  0.00  0.00    +0.000 OA
ATOM     11  H   UNL     1       1.278   8.514  21.372  0.00  0.00    +0.000 HD
BRANCH   8  12
ATOM     12  C   UNL     1       0.759  10.467  19.858  0.00  0.00    +0.000 C 
BRANCH  12  13
ATOM     13  C   UNL     1      -0.608  11.105  19.724  0.00  0.00    +0.000 A 
ATOM     14  C   UNL     1      -1.084  11.980  20.711  0.00  0.00    +0.000 A 
ATOM     15  C   UNL     1      -2.344  12.569  20.593  0.00  0.00    +0.000 A 
ATOM     16  C   UNL     1      -3.143  12.296  19.484  0.00  0.00    +0.000 A 
ATOM     17  C   UNL     1      -2.678  11.436  18.492  0.00  0.00    +0.000 A 
ATOM     18  C   UNL     1      -1.418  10.845  18.608  0.00  0.00    +0.000 A 
ENDBRANCH  12  13
ENDBRANCH   8  12
ENDBRANCH   3   5
BRANCH   1  24
ATOM     19  C   UNL     1       5.947   4.811  17.603  0.00  0.00    +0.000 A 
ATOM     20  C   UNL     1       7.122   4.489  16.891  0.00  0.00    +0.000 A 
ATOM     21  C   UNL     1       7.207   4.666  15.510  0.00  0.00    +0.000 A 
ATOM     22  C   UNL     1       6.121   5.180  14.814  0.00  0.00    +0.000 A 
ATOM     23  C   UNL     1       4.954   5.522  15.500  0.00  0.00    +0.000 A 
ATOM     24  C   UNL     1       4.852   5.338  16.891  0.00  0.00    +0.000 A 
BRANCH  19  26
ATOM     25  O   UNL     1       6.696   5.248  19.805  0.00  0.00    +0.000 OA
ATOM     26  C   UNL     1       6.015   4.541  19.071  0.00  0.00    +0.000 C 
BRANCH  26  27
ATOM     27  O   UNL     1       5.510   3.363  19.469  0.00  0.00    +0.000 OA
ATOM     28  H   UNL     1       5.547   2.637  18.812  0.00  0.00    +0.000 HD
ENDBRANCH  26  27
ENDBRANCH  19  26
ENDBRANCH   1  24
TORSDOF 6
ENDMDL
MODEL 2
REMARK VINA RESULT:      -7.3      2.553      8.781
REMARK  Name = 
REMARK  6 active torsions:
REMARK  status: ('A' for Active; 'I' for Inactive)
REMARK    1  A    between atoms: C_2  and  O_3
REMARK    2  A    between atoms: C_2  and  C_4
REMARK    3  A    between atoms: C_9  and  C_10
REMARK    4  A    between atoms: N_12  and  N_13
REMARK    5  A    between atoms: C_16  and  C_17
REMARK    6  A    between atoms: C_17  and  C_18
REMARK                            x       y       z     vdW  Elec       q    Type
REMARK                         _______ _______ _______ _____ _____    ______ ____
ROOT
ATOM      1  C   UNL     1       1.051   9.452  21.784  0.00  0.00    +0.000 C 
ATOM      2  O   UNL     1       1.980   9.325  22.569  0.00  0.00    +0.000 OA
ATOM      3  N   UNL     1       0.851   8.670  20.656  0.00  0.00    +0.000 N 
ATOM      4  H   UNL     1       0.183   8.911  19.929  0.00  0.00    +0.000 HD
ENDROOT
BRANCH   3   5
ATOM      5  N   UNL     1       1.736   7.624  20.398  0.00  0.00    +0.000 N 
ATOM      6  C   UNL     1       1.470   6.344  20.965  0.00  0.00    +0.000 C 
ATOM      7  N   UNL     1       2.509   5.470  20.442  0.00  0.00    +0.000 NA
ATOM      8  C   UNL     1       3.147   6.168  19.294  0.00  0.00    +0.000 C 
ATOM      9  C   UNL     1       2.443   7.521  19.210  0.00  0.00    +0.000 C 
ATOM     10  O   UNL     1       2.486   8.325  18.294  0.00  0.00    +0.000 OA
ATOM     11  H   UNL     1       2.116   4.580  20.146  0.00  0.00    +0.000 HD
BRANCH   8  12
ATOM     12  C   UNL     1       3.072   5.410  17.961  0.00  0.00    +0.000 C 
BRANCH  12  13
ATOM     13  C   UNL     1       4.415   5.215  17.287  0.00  0.00    +0.000 A 
ATOM     14  C   UNL     1       4.617   4.145  16.404  0.00  0.00    +0.000 A 
ATOM     15  C   UNL     1       5.853   3.959  15.782  0.00  0.00    +0.000 A 
ATOM     16  C   UNL     1       6.901   4.843  16.030  0.00  0.00    +0.000 A 
ATOM     17  C   UNL     1       6.710   5.915  16.899  0.00  0.00    +0.000 A 
ATOM     18  C   UNL     1       5.475   6.103  17.522  0.00  0.00    +0.000 A 
ENDBRANCH  12  13
ENDBRANCH   8  12
ENDBRANCH   3   5
BRANCH   1  24
ATOM     19  C   UNL     1       0.170  11.771  21.301  0.00  0.00    +0.000 A 
ATOM     20  C   UNL     1      -0.731  12.807  21.623  0.00  0.00    +0.000 A 
ATOM     21  C   UNL     1      -1.718  12.635  22.596  0.00  0.00    +0.000 A 
ATOM     22  C   UNL     1      -1.813  11.428  23.274  0.00  0.00    +0.000 A 
ATOM     23  C   UNL     1      -0.919  10.395  22.984  0.00  0.00    +0.000 A 
ATOM     24  C   UNL     1       0.072  10.551  21.998  0.00  0.00    +0.000 A 
BRANCH  19  26
ATOM     25  O   UNL     1       1.876  13.091  20.328  0.00  0.00    +0.000 OA
ATOM     26  C   UNL     1       1.148  12.110  20.223  0.00  0.00    +0.000 C 
BRANCH  26  27
ATOM     27  O   UNL     1       0.994  11.444  19.069  0.00  0.00    +0.000 OA
ATOM     28  H   UNL     1       0.858  11.996  18.271  0.00  0.00    +0.000 HD
ENDBRANCH  26  27
ENDBRANCH  19  26
ENDBRANCH   1  24
TORSDOF 6
ENDMDL
MODEL 3
REMARK VINA RESULT:      -7.3      3.796      5.139
REMARK  Name = 
REMARK  6 active torsions:
REMARK  status: ('A' for Active; 'I' for Inactive)
REMARK    1  A    between atoms: C_2  and  O_3
REMARK    2  A    between atoms: C_2  and  C_4
REMARK    3  A    between atoms: C_9  and  C_10
REMARK    4  A    between atoms: N_12  and  N_13
REMARK    5  A    between atoms: C_16  and  C_17
REMARK    6  A    between atoms: C_17  and  C_18
REMARK                            x       y       z     vdW  Elec       q    Type
REMARK                         _______ _______ _______ _____ _____    ______ ____
ROOT
ATOM      1  C   UNL     1       4.815   4.011  16.247  0.00  0.00    +0.000 C 
ATOM      2  O   UNL     1       4.231   5.015  16.626  0.00  0.00    +0.000 OA
ATOM      3  N   UNL     1       4.830   2.798  16.921  0.00  0.00    +0.000 N 
ATOM      4  H   UNL     1       5.467   2.042  16.682  0.00  0.00    +0.000 HD
ENDROOT
BRANCH   3   5
ATOM      5  N   UNL     1       4.093   2.674  18.097  0.00  0.00    +0.000 N 
ATOM      6  C   UNL     1       4.606   3.254  19.293  0.00  0.00    +0.000 C 
ATOM      7  N   UNL     1       3.579   3.032  20.298  0.00  0.00    +0.000 NA
ATOM      8  C   UNL     1       2.330   2.650  19.586  0.00  0.00    +0.000 C 
ATOM      9  C   UNL     1       2.708   2.622  18.107  0.00  0.00    +0.000 C 
ATOM     10  O   UNL     1       1.954   2.575  17.149  0.00  0.00    +0.000 OA
ATOM     11  H   UNL     1       3.431   3.870  20.855  0.00  0.00    +0.000 HD
BRANCH   8  12
ATOM     12  C   UNL     1       1.134   3.579  19.845  0.00  0.00    +0.000 C 
BRANCH  12  13
ATOM     13  C   UNL     1       1.474   5.053  19.777  0.00  0.00    +0.000 A 
ATOM     14  C   UNL     1       1.854   5.639  18.561  0.00  0.00    +0.000 A 
ATOM     15  C   UNL     1       2.170   6.997  18.492  0.00  0.00    +0.000 A 
ATOM     16  C   UNL     1       2.103   7.789  19.637  0.00  0.00    +0.000 A 
ATOM     17  C   UNL     1       1.718   7.222  20.849  0.00  0.00    +0.000 A 
ATOM     18  C   UNL     1       1.402   5.864  20.920  0.00  0.00    +0.000 A 
ENDBRANCH  12  13
ENDBRANCH   8  12
ENDBRANCH   3   5
BRANCH   1  24
ATOM     19  C   UNL     1       6.895   4.682  14.977  0.00  0.00    +0.000 A 
ATOM     20  C   UNL     1       7.565   4.796  13.741  0.00  0.00    +0.000 A 
ATOM     21  C   UNL     1       7.004   4.305  12.561  0.00  0.00    +0.000 A 
ATOM     22  C   UNL     1       5.754   3.701  12.594  0.00  0.00    +0.000 A 
ATOM     23  C   UNL     1       5.064   3.594  13.803  0.00  0.00    +0.000 A 
ATOM     24  C   UNL     1       5.624   4.075  15.000  0.00  0.00    +0.000 A 
BRANCH  19  26
ATOM     25  O   UNL     1       8.093   4.495  17.009  0.00  0.00    +0.000 OA
ATOM     26  C   UNL     1       7.643   5.238  16.144  0.00  0.00    +0.000 C 
BRANCH  26  27
ATOM     27  O   UNL     1       7.563   6.568  16.305  0.00  0.00    +0.000 OA
ATOM     28  H   UNL     1       7.375   7.087  15.496  0.00  0.00    +0.000 HD
ENDBRANCH  26  27
ENDBRANCH  19  26
ENDBRANCH   1  24
TORSDOF 6
ENDMDL
MODEL 4
REMARK VINA RESULT:      -7.3      2.822      8.706
REMARK  Name = 
REMARK  6 active torsions:
REMARK  status: ('A' for Active; 'I' for Inactive)
REMARK    1  A    between atoms: C_2  and  O_3
REMARK    2  A    between atoms: C_2  and  C_4
REMARK    3  A    between atoms: C_9  and  C_10
REMARK    4  A    between atoms: N_12  and  N_13
REMARK    5  A    between atoms: C_16  and  C_17
REMARK    6  A    between atoms: C_17  and  C_18
REMARK                            x       y       z     vdW  Elec       q    Type
REMARK                         _______ _______ _______ _____ _____    ______ ____
ROOT
ATOM      1  C   UNL     1      -0.457  10.470  19.956  0.00  0.00    +0.000 C 
ATOM      2  O   UNL     1      -1.272   9.994  19.180  0.00  0.00    +0.000 OA
ATOM      3  N   UNL     1       0.886  10.124  20.010  0.00  0.00    +0.000 N 
ATOM      4  H   UNL     1       1.495  10.396  20.777  0.00  0.00    +0.000 HD
ENDROOT
BRANCH   3   5
ATOM      5  N   UNL     1       1.378   9.201  19.089  0.00  0.00    +0.000 N 
ATOM      6  C   UNL     1       2.121   9.676  17.971  0.00  0.00    +0.000 C 
ATOM      7  N   UNL     1       2.560   8.480  17.267  0.00  0.00    +0.000 NA
ATOM      8  C   UNL     1       2.377   7.326  18.186  0.00  0.00    +0.000 C 
ATOM      9  C   UNL     1       1.762   7.918  19.452  0.00  0.00    +0.000 C 
ATOM     10  O   UNL     1       1.647   7.384  20.542  0.00  0.00    +0.000 OA
ATOM     11  H   UNL     1       3.535   8.564  16.987  0.00  0.00    +0.000 HD
BRANCH   8  12
ATOM     12  C   UNL     1       3.660   6.542  18.496  0.00  0.00    +0.000 C 
BRANCH  12  13
ATOM     13  C   UNL     1       3.493   5.038  18.440  0.00  0.00    +0.000 A 
ATOM     14  C   UNL     1       2.385   4.470  17.794  0.00  0.00    +0.000 A 
ATOM     15  C   UNL     1       2.225   3.084  17.742  0.00  0.00    +0.000 A 
ATOM     16  C   UNL     1       3.172   2.248  18.329  0.00  0.00    +0.000 A 
ATOM     17  C   UNL     1       4.281   2.799  18.966  0.00  0.00    +0.000 A 
ATOM     18  C   UNL     1       4.443   4.185  19.020  0.00  0.00    +0.000 A 
ENDBRANCH  12  13
ENDBRANCH   8  12
ENDBRANCH   3   5
BRANCH   1  24
ATOM     19  C   UNL     1      -0.851  11.186  22.348  0.00  0.00    +0.000 A 
ATOM     20  C   UNL     1      -1.394  12.126  23.249  0.00  0.00    +0.000 A 
ATOM     21  C   UNL     1      -1.970  13.315  22.799  0.00  0.00    +0.000 A 
ATOM     22  C   UNL     1      -2.025  13.580  21.438  0.00  0.00    +0.000 A 
ATOM     23  C   UNL     1      -1.510  12.656  20.527  0.00  0.00    +0.000 A 
ATOM     24  C   UNL     1      -0.916  11.459  20.968  0.00  0.00    +0.000 A 
BRANCH  19  26
ATOM     25  O   UNL     1       0.959   9.892  23.155  0.00  0.00    +0.000 OA
ATOM     26  C   UNL     1      -0.253   9.978  22.995  0.00  0.00    +0.000 C 
BRANCH  26  27
ATOM     27  O   UNL     1      -1.078   8.930  23.141  0.00  0.00    +0.000 OA
ATOM     28  H   UNL     1      -0.862   8.137  22.607  0.00  0.00    +0.000 HD
ENDBRANCH  26  27
ENDBRANCH  19  26
ENDBRANCH   1  24
TORSDOF 6
ENDMDL
MODEL 5
REMARK VINA RESULT:      -7.3      3.818      5.045
REMARK  Name = 
REMARK  6 active torsions:
REMARK  status: ('A' for Active; 'I' for Inactive)
REMARK    1  A    between atoms: C_2  and  O_3
REMARK    2  A    between atoms: C_2  and  C_4
REMARK    3  A    between atoms: C_9  and  C_10
REMARK    4  A    between atoms: N_12  and  N_13
REMARK    5  A    between atoms: C_16  and  C_17
REMARK    6  A    between atoms: C_17  and  C_18
REMARK                            x       y       z     vdW  Elec       q    Type
REMARK                         _______ _______ _______ _____ _____    ______ ____
ROOT
ATOM      1  C   UNL     1       4.790   4.001  16.286  0.00  0.00    +0.000 C 
ATOM      2  O   UNL     1       4.190   4.996  16.667  0.00  0.00    +0.000 OA
ATOM      3  N   UNL     1       4.801   2.780  16.944  0.00  0.00    +0.000 N 
ATOM      4  H   UNL     1       5.448   2.032  16.708  0.00  0.00    +0.000 HD
ENDROOT
BRANCH   3   5
ATOM      5  N   UNL     1       4.043   2.634  18.104  0.00  0.00    +0.000 N 
ATOM      6  C   UNL     1       4.549   3.164  19.326  0.00  0.00    +0.000 C 
ATOM      7  N   UNL     1       3.500   2.932  20.307  0.00  0.00    +0.000 NA
ATOM      8  C   UNL     1       2.255   2.602  19.564  0.00  0.00    +0.000 C 
ATOM      9  C   UNL     1       2.656   2.613  18.090  0.00  0.00    +0.000 C 
ATOM     10  O   UNL     1       1.918   2.614  17.120  0.00  0.00    +0.000 OA
ATOM     11  H   UNL     1       3.362   3.756  20.889  0.00  0.00    +0.000 HD
BRANCH   8  12
ATOM     12  C   UNL     1       1.076   3.548  19.834  0.00  0.00    +0.000 C 
BRANCH  12  13
ATOM     13  C   UNL     1       1.438   5.017  19.772  0.00  0.00    +0.000 A 
ATOM     14  C   UNL     1       1.397   5.809  20.929  0.00  0.00    +0.000 A 
ATOM     15  C   UNL     1       1.728   7.164  20.876  0.00  0.00    +0.000 A 
ATOM     16  C   UNL     1       2.111   7.744  19.668  0.00  0.00    +0.000 A 
ATOM     17  C   UNL     1       2.164   6.967  18.514  0.00  0.00    +0.000 A 
ATOM     18  C   UNL     1       1.833   5.612  18.564  0.00  0.00    +0.000 A 
ENDBRANCH  12  13
ENDBRANCH   8  12
ENDBRANCH   3   5
BRANCH   1  24
ATOM     19  C   UNL     1       6.853   4.772  15.046  0.00  0.00    +0.000 A 
ATOM     20  C   UNL     1       7.544   4.900  13.823  0.00  0.00    +0.000 A 
ATOM     21  C   UNL     1       7.041   4.350  12.643  0.00  0.00    +0.000 A 
ATOM     22  C   UNL     1       5.831   3.671  12.662  0.00  0.00    +0.000 A 
ATOM     23  C   UNL     1       5.121   3.547  13.858  0.00  0.00    +0.000 A 
ATOM     24  C   UNL     1       5.622   4.088  15.056  0.00  0.00    +0.000 A 
BRANCH  19  26
ATOM     25  O   UNL     1       7.736   6.608  16.250  0.00  0.00    +0.000 OA
ATOM     26  C   UNL     1       7.538   5.399  16.217  0.00  0.00    +0.000 C 
BRANCH  26  27
ATOM     27  O   UNL     1       8.129   4.546  17.069  0.00  0.00    +0.000 OA
ATOM     28  H   UNL     1       7.536   3.906  17.514  0.00  0.00    +0.000 HD
ENDBRANCH  26  27
ENDBRANCH  19  26
ENDBRANCH   1  24
TORSDOF 6
ENDMDL
MODEL 6
REMARK VINA RESULT:      -7.1      3.661      8.952
REMARK  Name = 
REMARK  6 active torsions:
REMARK  status: ('A' for Active; 'I' for Inactive)
REMARK    1  A    between atoms: C_2  and  O_3
REMARK    2  A    between atoms: C_2  and  C_4
REMARK    3  A    between atoms: C_9  and  C_10
REMARK    4  A    between atoms: N_12  and  N_13
REMARK    5  A    between atoms: C_16  and  C_17
REMARK    6  A    between atoms: C_17  and  C_18
REMARK                            x       y       z     vdW  Elec       q    Type
REMARK                         _______ _______ _______ _____ _____    ______ ____
ROOT
ATOM      1  C   UNL     1      -0.138  12.050  20.158  0.00  0.00    +0.000 C 
ATOM      2  O   UNL     1      -1.026  11.864  19.339  0.00  0.00    +0.000 OA
ATOM      3  N   UNL     1       1.006  11.275  20.280  0.00  0.00    +0.000 N 
ATOM      4  H   UNL     1       1.632  11.338  21.078  0.00  0.00    +0.000 HD
ENDROOT
BRANCH   3   5
ATOM      5  N   UNL     1       1.205  10.226  19.384  0.00  0.00    +0.000 N 
ATOM      6  C   UNL     1       1.981  10.460  18.213  0.00  0.00    +0.000 C 
ATOM      7  N   UNL     1       2.072   9.169  17.549  0.00  0.00    +0.000 NA
ATOM      8  C   UNL     1       1.658   8.130  18.529  0.00  0.00    +0.000 C 
ATOM      9  C   UNL     1       1.278   8.902  19.791  0.00  0.00    +0.000 C 
ATOM     10  O   UNL     1       1.092   8.452  20.909  0.00  0.00    +0.000 OA
ATOM     11  H   UNL     1       3.021   8.997  17.224  0.00  0.00    +0.000 HD
BRANCH   8  12
ATOM     12  C   UNL     1       2.722   7.062  18.820  0.00  0.00    +0.000 C 
BRANCH  12  13
ATOM     13  C   UNL     1       2.158   5.676  19.049  0.00  0.00    +0.000 A 
ATOM     14  C   UNL     1       1.947   4.807  17.969  0.00  0.00    +0.000 A 
ATOM     15  C   UNL     1       1.425   3.529  18.175  0.00  0.00    +0.000 A 
ATOM     16  C   UNL     1       1.112   3.100  19.463  0.00  0.00    +0.000 A 
ATOM     17  C   UNL     1       1.325   3.950  20.546  0.00  0.00    +0.000 A 
ATOM     18  C   UNL     1       1.847   5.229  20.342  0.00  0.00    +0.000 A 
ENDBRANCH  12  13
ENDBRANCH   8  12
ENDBRANCH   3   5
BRANCH   1  24
ATOM     19  C   UNL     1      -0.858  12.930  22.415  0.00  0.00    +0.000 A 
ATOM     20  C   UNL     1      -1.061  14.036  23.267  0.00  0.00    +0.000 A 
ATOM     21  C   UNL     1      -0.693  15.326  22.883  0.00  0.00    +0.000 A 
ATOM     22  C   UNL     1      -0.126  15.536  21.633  0.00  0.00    +0.000 A 
ATOM     23  C   UNL     1       0.068  14.458  20.767  0.00  0.00    +0.000 A 
ATOM     24  C   UNL     1      -0.288  13.152  21.147  0.00  0.00    +0.000 A 
BRANCH  19  26
ATOM     25  O   UNL     1      -2.420  11.470  23.429  0.00  0.00    +0.000 OA
ATOM     26  C   UNL     1      -1.286  11.617  22.987  0.00  0.00    +0.000 C 
BRANCH  26  27
ATOM     27  O   UNL     1      -0.303  10.733  23.212  0.00  0.00    +0.000 OA
ATOM     28  H   UNL     1       0.589  11.111  23.355  0.00  0.00    +0.000 HD
ENDBRANCH  26  27
ENDBRANCH  19  26
ENDBRANCH   1  24
TORSDOF 6
ENDMDL
MODEL 7
REMARK VINA RESULT:      -7.1      3.229      8.835
REMARK  Name = 
REMARK  6 active torsions:
REMARK  status: ('A' for Active; 'I' for Inactive)
REMARK    1  A    between atoms: C_2  and  O_3
REMARK    2  A    between atoms: C_2  and  C_4
REMARK    3  A    between atoms: C_9  and  C_10
REMARK    4  A    between atoms: N_12  and  N_13
REMARK    5  A    between atoms: C_16  and  C_17
REMARK    6  A    between atoms: C_17  and  C_18
REMARK                            x       y       z     vdW  Elec       q    Type
REMARK                         _______ _______ _______ _____ _____    ______ ____
ROOT
ATOM      1  C   UNL     1       0.686  10.036  21.861  0.00  0.00    +0.000 C 
ATOM      2  O   UNL     1       1.484   9.711  22.729  0.00  0.00    +0.000 OA
ATOM      3  N   UNL     1       0.616   9.474  20.595  0.00  0.00    +0.000 N 
ATOM      4  H   UNL     1       0.073   9.883  19.839  0.00  0.00    +0.000 HD
ENDROOT
BRANCH   3   5
ATOM      5  N   UNL     1       1.479   8.426  20.277  0.00  0.00    +0.000 N 
ATOM      6  C   UNL     1       1.342   7.190  20.970  0.00  0.00    +0.000 C 
ATOM      7  N   UNL     1       2.311   6.296  20.354  0.00  0.00    +0.000 NA
ATOM      8  C   UNL     1       2.740   6.915  19.071  0.00  0.00    +0.000 C 
ATOM      9  C   UNL     1       1.993   8.245  19.002  0.00  0.00    +0.000 C 
ATOM     10  O   UNL     1       1.868   8.977  18.034  0.00  0.00    +0.000 OA
ATOM     11  H   UNL     1       1.902   5.379  20.190  0.00  0.00    +0.000 HD
BRANCH   8  12
ATOM     12  C   UNL     1       2.478   6.056  17.825  0.00  0.00    +0.000 C 
BRANCH  12  13
ATOM     13  C   UNL     1       2.574   4.565  18.074  0.00  0.00    +0.000 A 
ATOM     14  C   UNL     1       3.825   3.944  18.199  0.00  0.00    +0.000 A 
ATOM     15  C   UNL     1       3.918   2.569  18.426  0.00  0.00    +0.000 A 
ATOM     16  C   UNL     1       2.763   1.799  18.537  0.00  0.00    +0.000 A 
ATOM     17  C   UNL     1       1.514   2.405  18.424  0.00  0.00    +0.000 A 
ATOM     18  C   UNL     1       1.418   3.779  18.196  0.00  0.00    +0.000 A 
ENDBRANCH  12  13
ENDBRANCH   8  12
ENDBRANCH   3   5
BRANCH   1  24
ATOM     19  C   UNL     1      -0.044  12.444  21.622  0.00  0.00    +0.000 A 
ATOM     20  C   UNL     1      -0.928  13.477  21.999  0.00  0.00    +0.000 A 
ATOM     21  C   UNL     1      -2.010  13.234  22.845  0.00  0.00    +0.000 A 
ATOM     22  C   UNL     1      -2.223  11.954  23.340  0.00  0.00    +0.000 A 
ATOM     23  C   UNL     1      -1.350  10.921  22.995  0.00  0.00    +0.000 A 
ATOM     24  C   UNL     1      -0.262  11.150  22.134  0.00  0.00    +0.000 A 
BRANCH  19  26
ATOM     25  O   UNL     1       1.028  12.538  19.514  0.00  0.00    +0.000 OA
ATOM     26  C   UNL     1       1.048  12.868  20.694  0.00  0.00    +0.000 C 
BRANCH  26  27
ATOM     27  O   UNL     1       2.137  13.390  21.279  0.00  0.00    +0.000 OA
ATOM     28  H   UNL     1       2.741  12.750  21.708  0.00  0.00    +0.000 HD
ENDBRANCH  26  27
ENDBRANCH  19  26
ENDBRANCH   1  24
TORSDOF 6
ENDMDL
MODEL 8
REMARK VINA RESULT:      -7.1      2.301      8.864
REMARK  Name = 
REMARK  6 active torsions:
REMARK  status: ('A' for Active; 'I' for Inactive)
REMARK    1  A    between atoms: C_2  and  O_3
REMARK    2  A    between atoms: C_2  and  C_4
REMARK    3  A    between atoms: C_9  and  C_10
REMARK    4  A    between atoms: N_12  and  N_13
REMARK    5  A    between atoms: C_16  and  C_17
REMARK    6  A    between atoms: C_17  and  C_18
REMARK                            x       y       z     vdW  Elec       q    Type
REMARK                         _______ _______ _______ _____ _____    ______ ____
ROOT
ATOM      1  C   UNL     1       0.716   9.772  21.315  0.00  0.00    +0.000 C 
ATOM      2  O   UNL     1       1.648   9.808  22.106  0.00  0.00    +0.000 OA
ATOM      3  N   UNL     1       0.628   8.913  20.229  0.00  0.00    +0.000 N 
ATOM      4  H   UNL     1      -0.060   9.027  19.490  0.00  0.00    +0.000 HD
ENDROOT
BRANCH   3   5
ATOM      5  N   UNL     1       1.644   7.980  20.027  0.00  0.00    +0.000 N 
ATOM      6  C   UNL     1       1.603   6.754  20.750  0.00  0.00    +0.000 C 
ATOM      7  N   UNL     1       2.731   5.979  20.255  0.00  0.00    +0.000 NA
ATOM      8  C   UNL     1       3.194   6.617  18.994  0.00  0.00    +0.000 C 
ATOM      9  C   UNL     1       2.293   7.836  18.810  0.00  0.00    +0.000 C 
ATOM     10  O   UNL     1       2.165   8.521  17.809  0.00  0.00    +0.000 OA
ATOM     11  H   UNL     1       2.460   5.012  20.090  0.00  0.00    +0.000 HD
BRANCH   8  12
ATOM     12  C   UNL     1       3.161   5.700  17.762  0.00  0.00    +0.000 C 
BRANCH  12  13
ATOM     13  C   UNL     1       4.526   5.405  17.177  0.00  0.00    +0.000 A 
ATOM     14  C   UNL     1       4.744   4.232  16.440  0.00  0.00    +0.000 A 
ATOM     15  C   UNL     1       6.002   3.954  15.900  0.00  0.00    +0.000 A 
ATOM     16  C   UNL     1       7.055   4.847  16.085  0.00  0.00    +0.000 A 
ATOM     17  C   UNL     1       6.849   6.020  16.808  0.00  0.00    +0.000 A 
ATOM     18  C   UNL     1       5.593   6.300  17.349  0.00  0.00    +0.000 A 
ENDBRANCH  12  13
ENDBRANCH   8  12
ENDBRANCH   3   5
BRANCH   1  24
ATOM     19  C   UNL     1      -1.030  11.326  20.354  0.00  0.00    +0.000 A 
ATOM     20  C   UNL     1      -2.014  12.313  20.573  0.00  0.00    +0.000 A 
ATOM     21  C   UNL     1      -2.380  12.700  21.863  0.00  0.00    +0.000 A 
ATOM     22  C   UNL     1      -1.759  12.116  22.959  0.00  0.00    +0.000 A 
ATOM     23  C   UNL     1      -0.770  11.150  22.765  0.00  0.00    +0.000 A 
ATOM     24  C   UNL     1      -0.400  10.743  21.471  0.00  0.00    +0.000 A 
BRANCH  19  26
ATOM     25  O   UNL     1      -1.548  10.304  18.283  0.00  0.00    +0.000 OA
ATOM     26  C   UNL     1      -0.773  11.013  18.916  0.00  0.00    +0.000 C 
BRANCH  26  27
ATOM     27  O   UNL     1       0.448  11.333  18.461  0.00  0.00    +0.000 OA
ATOM     28  H   UNL     1       0.580  11.253  17.493  0.00  0.00    +0.000 HD
ENDBRANCH  26  27
ENDBRANCH  19  26
ENDBRANCH   1  24
TORSDOF 6
ENDMDL
MODEL 9
REMARK VINA RESULT:      -7.0      0.966      1.568
REMARK  Name = 
REMARK  6 active torsions:
REMARK  status: ('A' for Active; 'I' for Inactive)
REMARK    1  A    between atoms: C_2  and  O_3
REMARK    2  A    between atoms: C_2  and  C_4
REMARK    3  A    between atoms: C_9  and  C_10
REMARK    4  A    between atoms: N_12  and  N_13
REMARK    5  A    between atoms: C_16  and  C_17
REMARK    6  A    between atoms: C_17  and  C_18
REMARK                            x       y       z     vdW  Elec       q    Type
REMARK                         _______ _______ _______ _____ _____    ______ ____
ROOT
ATOM      1  C   UNL     1       3.583   5.849  17.586  0.00  0.00    +0.000 C 
ATOM      2  O   UNL     1       2.637   5.094  17.760  0.00  0.00    +0.000 OA
ATOM      3  N   UNL     1       3.613   7.184  17.960  0.00  0.00    +0.000 N 
ATOM      4  H   UNL     1       4.332   7.829  17.643  0.00  0.00    +0.000 HD
ENDROOT
BRANCH   3   5
ATOM      5  N   UNL     1       2.513   7.720  18.627  0.00  0.00    +0.000 N 
ATOM      6  C   UNL     1       2.346   7.437  20.013  0.00  0.00    +0.000 C 
ATOM      7  N   UNL     1       1.178   8.202  20.423  0.00  0.00    +0.000 NA
ATOM      8  C   UNL     1       0.901   9.202  19.358  0.00  0.00    +0.000 C 
ATOM      9  C   UNL     1       1.955   8.942  18.283  0.00  0.00    +0.000 C 
ATOM     10  O   UNL     1       2.246   9.658  17.339  0.00  0.00    +0.000 OA
ATOM     11  H   UNL     1       1.344   8.664  21.314  0.00  0.00    +0.000 HD
BRANCH   8  12
ATOM     12  C   UNL     1       0.926  10.664  19.829  0.00  0.00    +0.000 C 
BRANCH  12  13
ATOM     13  C   UNL     1      -0.085  10.979  20.912  0.00  0.00    +0.000 A 
ATOM     14  C   UNL     1      -0.023  10.328  22.152  0.00  0.00    +0.000 A 
ATOM     15  C   UNL     1      -0.954  10.614  23.153  0.00  0.00    +0.000 A 
ATOM     16  C   UNL     1      -1.954  11.558  22.929  0.00  0.00    +0.000 A 
ATOM     17  C   UNL     1      -2.021  12.218  21.705  0.00  0.00    +0.000 A 
ATOM     18  C   UNL     1      -1.092  11.934  20.702  0.00  0.00    +0.000 A 
ENDBRANCH  12  13
ENDBRANCH   8  12
ENDBRANCH   3   5
BRANCH   1  24
ATOM     19  C   UNL     1       5.852   4.736  17.572  0.00  0.00    +0.000 A 
ATOM     20  C   UNL     1       7.007   4.367  16.851  0.00  0.00    +0.000 A 
ATOM     21  C   UNL     1       7.100   4.573  15.474  0.00  0.00    +0.000 A 
ATOM     22  C   UNL     1       6.044   5.165  14.794  0.00  0.00    +0.000 A 
ATOM     23  C   UNL     1       4.899   5.555  15.491  0.00  0.00    +0.000 A 
ATOM     24  C   UNL     1       4.788   5.342  16.876  0.00  0.00    +0.000 A 
BRANCH  19  26
ATOM     25  O   UNL     1       5.208   3.537  19.508  0.00  0.00    +0.000 OA
ATOM     26  C   UNL     1       5.906   4.426  19.033  0.00  0.00    +0.000 C 
BRANCH  26  27
ATOM     27  O   UNL     1       6.549   5.324  19.794  0.00  0.00    +0.000 OA
ATOM     28  H   UNL     1       6.208   6.241  19.755  0.00  0.00    +0.000 HD
ENDBRANCH  26  27
ENDBRANCH  19  26
ENDBRANCH   1  24
TORSDOF 6
ENDMDL
