MODEL 1
REMARK VINA RESULT:      -7.2      0.000      0.000
REMARK  Name = 
REMARK  9 active torsions:
REMARK  status: ('A' for Active; 'I' for Inactive)
REMARK    1  A    between atoms: C_1  and  C_2
REMARK    2  A    between atoms: C_2  and  N_3
REMARK    3  A    between atoms: N_3  and  C_4
REMARK    4  A    between atoms: N_3  and  C_15
REMARK    5  A    between atoms: C_4  and  C_5
REMARK    6  A    between atoms: C_8  and  O_9
REMARK    7  A    between atoms: C_10  and  C_11
REMARK    8  A    between atoms: C_11  and  O_13
REMARK    9  A    between atoms: C_15  and  C_16
REMARK                            x       y       z     vdW  Elec       q    Type
REMARK                         _______ _______ _______ _____ _____    ______ ____
ROOT
ATOM      1  C   UNL     1       2.571   4.621  18.885  0.00  0.00    +0.000 A 
ATOM      2  C   UNL     1       1.575   4.737  19.870  0.00  0.00    +0.000 A 
ATOM      3  C   UNL     1       1.583   3.918  20.995  0.00  0.00    +0.000 A 
ATOM      4  C   UNL     1       2.573   2.951  21.141  0.00  0.00    +0.000 A 
ATOM      5  C   UNL     1       3.531   2.750  20.135  0.00  0.00    +0.000 A 
ATOM      6  C   UNL     1       3.530   3.603  19.018  0.00  0.00    +0.000 A 
ENDROOT
BRANCH   4   7
ATOM      7  O   UNL     1       2.602   2.203  22.292  0.00  0.00    +0.000 OA
ATOM      8  H   UNL     1       2.755   1.271  22.048  0.00  0.00    +0.000 HD
ENDBRANCH   4   7
BRANCH   5   9
ATOM      9  C   UNL     1       4.571   1.674  20.195  0.00  0.00    +0.000 C 
ATOM     10  O   UNL     1       5.332   1.557  21.140  0.00  0.00    +0.000 OA
BRANCH   9  11
ATOM     11  O   UNL     1       4.615   0.853  19.129  0.00  0.00    +0.000 OA
ATOM     12  H   UNL     1       4.239  -0.032  19.328  0.00  0.00    +0.000 HD
ENDBRANCH   9  11
ENDBRANCH   5   9
BRANCH   1  13
ATOM     13  C   UNL     1       2.606   5.627  17.750  0.00  0.00    +0.000 C 
BRANCH  13  14
ATOM     14  N   UNL     1       3.308   6.893  18.034  0.00  0.00    +0.000 NA
BRANCH  14  16
ATOM     15  C   UNL     1       1.784   8.483  19.332  0.00  0.00    +0.000 C 
ATOM     16  C   UNL     1       2.370   8.036  17.987  0.00  0.00    +0.000 C 
ENDBRANCH  14  16
BRANCH  14  17
ATOM     17  C   UNL     1       4.470   7.083  17.145  0.00  0.00    +0.000 C 
BRANCH  17  18
ATOM     18  C   UNL     1       5.332   5.818  16.972  0.00  0.00    +0.000 C 
ATOM     19  C   UNL     1       6.607   5.922  17.818  0.00  0.00    +0.000 C 
ATOM     20  C   UNL     1       7.484   4.698  17.593  0.00  0.00    +0.000 C 
ATOM     21  O   UNL     1       7.808   4.558  16.211  0.00  0.00    +0.000 OA
ATOM     22  C   UNL     1       6.649   4.369  15.399  0.00  0.00    +0.000 C 
ATOM     23  C   UNL     1       5.710   5.564  15.506  0.00  0.00    +0.000 C 
ENDBRANCH  17  18
ENDBRANCH  14  17
ENDBRANCH  13  14
ENDBRANCH   1  13
TORSDOF 8
ENDMDL
MODEL 2
REMARK VINA RESULT:      -7.0      3.009      5.878
REMARK  Name = 
REMARK  9 active torsions:
REMARK  status: ('A' for Active; 'I' for Inactive)
REMARK    1  A    between atoms: C_1  and  C_2
REMARK    2  A    between atoms: C_2  and  N_3
REMARK    3  A    between atoms: N_3  and  C_4
REMARK    4  A    between atoms: N_3  and  C_15
REMARK    5  A    between atoms: C_4  and  C_5
REMARK    6  A    between atoms: C_8  and  O_9
REMARK    7  A    between atoms: C_10  and  C_11
REMARK    8  A    between atoms: C_11  and  O_13
REMARK    9  A    between atoms: C_15  and  C_16
REMARK                            x       y       z     vdW  Elec       q    Type
REMARK                         _______ _______ _______ _____ _____    ______ ____
ROOT
ATOM      1  C   UNL     1       5.013   4.141  18.059  0.00  0.00    +0.000 A 
ATOM      2  C   UNL     1       5.686   5.054  18.889  0.00  0.00    +0.000 A 
ATOM      3  C   UNL     1       6.623   5.940  18.366  0.00  0.00    +0.000 A 
ATOM      4  C   UNL     1       6.922   5.908  17.007  0.00  0.00    +0.000 A 
ATOM      5  C   UNL     1       6.333   4.952  16.166  0.00  0.00    +0.000 A 
ATOM      6  C   UNL     1       5.366   4.083  16.700  0.00  0.00    +0.000 A 
ENDROOT
BRANCH   4   7
ATOM      7  O   UNL     1       7.797   6.839  16.501  0.00  0.00    +0.000 OA
ATOM      8  H   UNL     1       7.731   6.823  15.528  0.00  0.00    +0.000 HD
ENDBRANCH   4   7
BRANCH   5   9
ATOM      9  C   UNL     1       6.673   4.815  14.714  0.00  0.00    +0.000 C 
ATOM     10  O   UNL     1       7.644   5.359  14.219  0.00  0.00    +0.000 OA
BRANCH   9  11
ATOM     11  O   UNL     1       5.827   4.056  13.991  0.00  0.00    +0.000 OA
ATOM     12  H   UNL     1       5.046   3.771  14.513  0.00  0.00    +0.000 HD
ENDBRANCH   9  11
ENDBRANCH   5   9
BRANCH   1  13
ATOM     13  C   UNL     1       3.898   3.295  18.645  0.00  0.00    +0.000 C 
BRANCH  13  14
ATOM     14  N   UNL     1       3.329   3.774  19.919  0.00  0.00    +0.000 NA
BRANCH  14  16
ATOM     15  C   UNL     1       1.732   2.637  21.559  0.00  0.00    +0.000 C 
ATOM     16  C   UNL     1       3.087   2.644  20.844  0.00  0.00    +0.000 C 
ENDBRANCH  14  16
BRANCH  14  17
ATOM     17  C   UNL     1       2.121   4.592  19.703  0.00  0.00    +0.000 C 
BRANCH  17  18
ATOM     18  C   UNL     1       2.398   6.107  19.665  0.00  0.00    +0.000 C 
ATOM     19  C   UNL     1       1.415   6.851  20.578  0.00  0.00    +0.000 C 
ATOM     20  C   UNL     1       1.652   8.353  20.486  0.00  0.00    +0.000 C 
ATOM     21  O   UNL     1       1.524   8.802  19.138  0.00  0.00    +0.000 OA
ATOM     22  C   UNL     1       2.484   8.196  18.272  0.00  0.00    +0.000 C 
ATOM     23  C   UNL     1       2.312   6.682  18.244  0.00  0.00    +0.000 C 
ENDBRANCH  17  18
ENDBRANCH  14  17
ENDBRANCH  13  14
ENDBRANCH   1  13
TORSDOF 8
ENDMDL
MODEL 3
REMARK VINA RESULT:      -6.8      2.833      5.869
REMARK  Name = 
REMARK  9 active torsions:
REMARK  status: ('A' for Active; 'I' for Inactive)
REMARK    1  A    between atoms: C_1  and  C_2
REMARK    2  A    between atoms: C_2  and  N_3
REMARK    3  A    between atoms: N_3  and  C_4
REMARK    4  A    between atoms: N_3  and  C_15
REMARK    5  A    between atoms: C_4  and  C_5
REMARK    6  A    between atoms: C_8  and  O_9
REMARK    7  A    between atoms: C_10  and  C_11
REMARK    8  A    between atoms: C_11  and  O_13
REMARK    9  A    between atoms: C_15  and  C_16
REMARK                            x       y       z     vdW  Elec       q    Type
REMARK                         _______ _______ _______ _____ _____    ______ ____
ROOT
ATOM      1  C   UNL     1       4.839   3.857  17.618  0.00  0.00    +0.000 A 
ATOM      2  C   UNL     1       4.840   3.625  16.232  0.00  0.00    +0.000 A 
ATOM      3  C   UNL     1       5.748   4.272  15.398  0.00  0.00    +0.000 A 
ATOM      4  C   UNL     1       6.653   5.183  15.936  0.00  0.00    +0.000 A 
ATOM      5  C   UNL     1       6.621   5.503  17.302  0.00  0.00    +0.000 A 
ATOM      6  C   UNL     1       5.719   4.821  18.137  0.00  0.00    +0.000 A 
ENDROOT
BRANCH   4   7
ATOM      7  O   UNL     1       7.587   5.755  15.107  0.00  0.00    +0.000 OA
ATOM      8  H   UNL     1       7.804   5.115  14.403  0.00  0.00    +0.000 HD
ENDBRANCH   4   7
BRANCH   5   9
ATOM      9  C   UNL     1       7.513   6.532  17.926  0.00  0.00    +0.000 C 
ATOM     10  O   UNL     1       8.035   6.366  19.014  0.00  0.00    +0.000 OA
BRANCH   9  11
ATOM     11  O   UNL     1       7.689   7.657  17.206  0.00  0.00    +0.000 OA
ATOM     12  H   UNL     1       7.981   7.467  16.288  0.00  0.00    +0.000 HD
ENDBRANCH   9  11
ENDBRANCH   5   9
BRANCH   1  13
ATOM     13  C   UNL     1       3.930   3.026  18.503  0.00  0.00    +0.000 C 
BRANCH  13  14
ATOM     14  N   UNL     1       3.400   3.706  19.700  0.00  0.00    +0.000 NA
BRANCH  14  16
ATOM     15  C   UNL     1       2.032   3.110  21.776  0.00  0.00    +0.000 C 
ATOM     16  C   UNL     1       3.138   2.734  20.785  0.00  0.00    +0.000 C 
ENDBRANCH  14  16
BRANCH  14  17
ATOM     17  C   UNL     1       2.216   4.526  19.382  0.00  0.00    +0.000 C 
BRANCH  17  18
ATOM     18  C   UNL     1       2.463   6.042  19.499  0.00  0.00    +0.000 C 
ATOM     19  C   UNL     1       1.471   6.669  20.487  0.00  0.00    +0.000 C 
ATOM     20  C   UNL     1       1.677   8.177  20.549  0.00  0.00    +0.000 C 
ATOM     21  O   UNL     1       1.533   8.758  19.254  0.00  0.00    +0.000 OA
ATOM     22  C   UNL     1       2.500   8.263  18.327  0.00  0.00    +0.000 C 
ATOM     23  C   UNL     1       2.358   6.758  18.144  0.00  0.00    +0.000 C 
ENDBRANCH  17  18
ENDBRANCH  14  17
ENDBRANCH  13  14
ENDBRANCH   1  13
TORSDOF 8
ENDMDL
MODEL 4
REMARK VINA RESULT:      -6.8      1.818      5.410
REMARK  Name = 
REMARK  9 active torsions:
REMARK  status: ('A' for Active; 'I' for Inactive)
REMARK    1  A    between atoms: C_1  and  C_2
REMARK    2  A    between atoms: C_2  and  N_3
REMARK    3  A    between atoms: N_3  and  C_4
REMARK    4  A    between atoms: N_3  and  C_15
REMARK    5  A    between atoms: C_4  and  C_5
REMARK    6  A    between atoms: C_8  and  O_9
REMARK    7  A    between atoms: C_10  and  C_11
REMARK    8  A    between atoms: C_11  and  O_13
REMARK    9  A    between atoms: C_15  and  C_16
REMARK                            x       y       z     vdW  Elec       q    Type
REMARK                         _______ _______ _______ _____ _____    ______ ____
ROOT
ATOM      1  C   UNL     1       4.870   6.504  17.471  0.00  0.00    +0.000 A 
ATOM      2  C   UNL     1       5.494   5.968  18.610  0.00  0.00    +0.000 A 
ATOM      3  C   UNL     1       6.589   5.116  18.493  0.00  0.00    +0.000 A 
ATOM      4  C   UNL     1       7.059   4.765  17.231  0.00  0.00    +0.000 A 
ATOM      5  C   UNL     1       6.405   5.211  16.072  0.00  0.00    +0.000 A 
ATOM      6  C   UNL     1       5.320   6.095  16.204  0.00  0.00    +0.000 A 
ENDROOT
BRANCH   4   7
ATOM      7  O   UNL     1       8.183   3.981  17.140  0.00  0.00    +0.000 OA
ATOM      8  H   UNL     1       8.060   3.354  16.402  0.00  0.00    +0.000 HD
ENDBRANCH   4   7
BRANCH   5   9
ATOM      9  C   UNL     1       6.813   4.803  14.690  0.00  0.00    +0.000 C 
ATOM     10  O   UNL     1       6.206   3.958  14.056  0.00  0.00    +0.000 OA
BRANCH   9  11
ATOM     11  O   UNL     1       7.901   5.427  14.200  0.00  0.00    +0.000 OA
ATOM     12  H   UNL     1       7.770   5.730  13.275  0.00  0.00    +0.000 HD
ENDBRANCH   9  11
ENDBRANCH   5   9
BRANCH   1  13
ATOM     13  C   UNL     1       3.774   7.538  17.649  0.00  0.00    +0.000 C 
BRANCH  13  14
ATOM     14  N   UNL     1       2.473   7.023  18.115  0.00  0.00    +0.000 NA
BRANCH  14  16
ATOM     15  C   UNL     1       1.917   9.507  17.880  0.00  0.00    +0.000 C 
ATOM     16  C   UNL     1       1.424   8.061  17.996  0.00  0.00    +0.000 C 
ENDBRANCH  14  16
BRANCH  14  17
ATOM     17  C   UNL     1       2.563   6.468  19.479  0.00  0.00    +0.000 C 
BRANCH  17  18
ATOM     18  C   UNL     1       1.767   5.164  19.671  0.00  0.00    +0.000 C 
ATOM     19  C   UNL     1       2.216   4.449  20.951  0.00  0.00    +0.000 C 
ATOM     20  C   UNL     1       1.471   3.129  21.102  0.00  0.00    +0.000 C 
ATOM     21  O   UNL     1       1.682   2.299  19.961  0.00  0.00    +0.000 OA
ATOM     22  C   UNL     1       1.194   2.895  18.760  0.00  0.00    +0.000 C 
ATOM     23  C   UNL     1       1.908   4.211  18.476  0.00  0.00    +0.000 C 
ENDBRANCH  17  18
ENDBRANCH  14  17
ENDBRANCH  13  14
ENDBRANCH   1  13
TORSDOF 8
ENDMDL
MODEL 5
REMARK VINA RESULT:      -6.7      3.626      5.599
REMARK  Name = 
REMARK  9 active torsions:
REMARK  status: ('A' for Active; 'I' for Inactive)
REMARK    1  A    between atoms: C_1  and  C_2
REMARK    2  A    between atoms: C_2  and  N_3
REMARK    3  A    between atoms: N_3  and  C_4
REMARK    4  A    between atoms: N_3  and  C_15
REMARK    5  A    between atoms: C_4  and  C_5
REMARK    6  A    between atoms: C_8  and  O_9
REMARK    7  A    between atoms: C_10  and  C_11
REMARK    8  A    between atoms: C_11  and  O_13
REMARK    9  A    between atoms: C_15  and  C_16
REMARK                            x       y       z     vdW  Elec       q    Type
REMARK                         _______ _______ _______ _____ _____    ______ ____
ROOT
ATOM      1  C   UNL     1       2.290   7.027  19.511  0.00  0.00    +0.000 A 
ATOM      2  C   UNL     1       2.460   7.407  18.168  0.00  0.00    +0.000 A 
ATOM      3  C   UNL     1       2.066   8.667  17.726  0.00  0.00    +0.000 A 
ATOM      4  C   UNL     1       1.471   9.557  18.615  0.00  0.00    +0.000 A 
ATOM      5  C   UNL     1       1.208   9.178  19.941  0.00  0.00    +0.000 A 
ATOM      6  C   UNL     1       1.637   7.915  20.382  0.00  0.00    +0.000 A 
ENDROOT
BRANCH   4   7
ATOM      7  O   UNL     1       1.155  10.819  18.175  0.00  0.00    +0.000 OA
ATOM      8  H   UNL     1       1.346  11.451  18.893  0.00  0.00    +0.000 HD
ENDBRANCH   4   7
BRANCH   5   9
ATOM      9  C   UNL     1       0.499  10.059  20.922  0.00  0.00    +0.000 C 
ATOM     10  O   UNL     1       0.954  10.301  22.026  0.00  0.00    +0.000 OA
BRANCH   9  11
ATOM     11  O   UNL     1      -0.680  10.558  20.504  0.00  0.00    +0.000 OA
ATOM     12  H   UNL     1      -0.745  10.587  19.525  0.00  0.00    +0.000 HD
ENDBRANCH   9  11
ENDBRANCH   5   9
BRANCH   1  13
ATOM     13  C   UNL     1       2.864   5.703  19.979  0.00  0.00    +0.000 C 
BRANCH  13  14
ATOM     14  N   UNL     1       3.024   4.668  18.940  0.00  0.00    +0.000 NA
BRANCH  14  16
ATOM     15  C   UNL     1       1.104   3.633  20.273  0.00  0.00    +0.000 C 
ATOM     16  C   UNL     1       1.884   3.725  18.956  0.00  0.00    +0.000 C 
ENDBRANCH  14  16
BRANCH  14  17
ATOM     17  C   UNL     1       4.324   3.980  19.052  0.00  0.00    +0.000 C 
BRANCH  17  18
ATOM     18  C   UNL     1       5.344   4.403  17.978  0.00  0.00    +0.000 C 
ATOM     19  C   UNL     1       6.231   5.538  18.504  0.00  0.00    +0.000 C 
ATOM     20  C   UNL     1       7.194   5.996  17.416  0.00  0.00    +0.000 C 
ATOM     21  O   UNL     1       6.480   6.413  16.254  0.00  0.00    +0.000 OA
ATOM     22  C   UNL     1       5.710   5.355  15.683  0.00  0.00    +0.000 C 
ATOM     23  C   UNL     1       4.669   4.844  16.672  0.00  0.00    +0.000 C 
ENDBRANCH  17  18
ENDBRANCH  14  17
ENDBRANCH  13  14
ENDBRANCH   1  13
TORSDOF 8
ENDMDL
MODEL 6
REMARK VINA RESULT:      -6.7      2.905      5.830
REMARK  Name = 
REMARK  9 active torsions:
REMARK  status: ('A' for Active; 'I' for Inactive)
REMARK    1  A    between atoms: C_1  and  C_2
REMARK    2  A    between atoms: C_2  and  N_3
REMARK    3  A    between atoms: N_3  and  C_4
REMARK    4  A    between atoms: N_3  and  C_15
REMARK    5  A    between atoms: C_4  and  C_5
REMARK    6  A    between atoms: C_8  and  O_9
REMARK    7  A    between atoms: C_10  and  C_11
REMARK    8  A    between atoms: C_11  and  O_13
REMARK    9  A    between atoms: C_15  and  C_16
REMARK                            x       y       z     vdW  Elec       q    Type
REMARK                         _______ _______ _______ _____ _____    ______ ____
ROOT
ATOM      1  C   UNL     1       5.504   4.129  18.434  0.00  0.00    +0.000 A 
ATOM      2  C   UNL     1       6.048   5.201  19.163  0.00  0.00    +0.000 A 
ATOM      3  C   UNL     1       6.811   6.181  18.533  0.00  0.00    +0.000 A 
ATOM      4  C   UNL     1       7.064   6.089  17.168  0.00  0.00    +0.000 A 
ATOM      5  C   UNL     1       6.610   4.986  16.427  0.00  0.00    +0.000 A 
ATOM      6  C   UNL     1       5.816   4.020  17.068  0.00  0.00    +0.000 A 
ENDROOT
BRANCH   4   7
ATOM      7  O   UNL     1       7.759   7.103  16.555  0.00  0.00    +0.000 OA
ATOM      8  H   UNL     1       7.808   7.857  17.173  0.00  0.00    +0.000 HD
ENDBRANCH   4   7
BRANCH   5   9
ATOM      9  C   UNL     1       6.919   4.789  14.975  0.00  0.00    +0.000 C 
ATOM     10  O   UNL     1       7.773   5.439  14.398  0.00  0.00    +0.000 OA
BRANCH   9  11
ATOM     11  O   UNL     1       6.181   3.853  14.349  0.00  0.00    +0.000 OA
ATOM     12  H   UNL     1       5.945   3.108  14.944  0.00  0.00    +0.000 HD
ENDBRANCH   9  11
ENDBRANCH   5   9
BRANCH   1  13
ATOM     13  C   UNL     1       4.563   3.166  19.132  0.00  0.00    +0.000 C 
BRANCH  13  14
ATOM     14  N   UNL     1       3.123   3.452  18.983  0.00  0.00    +0.000 NA
BRANCH  14  16
ATOM     15  C   UNL     1       0.844   2.317  18.758  0.00  0.00    +0.000 C 
ATOM     16  C   UNL     1       2.371   2.215  18.676  0.00  0.00    +0.000 C 
ENDBRANCH  14  16
BRANCH  14  17
ATOM     17  C   UNL     1       2.879   4.519  17.994  0.00  0.00    +0.000 C 
BRANCH  17  18
ATOM     18  C   UNL     1       2.138   5.740  18.569  0.00  0.00    +0.000 C 
ATOM     19  C   UNL     1       2.799   7.038  18.091  0.00  0.00    +0.000 C 
ATOM     20  C   UNL     1       2.101   8.240  18.715  0.00  0.00    +0.000 C 
ATOM     21  O   UNL     1       2.129   8.156  20.138  0.00  0.00    +0.000 OA
ATOM     22  C   UNL     1       1.444   7.002  20.626  0.00  0.00    +0.000 C 
ATOM     23  C   UNL     1       2.089   5.725  20.104  0.00  0.00    +0.000 C 
ENDBRANCH  17  18
ENDBRANCH  14  17
ENDBRANCH  13  14
ENDBRANCH   1  13
TORSDOF 8
ENDMDL
MODEL 7
REMARK VINA RESULT:      -6.7      3.444      5.492
REMARK  Name = 
REMARK  9 active torsions:
REMARK  status: ('A' for Active; 'I' for Inactive)
REMARK    1  A    between atoms: C_1  and  C_2
REMARK    2  A    between atoms: C_2  and  N_3
REMARK    3  A    between atoms: N_3  and  C_4
REMARK    4  A    between atoms: N_3  and  C_15
REMARK    5  A    between atoms: C_4  and  C_5
REMARK    6  A    between atoms: C_8  and  O_9
REMARK    7  A    between atoms: C_10  and  C_11
REMARK    8  A    between atoms: C_11  and  O_13
REMARK    9  A    between atoms: C_15  and  C_16
REMARK                            x       y       z     vdW  Elec       q    Type
REMARK                         _______ _______ _______ _____ _____    ______ ____
ROOT
ATOM      1  C   UNL     1       2.350   7.109  19.187  0.00  0.00    +0.000 A 
ATOM      2  C   UNL     1       2.277   7.810  17.972  0.00  0.00    +0.000 A 
ATOM      3  C   UNL     1       1.743   9.095  17.918  0.00  0.00    +0.000 A 
ATOM      4  C   UNL     1       1.249   9.688  19.076  0.00  0.00    +0.000 A 
ATOM      5  C   UNL     1       1.228   8.983  20.289  0.00  0.00    +0.000 A 
ATOM      6  C   UNL     1       1.797   7.698  20.336  0.00  0.00    +0.000 A 
ENDROOT
BRANCH   4   7
ATOM      7  O   UNL     1       0.793  10.982  19.013  0.00  0.00    +0.000 OA
ATOM      8  H   UNL     1       1.041  11.435  19.840  0.00  0.00    +0.000 HD
ENDBRANCH   4   7
BRANCH   5   9
ATOM      9  C   UNL     1       0.637   9.534  21.550  0.00  0.00    +0.000 C 
ATOM     10  O   UNL     1      -0.486  10.005  21.590  0.00  0.00    +0.000 OA
BRANCH   9  11
ATOM     11  O   UNL     1       1.436   9.484  22.633  0.00  0.00    +0.000 OA
ATOM     12  H   UNL     1       2.267   8.992  22.458  0.00  0.00    +0.000 HD
ENDBRANCH   9  11
ENDBRANCH   5   9
BRANCH   1  13
ATOM     13  C   UNL     1       3.068   5.773  19.225  0.00  0.00    +0.000 C 
BRANCH  13  14
ATOM     14  N   UNL     1       2.703   4.817  18.162  0.00  0.00    +0.000 NA
BRANCH  14  16
ATOM     15  C   UNL     1       1.204   3.863  20.000  0.00  0.00    +0.000 C 
ATOM     16  C   UNL     1       1.455   4.100  18.507  0.00  0.00    +0.000 C 
ENDBRANCH  14  16
BRANCH  14  17
ATOM     17  C   UNL     1       3.813   3.896  17.853  0.00  0.00    +0.000 C 
BRANCH  17  18
ATOM     18  C   UNL     1       5.075   4.602  17.322  0.00  0.00    +0.000 C 
ATOM     19  C   UNL     1       5.548   3.942  16.021  0.00  0.00    +0.000 C 
ATOM     20  C   UNL     1       6.832   4.604  15.537  0.00  0.00    +0.000 C 
ATOM     21  O   UNL     1       7.846   4.527  16.537  0.00  0.00    +0.000 OA
ATOM     22  C   UNL     1       7.477   5.209  17.736  0.00  0.00    +0.000 C 
ATOM     23  C   UNL     1       6.221   4.598  18.345  0.00  0.00    +0.000 C 
ENDBRANCH  17  18
ENDBRANCH  14  17
ENDBRANCH  13  14
ENDBRANCH   1  13
TORSDOF 8
ENDMDL
MODEL 8
REMARK VINA RESULT:      -6.6      1.609      5.307
REMARK  Name = 
REMARK  9 active torsions:
REMARK  status: ('A' for Active; 'I' for Inactive)
REMARK    1  A    between atoms: C_1  and  C_2
REMARK    2  A    between atoms: C_2  and  N_3
REMARK    3  A    between atoms: N_3  and  C_4
REMARK    4  A    between atoms: N_3  and  C_15
REMARK    5  A    between atoms: C_4  and  C_5
REMARK    6  A    between atoms: C_8  and  O_9
REMARK    7  A    between atoms: C_10  and  C_11
REMARK    8  A    between atoms: C_11  and  O_13
REMARK    9  A    between atoms: C_15  and  C_16
REMARK                            x       y       z     vdW  Elec       q    Type
REMARK                         _______ _______ _______ _____ _____    ______ ____
ROOT
ATOM      1  C   UNL     1       4.737   6.392  17.521  0.00  0.00    +0.000 A 
ATOM      2  C   UNL     1       5.420   5.924  18.657  0.00  0.00    +0.000 A 
ATOM      3  C   UNL     1       6.567   5.145  18.531  0.00  0.00    +0.000 A 
ATOM      4  C   UNL     1       7.033   4.798  17.266  0.00  0.00    +0.000 A 
ATOM      5  C   UNL     1       6.325   5.174  16.114  0.00  0.00    +0.000 A 
ATOM      6  C   UNL     1       5.186   5.986  16.253  0.00  0.00    +0.000 A 
ENDROOT
BRANCH   4   7
ATOM      7  O   UNL     1       8.205   4.089  17.165  0.00  0.00    +0.000 OA
ATOM      8  H   UNL     1       8.012   3.151  17.351  0.00  0.00    +0.000 HD
ENDBRANCH   4   7
BRANCH   5   9
ATOM      9  C   UNL     1       6.729   4.765  14.732  0.00  0.00    +0.000 C 
ATOM     10  O   UNL     1       6.129   3.909  14.106  0.00  0.00    +0.000 OA
BRANCH   9  11
ATOM     11  O   UNL     1       7.807   5.399  14.232  0.00  0.00    +0.000 OA
ATOM     12  H   UNL     1       7.609   5.856  13.386  0.00  0.00    +0.000 HD
ENDBRANCH   9  11
ENDBRANCH   5   9
BRANCH   1  13
ATOM     13  C   UNL     1       3.578   7.354  17.703  0.00  0.00    +0.000 C 
BRANCH  13  14
ATOM     14  N   UNL     1       2.362   6.788  18.317  0.00  0.00    +0.000 NA
BRANCH  14  16
ATOM     15  C   UNL     1       1.649   7.806  20.551  0.00  0.00    +0.000 C 
ATOM     16  C   UNL     1       2.480   6.766  19.792  0.00  0.00    +0.000 C 
ENDBRANCH  14  16
BRANCH  14  17
ATOM     17  C   UNL     1       2.036   5.462  17.759  0.00  0.00    +0.000 C 
BRANCH  17  18
ATOM     18  C   UNL     1       2.325   4.296  18.723  0.00  0.00    +0.000 C 
ATOM     19  C   UNL     1       3.006   3.143  17.976  0.00  0.00    +0.000 C 
ATOM     20  C   UNL     1       3.231   1.969  18.921  0.00  0.00    +0.000 C 
ATOM     21  O   UNL     1       1.996   1.539  19.492  0.00  0.00    +0.000 OA
ATOM     22  C   UNL     1       1.375   2.561  20.271  0.00  0.00    +0.000 C 
ATOM     23  C   UNL     1       1.055   3.780  19.414  0.00  0.00    +0.000 C 
ENDBRANCH  17  18
ENDBRANCH  14  17
ENDBRANCH  13  14
ENDBRANCH   1  13
TORSDOF 8
ENDMDL
MODEL 9
REMARK VINA RESULT:      -6.6      1.808      4.973
REMARK  Name = 
REMARK  9 active torsions:
REMARK  status: ('A' for Active; 'I' for Inactive)
REMARK    1  A    between atoms: C_1  and  C_2
REMARK    2  A    between atoms: C_2  and  N_3
REMARK    3  A    between atoms: N_3  and  C_4
REMARK    4  A    between atoms: N_3  and  C_15
REMARK    5  A    between atoms: C_4  and  C_5
REMARK    6  A    between atoms: C_8  and  O_9
REMARK    7  A    between atoms: C_10  and  C_11
REMARK    8  A    between atoms: C_11  and  O_13
REMARK    9  A    between atoms: C_15  and  C_16
REMARK                            x       y       z     vdW  Elec       q    Type
REMARK                         _______ _______ _______ _____ _____    ______ ____
ROOT
ATOM      1  C   UNL     1       4.823   6.478  17.107  0.00  0.00    +0.000 A 
ATOM      2  C   UNL     1       5.004   5.526  16.089  0.00  0.00    +0.000 A 
ATOM      3  C   UNL     1       6.127   4.704  16.070  0.00  0.00    +0.000 A 
ATOM      4  C   UNL     1       7.102   4.840  17.054  0.00  0.00    +0.000 A 
ATOM      5  C   UNL     1       6.995   5.839  18.034  0.00  0.00    +0.000 A 
ATOM      6  C   UNL     1       5.842   6.642  18.061  0.00  0.00    +0.000 A 
ENDROOT
BRANCH   4   7
ATOM      7  O   UNL     1       8.166   3.971  17.055  0.00  0.00    +0.000 OA
ATOM      8  H   UNL     1       8.794   4.256  16.365  0.00  0.00    +0.000 HD
ENDBRANCH   4   7
BRANCH   5   9
ATOM      9  C   UNL     1       8.048   6.089  19.069  0.00  0.00    +0.000 C 
ATOM     10  O   UNL     1       8.388   5.236  19.870  0.00  0.00    +0.000 OA
BRANCH   9  11
ATOM     11  O   UNL     1       8.586   7.323  19.061  0.00  0.00    +0.000 OA
ATOM     12  H   UNL     1       7.957   7.999  18.727  0.00  0.00    +0.000 HD
ENDBRANCH   9  11
ENDBRANCH   5   9
BRANCH   1  13
ATOM     13  C   UNL     1       3.520   7.251  17.170  0.00  0.00    +0.000 C 
BRANCH  13  14
ATOM     14  N   UNL     1       2.604   6.879  18.265  0.00  0.00    +0.000 NA
BRANCH  14  16
ATOM     15  C   UNL     1       1.673   9.229  17.883  0.00  0.00    +0.000 C 
ATOM     16  C   UNL     1       1.971   8.081  18.853  0.00  0.00    +0.000 C 
ENDBRANCH  14  16
BRANCH  14  17
ATOM     17  C   UNL     1       3.276   6.045  19.279  0.00  0.00    +0.000 C 
BRANCH  17  18
ATOM     18  C   UNL     1       2.738   4.603  19.352  0.00  0.00    +0.000 C 
ATOM     19  C   UNL     1       3.876   3.598  19.135  0.00  0.00    +0.000 C 
ATOM     20  C   UNL     1       3.326   2.177  19.144  0.00  0.00    +0.000 C 
ATOM     21  O   UNL     1       2.319   2.021  18.146  0.00  0.00    +0.000 OA
ATOM     22  C   UNL     1       1.200   2.880  18.366  0.00  0.00    +0.000 C 
ATOM     23  C   UNL     1       1.622   4.343  18.329  0.00  0.00    +0.000 C 
ENDBRANCH  17  18
ENDBRANCH  14  17
ENDBRANCH  13  14
ENDBRANCH   1  13
TORSDOF 8
ENDMDL
