MODEL 1
REMARK VINA RESULT:      -7.4      0.000      0.000
REMARK  Name = 
REMARK  2 active torsions:
REMARK  status: ('A' for Active; 'I' for Inactive)
REMARK    1  A    between atoms: C_1  and  N_2
REMARK    2  A    between atoms: C_18  and  C_19
REMARK                            x       y       z     vdW  Elec       q    Type
REMARK                         _______ _______ _______ _____ _____    ______ ____
ROOT
ATOM      1  C   UNL     1       3.824   0.890  18.138  0.00  0.00    +0.000 C 
ATOM      2  N   UNL     1       3.026   1.780  18.983  0.00  0.00    +0.000 NA
ATOM      3  C   UNL     1       3.818   2.351  20.081  0.00  0.00    +0.000 C 
ATOM      4  C   UNL     1       4.885   3.353  19.624  0.00  0.00    +0.000 C 
ATOM      5  C   UNL     1       4.272   4.483  18.766  0.00  0.00    +0.000 C 
ATOM      6  C   UNL     1       3.357   3.878  17.667  0.00  0.00    +0.000 C 
ATOM      7  C   UNL     1       2.377   2.851  18.221  0.00  0.00    +0.000 C 
ATOM      8  O   UNL     1       3.460   5.227  19.712  0.00  0.00    +0.000 OA
ATOM      9  C   UNL     1       3.032   6.445  19.284  0.00  0.00    +0.000 A 
ATOM     10  C   UNL     1       1.835   6.927  19.820  0.00  0.00    +0.000 A 
ATOM     11  C   UNL     1       1.324   8.151  19.385  0.00  0.00    +0.000 A 
ATOM     12  C   UNL     1       2.027   8.893  18.439  0.00  0.00    +0.000 A 
ATOM     13 BR   UNL     1       1.323  10.532  17.814  0.00  0.00    +0.000 Br
ATOM     14  C   UNL     1       3.243   8.427  17.937  0.00  0.00    +0.000 A 
ATOM     15  C   UNL     1       3.743   7.182  18.350  0.00  0.00    +0.000 A 
ATOM     16  C   UNL     1       5.017   6.640  17.787  0.00  0.00    +0.000 C 
ATOM     17  C   UNL     1       4.963   6.557  16.274  0.00  0.00    +0.000 C 
ATOM     18  C   UNL     1       5.781   5.327  16.042  0.00  0.00    +0.000 C 
ATOM     19  N   UNL     1       6.058   4.644  17.116  0.00  0.00    +0.000 NA
ATOM     20  N   UNL     1       5.400   5.267  18.165  0.00  0.00    +0.000 N 
ENDROOT
BRANCH  18  21
ATOM     21  C   UNL     1       6.071   4.876  14.659  0.00  0.00    +0.000 A 
ATOM     22  C   UNL     1       5.209   3.962  14.031  0.00  0.00    +0.000 A 
ATOM     23  C   UNL     1       5.558   3.387  12.809  0.00  0.00    +0.000 A 
ATOM     24  C   UNL     1       6.761   3.738  12.212  0.00  0.00    +0.000 A 
ATOM     25  F   UNL     1       7.113   3.155  11.060  0.00  0.00    +0.000 F 
ATOM     26  C   UNL     1       7.611   4.666  12.805  0.00  0.00    +0.000 A 
ATOM     27  C   UNL     1       7.269   5.239  14.035  0.00  0.00    +0.000 A 
ENDBRANCH  18  21
TORSDOF 1
ENDMDL
MODEL 2
REMARK VINA RESULT:      -7.0      8.979     10.883
REMARK  Name = 
REMARK  2 active torsions:
REMARK  status: ('A' for Active; 'I' for Inactive)
REMARK    1  A    between atoms: C_1  and  N_2
REMARK    2  A    between atoms: C_18  and  C_19
REMARK                            x       y       z     vdW  Elec       q    Type
REMARK                         _______ _______ _______ _____ _____    ______ ____
ROOT
ATOM      1  C   UNL     1      -3.858  14.433  22.636  0.00  0.00    +0.000 C 
ATOM      2  N   UNL     1      -2.619  15.166  22.904  0.00  0.00    +0.000 NA
ATOM      3  C   UNL     1      -1.742  14.442  23.834  0.00  0.00    +0.000 C 
ATOM      4  C   UNL     1      -1.136  13.161  23.247  0.00  0.00    +0.000 C 
ATOM      5  C   UNL     1      -0.392  13.440  21.921  0.00  0.00    +0.000 C 
ATOM      6  C   UNL     1      -1.288  14.291  20.979  0.00  0.00    +0.000 C 
ATOM      7  C   UNL     1      -1.887  15.504  21.680  0.00  0.00    +0.000 C 
ATOM      8  O   UNL     1       0.756  14.226  22.333  0.00  0.00    +0.000 OA
ATOM      9  C   UNL     1       1.734  14.369  21.398  0.00  0.00    +0.000 A 
ATOM     10  C   UNL     1       2.520  15.522  21.464  0.00  0.00    +0.000 A 
ATOM     11  C   UNL     1       3.509  15.742  20.505  0.00  0.00    +0.000 A 
ATOM     12  C   UNL     1       3.721  14.797  19.505  0.00  0.00    +0.000 A 
ATOM     13 BR   UNL     1       5.031  15.105  18.177  0.00  0.00    +0.000 Br
ATOM     14  C   UNL     1       2.960  13.626  19.467  0.00  0.00    +0.000 A 
ATOM     15  C   UNL     1       1.945  13.417  20.413  0.00  0.00    +0.000 A 
ATOM     16  C   UNL     1       1.084  12.197  20.360  0.00  0.00    +0.000 C 
ATOM     17  C   UNL     1       0.399  12.058  19.014  0.00  0.00    +0.000 C 
ATOM     18  C   UNL     1      -0.900  11.449  19.434  0.00  0.00    +0.000 C 
ATOM     19  N   UNL     1      -1.113  11.447  20.718  0.00  0.00    +0.000 NA
ATOM     20  N   UNL     1      -0.049  12.119  21.300  0.00  0.00    +0.000 N 
ENDROOT
BRANCH  18  21
ATOM     21  C   UNL     1      -1.903  11.059  18.413  0.00  0.00    +0.000 A 
ATOM     22  C   UNL     1      -1.564  10.112  17.432  0.00  0.00    +0.000 A 
ATOM     23  C   UNL     1      -2.423   9.868  16.361  0.00  0.00    +0.000 A 
ATOM     24  C   UNL     1      -3.623  10.560  16.279  0.00  0.00    +0.000 A 
ATOM     25  F   UNL     1      -4.426  10.355  15.229  0.00  0.00    +0.000 F 
ATOM     26  C   UNL     1      -3.988  11.478  17.260  0.00  0.00    +0.000 A 
ATOM     27  C   UNL     1      -3.127  11.733  18.333  0.00  0.00    +0.000 A 
ENDBRANCH  18  21
TORSDOF 1
ENDMDL
MODEL 3
REMARK VINA RESULT:      -7.0      6.713     10.102
REMARK  Name = 
REMARK  2 active torsions:
REMARK  status: ('A' for Active; 'I' for Inactive)
REMARK    1  A    between atoms: C_1  and  N_2
REMARK    2  A    between atoms: C_18  and  C_19
REMARK                            x       y       z     vdW  Elec       q    Type
REMARK                         _______ _______ _______ _____ _____    ______ ____
ROOT
ATOM      1  C   UNL     1       3.781  14.790  19.554  0.00  0.00    +0.000 C 
ATOM      2  N   UNL     1       2.808  15.536  20.355  0.00  0.00    +0.000 NA
ATOM      3  C   UNL     1       1.743  16.116  19.527  0.00  0.00    +0.000 C 
ATOM      4  C   UNL     1       0.796  15.077  18.913  0.00  0.00    +0.000 C 
ATOM      5  C   UNL     1       0.188  14.153  19.994  0.00  0.00    +0.000 C 
ATOM      6  C   UNL     1       1.309  13.621  20.928  0.00  0.00    +0.000 C 
ATOM      7  C   UNL     1       2.227  14.728  21.431  0.00  0.00    +0.000 C 
ATOM      8  O   UNL     1      -0.685  15.037  20.745  0.00  0.00    +0.000 OA
ATOM      9  C   UNL     1      -1.563  14.421  21.581  0.00  0.00    +0.000 A 
ATOM     10  C   UNL     1      -1.976  15.129  22.711  0.00  0.00    +0.000 A 
ATOM     11  C   UNL     1      -2.842  14.530  23.627  0.00  0.00    +0.000 A 
ATOM     12  C   UNL     1      -3.306  13.239  23.391  0.00  0.00    +0.000 A 
ATOM     13 BR   UNL     1      -4.447  12.403  24.646  0.00  0.00    +0.000 Br
ATOM     14  C   UNL     1      -2.923  12.549  22.240  0.00  0.00    +0.000 A 
ATOM     15  C   UNL     1      -2.029  13.139  21.332  0.00  0.00    +0.000 A 
ATOM     16  C   UNL     1      -1.564  12.400  20.120  0.00  0.00    +0.000 C 
ATOM     17  C   UNL     1      -0.929  11.073  20.488  0.00  0.00    +0.000 C 
ATOM     18  C   UNL     1       0.127  10.977  19.434  0.00  0.00    +0.000 C 
ATOM     19  N   UNL     1       0.310  12.065  18.743  0.00  0.00    +0.000 NA
ATOM     20  N   UNL     1      -0.519  13.032  19.295  0.00  0.00    +0.000 N 
ENDROOT
BRANCH  18  21
ATOM     21  C   UNL     1       0.987   9.772  19.350  0.00  0.00    +0.000 A 
ATOM     22  C   UNL     1       1.556   9.408  18.118  0.00  0.00    +0.000 A 
ATOM     23  C   UNL     1       2.213   8.186  17.977  0.00  0.00    +0.000 A 
ATOM     24  C   UNL     1       2.312   7.337  19.070  0.00  0.00    +0.000 A 
ATOM     25  F   UNL     1       2.906   6.148  18.923  0.00  0.00    +0.000 F 
ATOM     26  C   UNL     1       1.782   7.696  20.306  0.00  0.00    +0.000 A 
ATOM     27  C   UNL     1       1.115   8.917  20.451  0.00  0.00    +0.000 A 
ENDBRANCH  18  21
TORSDOF 1
ENDMDL
MODEL 4
REMARK VINA RESULT:      -6.4      9.085     12.467
REMARK  Name = 
REMARK  2 active torsions:
REMARK  status: ('A' for Active; 'I' for Inactive)
REMARK    1  A    between atoms: C_1  and  N_2
REMARK    2  A    between atoms: C_18  and  C_19
REMARK                            x       y       z     vdW  Elec       q    Type
REMARK                         _______ _______ _______ _____ _____    ______ ____
ROOT
ATOM      1  C   UNL     1      -6.332  11.617  20.446  0.00  0.00    +0.000 C 
ATOM      2  N   UNL     1      -6.424  13.045  20.760  0.00  0.00    +0.000 NA
ATOM      3  C   UNL     1      -6.816  13.276  22.157  0.00  0.00    +0.000 C 
ATOM      4  C   UNL     1      -5.743  12.878  23.179  0.00  0.00    +0.000 C 
ATOM      5  C   UNL     1      -4.392  13.569  22.883  0.00  0.00    +0.000 C 
ATOM      6  C   UNL     1      -4.031  13.406  21.381  0.00  0.00    +0.000 C 
ATOM      7  C   UNL     1      -5.187  13.770  20.458  0.00  0.00    +0.000 C 
ATOM      8  O   UNL     1      -4.657  14.968  23.164  0.00  0.00    +0.000 OA
ATOM      9  C   UNL     1      -3.558  15.765  23.259  0.00  0.00    +0.000 A 
ATOM     10  C   UNL     1      -3.715  17.113  22.931  0.00  0.00    +0.000 A 
ATOM     11  C   UNL     1      -2.612  17.968  22.968  0.00  0.00    +0.000 A 
ATOM     12  C   UNL     1      -1.370  17.472  23.356  0.00  0.00    +0.000 A 
ATOM     13 BR   UNL     1       0.138  18.612  23.369  0.00  0.00    +0.000 Br
ATOM     14  C   UNL     1      -1.227  16.133  23.722  0.00  0.00    +0.000 A 
ATOM     15  C   UNL     1      -2.328  15.265  23.657  0.00  0.00    +0.000 A 
ATOM     16  C   UNL     1      -2.187  13.816  23.994  0.00  0.00    +0.000 C 
ATOM     17  C   UNL     1      -1.115  13.152  23.151  0.00  0.00    +0.000 C 
ATOM     18  C   UNL     1      -1.705  11.788  22.990  0.00  0.00    +0.000 C 
ATOM     19  N   UNL     1      -2.941  11.677  23.384  0.00  0.00    +0.000 NA
ATOM     20  N   UNL     1      -3.354  12.945  23.765  0.00  0.00    +0.000 N 
ENDROOT
BRANCH  18  21
ATOM     21  C   UNL     1      -0.953  10.732  22.269  0.00  0.00    +0.000 A 
ATOM     22  C   UNL     1      -0.265   9.748  22.997  0.00  0.00    +0.000 A 
ATOM     23  C   UNL     1       0.593   8.861  22.348  0.00  0.00    +0.000 A 
ATOM     24  C   UNL     1       0.750   8.950  20.973  0.00  0.00    +0.000 A 
ATOM     25  F   UNL     1       1.605   8.124  20.357  0.00  0.00    +0.000 F 
ATOM     26  C   UNL     1       0.051   9.897  20.232  0.00  0.00    +0.000 A 
ATOM     27  C   UNL     1      -0.805  10.796  20.879  0.00  0.00    +0.000 A 
ENDBRANCH  18  21
TORSDOF 1
ENDMDL
MODEL 5
REMARK VINA RESULT:      -6.4     10.000     13.486
REMARK  Name = 
REMARK  2 active torsions:
REMARK  status: ('A' for Active; 'I' for Inactive)
REMARK    1  A    between atoms: C_1  and  N_2
REMARK    2  A    between atoms: C_18  and  C_19
REMARK                            x       y       z     vdW  Elec       q    Type
REMARK                         _______ _______ _______ _____ _____    ______ ____
ROOT
ATOM      1  C   UNL     1      -5.963  13.104  19.350  0.00  0.00    +0.000 C 
ATOM      2  N   UNL     1      -6.259  14.371  20.023  0.00  0.00    +0.000 NA
ATOM      3  C   UNL     1      -7.119  14.181  21.198  0.00  0.00    +0.000 C 
ATOM      4  C   UNL     1      -6.434  13.452  22.360  0.00  0.00    +0.000 C 
ATOM      5  C   UNL     1      -5.117  14.148  22.771  0.00  0.00    +0.000 C 
ATOM      6  C   UNL     1      -4.254  14.436  21.511  0.00  0.00    +0.000 C 
ATOM      7  C   UNL     1      -5.048  15.107  20.398  0.00  0.00    +0.000 C 
ATOM      8  O   UNL     1      -5.561  15.405  23.346  0.00  0.00    +0.000 OA
ATOM      9  C   UNL     1      -4.621  16.092  24.048  0.00  0.00    +0.000 A 
ATOM     10  C   UNL     1      -4.752  17.482  24.104  0.00  0.00    +0.000 A 
ATOM     11  C   UNL     1      -3.792  18.243  24.773  0.00  0.00    +0.000 A 
ATOM     12  C   UNL     1      -2.725  17.606  25.401  0.00  0.00    +0.000 A 
ATOM     13 BR   UNL     1      -1.398  18.630  26.276  0.00  0.00    +0.000 Br
ATOM     14  C   UNL     1      -2.620  16.214  25.377  0.00  0.00    +0.000 A 
ATOM     15  C   UNL     1      -3.568  15.449  24.680  0.00  0.00    +0.000 A 
ATOM     16  C   UNL     1      -3.446  13.962  24.597  0.00  0.00    +0.000 C 
ATOM     17  C   UNL     1      -2.107  13.546  24.020  0.00  0.00    +0.000 C 
ATOM     18  C   UNL     1      -2.507  12.318  23.267  0.00  0.00    +0.000 C 
ATOM     19  N   UNL     1      -3.792  12.139  23.155  0.00  0.00    +0.000 NA
ATOM     20  N   UNL     1      -4.399  13.247  23.729  0.00  0.00    +0.000 N 
ENDROOT
BRANCH  18  21
ATOM     21  C   UNL     1      -1.480  11.504  22.572  0.00  0.00    +0.000 A 
ATOM     22  C   UNL     1      -1.165  11.781  21.231  0.00  0.00    +0.000 A 
ATOM     23  C   UNL     1      -0.342  10.918  20.507  0.00  0.00    +0.000 A 
ATOM     24  C   UNL     1       0.174   9.790  21.128  0.00  0.00    +0.000 A 
ATOM     25  F   UNL     1       0.929   8.942  20.420  0.00  0.00    +0.000 F 
ATOM     26  C   UNL     1      -0.103   9.518  22.464  0.00  0.00    +0.000 A 
ATOM     27  C   UNL     1      -0.934  10.376  23.193  0.00  0.00    +0.000 A 
ENDBRANCH  18  21
TORSDOF 1
ENDMDL
MODEL 6
REMARK VINA RESULT:      -6.4      9.246     12.750
REMARK  Name = 
REMARK  2 active torsions:
REMARK  status: ('A' for Active; 'I' for Inactive)
REMARK    1  A    between atoms: C_1  and  N_2
REMARK    2  A    between atoms: C_18  and  C_19
REMARK                            x       y       z     vdW  Elec       q    Type
REMARK                         _______ _______ _______ _____ _____    ______ ____
ROOT
ATOM      1  C   UNL     1      -5.851  12.918  23.698  0.00  0.00    +0.000 C 
ATOM      2  N   UNL     1      -5.984  14.215  23.032  0.00  0.00    +0.000 NA
ATOM      3  C   UNL     1      -5.465  15.313  23.858  0.00  0.00    +0.000 C 
ATOM      4  C   UNL     1      -3.942  15.294  24.034  0.00  0.00    +0.000 C 
ATOM      5  C   UNL     1      -3.213  15.262  22.671  0.00  0.00    +0.000 C 
ATOM      6  C   UNL     1      -3.832  14.163  21.764  0.00  0.00    +0.000 C 
ATOM      7  C   UNL     1      -5.353  14.238  21.710  0.00  0.00    +0.000 C 
ATOM      8  O   UNL     1      -3.494  16.568  22.104  0.00  0.00    +0.000 OA
ATOM      9  C   UNL     1      -2.736  16.915  21.029  0.00  0.00    +0.000 A 
ATOM     10  C   UNL     1      -3.300  17.799  20.106  0.00  0.00    +0.000 A 
ATOM     11  C   UNL     1      -2.586  18.156  18.961  0.00  0.00    +0.000 A 
ATOM     12  C   UNL     1      -1.306  17.646  18.763  0.00  0.00    +0.000 A 
ATOM     13 BR   UNL     1      -0.346  18.090  17.196  0.00  0.00    +0.000 Br
ATOM     14  C   UNL     1      -0.729  16.795  19.708  0.00  0.00    +0.000 A 
ATOM     15  C   UNL     1      -1.458  16.411  20.845  0.00  0.00    +0.000 A 
ATOM     16  C   UNL     1      -0.881  15.461  21.844  0.00  0.00    +0.000 C 
ATOM     17  C   UNL     1      -0.460  14.158  21.191  0.00  0.00    +0.000 C 
ATOM     18  C   UNL     1      -0.766  13.194  22.292  0.00  0.00    +0.000 C 
ATOM     19  N   UNL     1      -1.451  13.692  23.281  0.00  0.00    +0.000 NA
ATOM     20  N   UNL     1      -1.760  14.999  22.933  0.00  0.00    +0.000 N 
ENDROOT
BRANCH  18  21
ATOM     21  C   UNL     1      -0.445  11.755  22.131  0.00  0.00    +0.000 A 
ATOM     22  C   UNL     1       0.109  11.297  20.924  0.00  0.00    +0.000 A 
ATOM     23  C   UNL     1       0.248   9.930  20.685  0.00  0.00    +0.000 A 
ATOM     24  C   UNL     1      -0.153   9.025  21.657  0.00  0.00    +0.000 A 
ATOM     25  F   UNL     1      -0.057   7.714  21.409  0.00  0.00    +0.000 F 
ATOM     26  C   UNL     1      -0.674   9.463  22.871  0.00  0.00    +0.000 A 
ATOM     27  C   UNL     1      -0.823  10.833  23.113  0.00  0.00    +0.000 A 
ENDBRANCH  18  21
TORSDOF 1
ENDMDL
MODEL 7
REMARK VINA RESULT:      -6.3      5.872      8.963
REMARK  Name = 
REMARK  2 active torsions:
REMARK  status: ('A' for Active; 'I' for Inactive)
REMARK    1  A    between atoms: C_1  and  N_2
REMARK    2  A    between atoms: C_18  and  C_19
REMARK                            x       y       z     vdW  Elec       q    Type
REMARK                         _______ _______ _______ _____ _____    ______ ____
ROOT
ATOM      1  C   UNL     1      -3.595   9.803  17.519  0.00  0.00    +0.000 C 
ATOM      2  N   UNL     1      -3.493  11.263  17.460  0.00  0.00    +0.000 NA
ATOM      3  C   UNL     1      -3.933  11.896  18.711  0.00  0.00    +0.000 C 
ATOM      4  C   UNL     1      -2.999  11.642  19.900  0.00  0.00    +0.000 C 
ATOM      5  C   UNL     1      -1.544  12.054  19.577  0.00  0.00    +0.000 C 
ATOM      6  C   UNL     1      -1.117  11.463  18.205  0.00  0.00    +0.000 C 
ATOM      7  C   UNL     1      -2.145  11.721  17.111  0.00  0.00    +0.000 C 
ATOM      8  O   UNL     1      -1.615  13.501  19.477  0.00  0.00    +0.000 OA
ATOM      9  C   UNL     1      -0.418  14.147  19.480  0.00  0.00    +0.000 A 
ATOM     10  C   UNL     1      -0.351  15.374  18.815  0.00  0.00    +0.000 A 
ATOM     11  C   UNL     1       0.862  16.061  18.748  0.00  0.00    +0.000 A 
ATOM     12  C   UNL     1       1.989  15.527  19.368  0.00  0.00    +0.000 A 
ATOM     13 BR   UNL     1       3.647  16.430  19.248  0.00  0.00    +0.000 Br
ATOM     14  C   UNL     1       1.909  14.321  20.065  0.00  0.00    +0.000 A 
ATOM     15  C   UNL     1       0.697  13.614  20.109  0.00  0.00    +0.000 A 
ATOM     16  C   UNL     1       0.599  12.296  20.805  0.00  0.00    +0.000 C 
ATOM     17  C   UNL     1       1.611  11.305  20.263  0.00  0.00    +0.000 C 
ATOM     18  C   UNL     1       0.836  10.033  20.386  0.00  0.00    +0.000 C 
ATOM     19  N   UNL     1      -0.425  10.186  20.671  0.00  0.00    +0.000 NA
ATOM     20  N   UNL     1      -0.667  11.552  20.685  0.00  0.00    +0.000 N 
ENDROOT
BRANCH  18  21
ATOM     21  C   UNL     1       1.466   8.739  20.026  0.00  0.00    +0.000 A 
ATOM     22  C   UNL     1       1.983   8.554  18.733  0.00  0.00    +0.000 A 
ATOM     23  C   UNL     1       2.412   7.294  18.318  0.00  0.00    +0.000 A 
ATOM     24  C   UNL     1       2.337   6.225  19.200  0.00  0.00    +0.000 A 
ATOM     25  F   UNL     1       2.710   5.009  18.787  0.00  0.00    +0.000 F 
ATOM     26  C   UNL     1       1.858   6.398  20.495  0.00  0.00    +0.000 A 
ATOM     27  C   UNL     1       1.418   7.659  20.914  0.00  0.00    +0.000 A 
ENDBRANCH  18  21
TORSDOF 1
ENDMDL
MODEL 8
REMARK VINA RESULT:      -6.3      8.065     11.785
REMARK  Name = 
REMARK  2 active torsions:
REMARK  status: ('A' for Active; 'I' for Inactive)
REMARK    1  A    between atoms: C_1  and  N_2
REMARK    2  A    between atoms: C_18  and  C_19
REMARK                            x       y       z     vdW  Elec       q    Type
REMARK                         _______ _______ _______ _____ _____    ______ ____
ROOT
ATOM      1  C   UNL     1      -0.251   8.322  21.336  0.00  0.00    +0.000 C 
ATOM      2  N   UNL     1       0.941   9.050  20.896  0.00  0.00    +0.000 NA
ATOM      3  C   UNL     1       0.963   9.239  19.440  0.00  0.00    +0.000 C 
ATOM      4  C   UNL     1      -0.108  10.206  18.921  0.00  0.00    +0.000 C 
ATOM      5  C   UNL     1      -0.034  11.574  19.637  0.00  0.00    +0.000 C 
ATOM      6  C   UNL     1       0.042  11.365  21.174  0.00  0.00    +0.000 C 
ATOM      7  C   UNL     1       1.097  10.340  21.574  0.00  0.00    +0.000 C 
ATOM      8  O   UNL     1       1.219  12.137  19.166  0.00  0.00    +0.000 OA
ATOM      9  C   UNL     1       1.397  13.462  19.419  0.00  0.00    +0.000 A 
ATOM     10  C   UNL     1       2.710  13.916  19.556  0.00  0.00    +0.000 A 
ATOM     11  C   UNL     1       2.952  15.258  19.860  0.00  0.00    +0.000 A 
ATOM     12  C   UNL     1       1.880  16.135  19.998  0.00  0.00    +0.000 A 
ATOM     13 BR   UNL     1       2.194  17.944  20.449  0.00  0.00    +0.000 Br
ATOM     14  C   UNL     1       0.570  15.685  19.820  0.00  0.00    +0.000 A 
ATOM     15  C   UNL     1       0.324  14.331  19.544  0.00  0.00    +0.000 A 
ATOM     16  C   UNL     1      -1.072  13.817  19.400  0.00  0.00    +0.000 C 
ATOM     17  C   UNL     1      -1.905  14.123  20.630  0.00  0.00    +0.000 C 
ATOM     18  C   UNL     1      -2.781  12.912  20.671  0.00  0.00    +0.000 C 
ATOM     19  N   UNL     1      -2.430  11.956  19.860  0.00  0.00    +0.000 NA
ATOM     20  N   UNL     1      -1.250  12.361  19.253  0.00  0.00    +0.000 N 
ENDROOT
BRANCH  18  21
ATOM     21  C   UNL     1      -3.842  12.796  21.701  0.00  0.00    +0.000 A 
ATOM     22  C   UNL     1      -5.190  12.929  21.329  0.00  0.00    +0.000 A 
ATOM     23  C   UNL     1      -6.186  13.006  22.302  0.00  0.00    +0.000 A 
ATOM     24  C   UNL     1      -5.835  12.935  23.642  0.00  0.00    +0.000 A 
ATOM     25  F   UNL     1      -6.788  13.050  24.574  0.00  0.00    +0.000 F 
ATOM     26  C   UNL     1      -4.508  12.771  24.027  0.00  0.00    +0.000 A 
ATOM     27  C   UNL     1      -3.503  12.701  23.055  0.00  0.00    +0.000 A 
ENDBRANCH  18  21
TORSDOF 1
ENDMDL
MODEL 9
REMARK VINA RESULT:      -6.3      7.800     10.968
REMARK  Name = 
REMARK  2 active torsions:
REMARK  status: ('A' for Active; 'I' for Inactive)
REMARK    1  A    between atoms: C_1  and  N_2
REMARK    2  A    between atoms: C_18  and  C_19
REMARK                            x       y       z     vdW  Elec       q    Type
REMARK                         _______ _______ _______ _____ _____    ______ ____
ROOT
ATOM      1  C   UNL     1      -3.336  12.260  23.380  0.00  0.00    +0.000 C 
ATOM      2  N   UNL     1      -3.541  13.678  23.075  0.00  0.00    +0.000 NA
ATOM      3  C   UNL     1      -2.662  14.544  23.873  0.00  0.00    +0.000 C 
ATOM      4  C   UNL     1      -1.178  14.435  23.503  0.00  0.00    +0.000 C 
ATOM      5  C   UNL     1      -0.948  14.686  21.995  0.00  0.00    +0.000 C 
ATOM      6  C   UNL     1      -1.947  13.841  21.158  0.00  0.00    +0.000 C 
ATOM      7  C   UNL     1      -3.383  13.976  21.649  0.00  0.00    +0.000 C 
ATOM      8  O   UNL     1      -1.257  16.095  21.834  0.00  0.00    +0.000 OA
ATOM      9  C   UNL     1      -0.865  16.650  20.656  0.00  0.00    +0.000 A 
ATOM     10  C   UNL     1      -1.603  17.737  20.182  0.00  0.00    +0.000 A 
ATOM     11  C   UNL     1      -1.272  18.318  18.956  0.00  0.00    +0.000 A 
ATOM     12  C   UNL     1      -0.193  17.824  18.230  0.00  0.00    +0.000 A 
ATOM     13 BR   UNL     1       0.238  18.578  16.550  0.00  0.00    +0.000 Br
ATOM     14  C   UNL     1       0.568  16.764  18.726  0.00  0.00    +0.000 A 
ATOM     15  C   UNL     1       0.219  16.158  19.944  0.00  0.00    +0.000 A 
ATOM     16  C   UNL     1       0.986  14.989  20.469  0.00  0.00    +0.000 C 
ATOM     17  C   UNL     1       1.025  13.853  19.465  0.00  0.00    +0.000 C 
ATOM     18  C   UNL     1       0.997  12.677  20.387  0.00  0.00    +0.000 C 
ATOM     19  N   UNL     1       0.735  12.962  21.630  0.00  0.00    +0.000 NA
ATOM     20  N   UNL     1       0.472  14.323  21.679  0.00  0.00    +0.000 N 
ENDROOT
BRANCH  18  21
ATOM     21  C   UNL     1       1.089  11.301  19.840  0.00  0.00    +0.000 A 
ATOM     22  C   UNL     1       0.891  10.200  20.690  0.00  0.00    +0.000 A 
ATOM     23  C   UNL     1       1.153   8.906  20.242  0.00  0.00    +0.000 A 
ATOM     24  C   UNL     1       1.598   8.714  18.942  0.00  0.00    +0.000 A 
ATOM     25  F   UNL     1       1.887   7.475  18.526  0.00  0.00    +0.000 F 
ATOM     26  C   UNL     1       1.768   9.790  18.076  0.00  0.00    +0.000 A 
ATOM     27  C   UNL     1       1.515  11.092  18.524  0.00  0.00    +0.000 A 
ENDBRANCH  18  21
TORSDOF 1
ENDMDL
