MODEL 1
REMARK VINA RESULT:      -7.5      0.000      0.000
REMARK  Name = 
REMARK  4 active torsions:
REMARK  status: ('A' for Active; 'I' for Inactive)
REMARK    1  A    between atoms: C_1  and  O_2
REMARK    2  A    between atoms: O_2  and  C_3
REMARK    3  A    between atoms: C_7  and  N_8
REMARK    4  A    between atoms: C_10  and  C_11
REMARK                            x       y       z     vdW  Elec       q    Type
REMARK                         _______ _______ _______ _____ _____    ______ ____
ROOT
ATOM      1  C   UNL     1       1.572   6.483  19.907  0.00  0.00    +0.000 C 
ATOM      2  O   UNL     1       1.384   5.655  20.800  0.00  0.00    +0.000 OA
ATOM      3  N   UNL     1       1.655   7.860  20.202  0.00  0.00    +0.000 N 
ATOM      4  C   UNL     1       1.442   8.150  21.629  0.00  0.00    +0.000 C 
ATOM      5  C   UNL     1       1.533   9.612  22.017  0.00  0.00    +0.000 C 
ATOM      6  C   UNL     1       0.713  10.485  21.058  0.00  0.00    +0.000 C 
ATOM      7  C   UNL     1       1.481  10.351  19.716  0.00  0.00    +0.000 C 
ATOM      8  C   UNL     1       1.359   8.903  19.196  0.00  0.00    +0.000 C 
ATOM      9  C   UNL     1      -0.737  10.002  20.891  0.00  0.00    +0.000 C 
ATOM     10  C   UNL     1      -1.323  10.987  19.924  0.00  0.00    +0.000 C 
ATOM     11  O   UNL     1      -1.720  10.717  18.801  0.00  0.00    +0.000 OA
ATOM     12  C   UNL     1      -1.378  12.320  20.504  0.00  0.00    +0.000 A 
ATOM     13  C   UNL     1      -2.543  13.062  20.340  0.00  0.00    +0.000 A 
ATOM     14  C   UNL     1      -2.917  13.913  21.370  0.00  0.00    +0.000 A 
ATOM     15  C   UNL     1      -2.104  14.027  22.505  0.00  0.00    +0.000 A 
ATOM     16  C   UNL     1      -0.854  13.385  22.571  0.00  0.00    +0.000 A 
ATOM     17  C   UNL     1      -0.469  12.530  21.544  0.00  0.00    +0.000 A 
ATOM     18  O   UNL     1       0.720  11.828  21.633  0.00  0.00    +0.000 OA
ENDROOT
BRANCH   1  21
ATOM     19  N   UNL     1       3.839   5.073  18.119  0.00  0.00    +0.000 N 
ATOM     20  C   UNL     1       3.110   6.304  17.947  0.00  0.00    +0.000 C 
ATOM     21  C   UNL     1       1.712   6.039  18.456  0.00  0.00    +0.000 C 
ATOM     22  C   UNL     1       1.544   4.530  18.286  0.00  0.00    +0.000 C 
ATOM     23  C   UNL     1       2.969   3.994  18.315  0.00  0.00    +0.000 C 
ATOM     24  O   UNL     1       3.223   2.808  18.398  0.00  0.00    +0.000 OA
BRANCH  19  29
ATOM     25  C   UNL     1       7.195   4.715  16.501  0.00  0.00    +0.000 A 
ATOM     26  C   UNL     1       8.039   4.789  17.605  0.00  0.00    +0.000 A 
ATOM     27  C   UNL     1       7.509   4.984  18.877  0.00  0.00    +0.000 A 
ATOM     28  C   UNL     1       6.127   5.091  19.056  0.00  0.00    +0.000 A 
ATOM     29  C   UNL     1       5.252   5.003  17.968  0.00  0.00    +0.000 A 
ATOM     30  C   UNL     1       5.814   4.826  16.688  0.00  0.00    +0.000 A 
BRANCH  25  32
ATOM     31  C   UNL     1       7.067   4.818  14.127  0.00  0.00    +0.000 C 
ATOM     32  O   UNL     1       7.822   4.527  15.299  0.00  0.00    +0.000 OA
ENDBRANCH  25  32
ENDBRANCH  19  29
ENDBRANCH   1  21
TORSDOF 3
ENDMDL
MODEL 2
REMARK VINA RESULT:      -7.1      2.206      4.210
REMARK  Name = 
REMARK  4 active torsions:
REMARK  status: ('A' for Active; 'I' for Inactive)
REMARK    1  A    between atoms: C_1  and  O_2
REMARK    2  A    between atoms: O_2  and  C_3
REMARK    3  A    between atoms: C_7  and  N_8
REMARK    4  A    between atoms: C_10  and  C_11
REMARK                            x       y       z     vdW  Elec       q    Type
REMARK                         _______ _______ _______ _____ _____    ______ ____
ROOT
ATOM      1  C   UNL     1       4.652   6.873  17.484  0.00  0.00    +0.000 C 
ATOM      2  O   UNL     1       5.685   7.539  17.390  0.00  0.00    +0.000 OA
ATOM      3  N   UNL     1       3.397   7.499  17.628  0.00  0.00    +0.000 N 
ATOM      4  C   UNL     1       3.497   8.965  17.702  0.00  0.00    +0.000 C 
ATOM      5  C   UNL     1       2.180   9.702  17.843  0.00  0.00    +0.000 C 
ATOM      6  C   UNL     1       1.310   9.064  18.934  0.00  0.00    +0.000 C 
ATOM      7  C   UNL     1       0.960   7.674  18.339  0.00  0.00    +0.000 C 
ATOM      8  C   UNL     1       2.240   6.816  18.249  0.00  0.00    +0.000 C 
ATOM      9  C   UNL     1       2.046   8.899  20.274  0.00  0.00    +0.000 C 
ATOM     10  C   UNL     1       1.017   8.262  21.160  0.00  0.00    +0.000 C 
ATOM     11  O   UNL     1       1.101   7.143  21.643  0.00  0.00    +0.000 OA
ATOM     12  C   UNL     1      -0.101   9.163  21.393  0.00  0.00    +0.000 A 
ATOM     13  C   UNL     1      -0.588   9.287  22.690  0.00  0.00    +0.000 A 
ATOM     14  C   UNL     1      -1.076  10.526  23.082  0.00  0.00    +0.000 A 
ATOM     15  C   UNL     1      -1.100  11.582  22.163  0.00  0.00    +0.000 A 
ATOM     16  C   UNL     1      -0.748  11.383  20.815  0.00  0.00    +0.000 A 
ATOM     17  C   UNL     1      -0.259  10.145  20.413  0.00  0.00    +0.000 A 
ATOM     18  O   UNL     1       0.168   9.958  19.110  0.00  0.00    +0.000 OA
ENDROOT
BRANCH   1  21
ATOM     19  N   UNL     1       6.013   4.636  15.621  0.00  0.00    +0.000 N 
ATOM     20  C   UNL     1       4.647   4.840  16.033  0.00  0.00    +0.000 C 
ATOM     21  C   UNL     1       4.708   5.350  17.453  0.00  0.00    +0.000 C 
ATOM     22  C   UNL     1       6.034   4.802  17.979  0.00  0.00    +0.000 C 
ATOM     23  C   UNL     1       6.873   4.598  16.725  0.00  0.00    +0.000 C 
ATOM     24  O   UNL     1       8.063   4.351  16.763  0.00  0.00    +0.000 OA
BRANCH  19  29
ATOM     25  C   UNL     1       6.034   3.067  12.223  0.00  0.00    +0.000 A 
ATOM     26  C   UNL     1       7.055   3.779  11.600  0.00  0.00    +0.000 A 
ATOM     27  C   UNL     1       7.719   4.792  12.286  0.00  0.00    +0.000 A 
ATOM     28  C   UNL     1       7.374   5.091  13.607  0.00  0.00    +0.000 A 
ATOM     29  C   UNL     1       6.364   4.381  14.266  0.00  0.00    +0.000 A 
ATOM     30  C   UNL     1       5.693   3.374  13.543  0.00  0.00    +0.000 A 
BRANCH  25  32
ATOM     31  C   UNL     1       6.263   0.991  11.082  0.00  0.00    +0.000 C 
ATOM     32  O   UNL     1       5.447   2.096  11.455  0.00  0.00    +0.000 OA
ENDBRANCH  25  32
ENDBRANCH  19  29
ENDBRANCH   1  21
TORSDOF 3
ENDMDL
MODEL 3
REMARK VINA RESULT:      -7.0      2.540      3.399
REMARK  Name = 
REMARK  4 active torsions:
REMARK  status: ('A' for Active; 'I' for Inactive)
REMARK    1  A    between atoms: C_1  and  O_2
REMARK    2  A    between atoms: O_2  and  C_3
REMARK    3  A    between atoms: C_7  and  N_8
REMARK    4  A    between atoms: C_10  and  C_11
REMARK                            x       y       z     vdW  Elec       q    Type
REMARK                         _______ _______ _______ _____ _____    ______ ____
ROOT
ATOM      1  C   UNL     1       2.164   7.271  19.907  0.00  0.00    +0.000 C 
ATOM      2  O   UNL     1       1.996   6.469  20.827  0.00  0.00    +0.000 OA
ATOM      3  N   UNL     1       1.650   8.582  19.986  0.00  0.00    +0.000 N 
ATOM      4  C   UNL     1       0.886   8.821  21.220  0.00  0.00    +0.000 C 
ATOM      5  C   UNL     1       0.317  10.217  21.375  0.00  0.00    +0.000 C 
ATOM      6  C   UNL     1      -0.389  10.666  20.089  0.00  0.00    +0.000 C 
ATOM      7  C   UNL     1       0.777  10.790  19.071  0.00  0.00    +0.000 C 
ATOM      8  C   UNL     1       1.357   9.389  18.781  0.00  0.00    +0.000 C 
ATOM      9  C   UNL     1      -1.429   9.652  19.585  0.00  0.00    +0.000 C 
ATOM     10  C   UNL     1      -1.967  10.294  18.341  0.00  0.00    +0.000 C 
ATOM     11  O   UNL     1      -1.845   9.849  17.210  0.00  0.00    +0.000 OA
ATOM     12  C   UNL     1      -2.682  11.522  18.655  0.00  0.00    +0.000 A 
ATOM     13  C   UNL     1      -3.908  11.747  18.038  0.00  0.00    +0.000 A 
ATOM     14  C   UNL     1      -4.880  12.425  18.760  0.00  0.00    +0.000 A 
ATOM     15  C   UNL     1      -4.588  12.888  20.049  0.00  0.00    +0.000 A 
ATOM     16  C   UNL     1      -3.291  12.785  20.582  0.00  0.00    +0.000 A 
ATOM     17  C   UNL     1      -2.309  12.108  19.867  0.00  0.00    +0.000 A 
ATOM     18  O   UNL     1      -1.051  11.927  20.414  0.00  0.00    +0.000 OA
ENDROOT
BRANCH   1  21
ATOM     19  N   UNL     1       3.156   4.514  18.589  0.00  0.00    +0.000 N 
ATOM     20  C   UNL     1       3.866   5.715  18.948  0.00  0.00    +0.000 C 
ATOM     21  C   UNL     1       2.928   6.862  18.653  0.00  0.00    +0.000 C 
ATOM     22  C   UNL     1       2.012   6.309  17.563  0.00  0.00    +0.000 C 
ATOM     23  C   UNL     1       2.059   4.802  17.769  0.00  0.00    +0.000 C 
ATOM     24  O   UNL     1       1.301   4.037  17.204  0.00  0.00    +0.000 OA
BRANCH  19  29
ATOM     25  C   UNL     1       4.830   1.784  20.527  0.00  0.00    +0.000 A 
ATOM     26  C   UNL     1       4.657   0.698  19.675  0.00  0.00    +0.000 A 
ATOM     27  C   UNL     1       3.967   0.855  18.476  0.00  0.00    +0.000 A 
ATOM     28  C   UNL     1       3.457   2.105  18.115  0.00  0.00    +0.000 A 
ATOM     29  C   UNL     1       3.631   3.220  18.943  0.00  0.00    +0.000 A 
ATOM     30  C   UNL     1       4.315   3.031  20.161  0.00  0.00    +0.000 A 
BRANCH  25  32
ATOM     31  C   UNL     1       5.969   0.180  21.865  0.00  0.00    +0.000 C 
ATOM     32  O   UNL     1       5.519   1.517  21.680  0.00  0.00    +0.000 OA
ENDBRANCH  25  32
ENDBRANCH  19  29
ENDBRANCH   1  21
TORSDOF 3
ENDMDL
MODEL 4
REMARK VINA RESULT:      -6.9      6.096      8.486
REMARK  Name = 
REMARK  4 active torsions:
REMARK  status: ('A' for Active; 'I' for Inactive)
REMARK    1  A    between atoms: C_1  and  O_2
REMARK    2  A    between atoms: O_2  and  C_3
REMARK    3  A    between atoms: C_7  and  N_8
REMARK    4  A    between atoms: C_10  and  C_11
REMARK                            x       y       z     vdW  Elec       q    Type
REMARK                         _______ _______ _______ _____ _____    ______ ____
ROOT
ATOM      1  C   UNL     1       3.741  14.597  19.215  0.00  0.00    +0.000 C 
ATOM      2  O   UNL     1       4.238  14.890  18.127  0.00  0.00    +0.000 OA
ATOM      3  N   UNL     1       2.924  13.456  19.355  0.00  0.00    +0.000 N 
ATOM      4  C   UNL     1       2.718  12.744  18.084  0.00  0.00    +0.000 C 
ATOM      5  C   UNL     1       1.859  11.498  18.167  0.00  0.00    +0.000 C 
ATOM      6  C   UNL     1       0.576  11.769  18.964  0.00  0.00    +0.000 C 
ATOM      7  C   UNL     1       1.101  12.023  20.402  0.00  0.00    +0.000 C 
ATOM      8  C   UNL     1       1.914  13.335  20.430  0.00  0.00    +0.000 C 
ATOM      9  C   UNL     1      -0.201  12.995  18.458  0.00  0.00    +0.000 C 
ATOM     10  C   UNL     1      -1.385  13.061  19.377  0.00  0.00    +0.000 C 
ATOM     11  O   UNL     1      -1.616  13.968  20.162  0.00  0.00    +0.000 OA
ATOM     12  C   UNL     1      -2.247  11.903  19.200  0.00  0.00    +0.000 A 
ATOM     13  C   UNL     1      -3.621  12.109  19.127  0.00  0.00    +0.000 A 
ATOM     14  C   UNL     1      -4.358  11.270  18.304  0.00  0.00    +0.000 A 
ATOM     15  C   UNL     1      -3.713  10.234  17.616  0.00  0.00    +0.000 A 
ATOM     16  C   UNL     1      -2.352   9.953  17.834  0.00  0.00    +0.000 A 
ATOM     17  C   UNL     1      -1.605  10.787  18.658  0.00  0.00    +0.000 A 
ATOM     18  O   UNL     1      -0.248  10.572  18.817  0.00  0.00    +0.000 OA
ENDROOT
BRANCH   1  21
ATOM     19  N   UNL     1       6.313  15.794  20.726  0.00  0.00    +0.000 N 
ATOM     20  C   UNL     1       5.211  14.992  21.196  0.00  0.00    +0.000 C 
ATOM     21  C   UNL     1       3.993  15.468  20.440  0.00  0.00    +0.000 C 
ATOM     22  C   UNL     1       4.335  16.911  20.074  0.00  0.00    +0.000 C 
ATOM     23  C   UNL     1       5.857  16.939  20.064  0.00  0.00    +0.000 C 
ATOM     24  O   UNL     1       6.494  17.878  19.626  0.00  0.00    +0.000 OA
BRANCH  19  29
ATOM     25  C   UNL     1       9.761  14.372  20.414  0.00  0.00    +0.000 A 
ATOM     26  C   UNL     1      10.328  14.762  21.623  0.00  0.00    +0.000 A 
ATOM     27  C   UNL     1       9.587  15.516  22.530  0.00  0.00    +0.000 A 
ATOM     28  C   UNL     1       8.267  15.871  22.238  0.00  0.00    +0.000 A 
ATOM     29  C   UNL     1       7.665  15.479  21.038  0.00  0.00    +0.000 A 
ATOM     30  C   UNL     1       8.442  14.734  20.128  0.00  0.00    +0.000 A 
BRANCH  25  32
ATOM     31  C   UNL     1      11.180  12.479  20.160  0.00  0.00    +0.000 C 
ATOM     32  O   UNL     1      10.579  13.639  19.596  0.00  0.00    +0.000 OA
ENDBRANCH  25  32
ENDBRANCH  19  29
ENDBRANCH   1  21
TORSDOF 3
ENDMDL
MODEL 5
REMARK VINA RESULT:      -6.9      6.498     10.305
REMARK  Name = 
REMARK  4 active torsions:
REMARK  status: ('A' for Active; 'I' for Inactive)
REMARK    1  A    between atoms: C_1  and  O_2
REMARK    2  A    between atoms: O_2  and  C_3
REMARK    3  A    between atoms: C_7  and  N_8
REMARK    4  A    between atoms: C_10  and  C_11
REMARK                            x       y       z     vdW  Elec       q    Type
REMARK                         _______ _______ _______ _____ _____    ______ ____
ROOT
ATOM      1  C   UNL     1      -0.259  12.966  21.580  0.00  0.00    +0.000 C 
ATOM      2  O   UNL     1      -0.081  11.861  22.095  0.00  0.00    +0.000 OA
ATOM      3  N   UNL     1       0.513  13.383  20.475  0.00  0.00    +0.000 N 
ATOM      4  C   UNL     1       1.533  12.396  20.088  0.00  0.00    +0.000 C 
ATOM      5  C   UNL     1       2.388  12.776  18.896  0.00  0.00    +0.000 C 
ATOM      6  C   UNL     1       2.908  14.213  19.032  0.00  0.00    +0.000 C 
ATOM      7  C   UNL     1       1.617  15.068  18.921  0.00  0.00    +0.000 C 
ATOM      8  C   UNL     1       0.723  14.812  20.153  0.00  0.00    +0.000 C 
ATOM      9  C   UNL     1       3.607  14.479  20.375  0.00  0.00    +0.000 C 
ATOM     10  C   UNL     1       4.012  15.919  20.278  0.00  0.00    +0.000 C 
ATOM     11  O   UNL     1       3.587  16.818  20.987  0.00  0.00    +0.000 OA
ATOM     12  C   UNL     1       5.005  16.113  19.233  0.00  0.00    +0.000 A 
ATOM     13  C   UNL     1       6.109  16.912  19.512  0.00  0.00    +0.000 A 
ATOM     14  C   UNL     1       7.318  16.574  18.920  0.00  0.00    +0.000 A 
ATOM     15  C   UNL     1       7.379  15.482  18.045  0.00  0.00    +0.000 A 
ATOM     16  C   UNL     1       6.215  14.792  17.660  0.00  0.00    +0.000 A 
ATOM     17  C   UNL     1       4.998  15.124  18.246  0.00  0.00    +0.000 A 
ATOM     18  O   UNL     1       3.860  14.400  17.940  0.00  0.00    +0.000 OA
ENDROOT
BRANCH   1  21
ATOM     19  N   UNL     1      -3.469  13.045  21.705  0.00  0.00    +0.000 N 
ATOM     20  C   UNL     1      -2.505  13.991  21.200  0.00  0.00    +0.000 C 
ATOM     21  C   UNL     1      -1.316  13.915  22.130  0.00  0.00    +0.000 C 
ATOM     22  C   UNL     1      -1.917  13.425  23.447  0.00  0.00    +0.000 C 
ATOM     23  C   UNL     1      -3.177  12.682  23.024  0.00  0.00    +0.000 C 
ATOM     24  O   UNL     1      -3.819  11.988  23.790  0.00  0.00    +0.000 OA
BRANCH  19  29
ATOM     25  C   UNL     1      -5.612  12.023  18.811  0.00  0.00    +0.000 A 
ATOM     26  C   UNL     1      -6.870  11.979  19.405  0.00  0.00    +0.000 A 
ATOM     27  C   UNL     1      -7.011  12.259  20.762  0.00  0.00    +0.000 A 
ATOM     28  C   UNL     1      -5.895  12.599  21.531  0.00  0.00    +0.000 A 
ATOM     29  C   UNL     1      -4.620  12.668  20.958  0.00  0.00    +0.000 A 
ATOM     30  C   UNL     1      -4.500  12.361  19.588  0.00  0.00    +0.000 A 
BRANCH  25  32
ATOM     31  C   UNL     1      -4.321  11.399  16.912  0.00  0.00    +0.000 C 
ATOM     32  O   UNL     1      -5.587  11.726  17.475  0.00  0.00    +0.000 OA
ENDBRANCH  25  32
ENDBRANCH  19  29
ENDBRANCH   1  21
TORSDOF 3
ENDMDL
MODEL 6
REMARK VINA RESULT:      -6.9      3.001      4.854
REMARK  Name = 
REMARK  4 active torsions:
REMARK  status: ('A' for Active; 'I' for Inactive)
REMARK    1  A    between atoms: C_1  and  O_2
REMARK    2  A    between atoms: O_2  and  C_3
REMARK    3  A    between atoms: C_7  and  N_8
REMARK    4  A    between atoms: C_10  and  C_11
REMARK                            x       y       z     vdW  Elec       q    Type
REMARK                         _______ _______ _______ _____ _____    ______ ____
ROOT
ATOM      1  C   UNL     1       1.380  11.491  18.477  0.00  0.00    +0.000 C 
ATOM      2  O   UNL     1       2.570  11.370  18.182  0.00  0.00    +0.000 OA
ATOM      3  N   UNL     1       0.827  12.759  18.750  0.00  0.00    +0.000 N 
ATOM      4  C   UNL     1       1.824  13.840  18.690  0.00  0.00    +0.000 C 
ATOM      5  C   UNL     1       1.292  15.233  18.959  0.00  0.00    +0.000 C 
ATOM      6  C   UNL     1       0.407  15.248  20.212  0.00  0.00    +0.000 C 
ATOM      7  C   UNL     1      -0.820  14.397  19.788  0.00  0.00    +0.000 C 
ATOM      8  C   UNL     1      -0.383  12.931  19.584  0.00  0.00    +0.000 C 
ATOM      9  C   UNL     1       1.088  14.623  21.441  0.00  0.00    +0.000 C 
ATOM     10  C   UNL     1       0.048  14.744  22.515  0.00  0.00    +0.000 C 
ATOM     11  O   UNL     1      -0.502  13.805  23.070  0.00  0.00    +0.000 OA
ATOM     12  C   UNL     1      -0.215  16.139  22.833  0.00  0.00    +0.000 A 
ATOM     13  C   UNL     1      -0.301  16.504  24.172  0.00  0.00    +0.000 A 
ATOM     14  C   UNL     1       0.155  17.766  24.529  0.00  0.00    +0.000 A 
ATOM     15  C   UNL     1       0.641  18.631  23.541  0.00  0.00    +0.000 A 
ATOM     16  C   UNL     1       0.568  18.292  22.177  0.00  0.00    +0.000 A 
ATOM     17  C   UNL     1       0.112  17.031  21.809  0.00  0.00    +0.000 A 
ATOM     18  O   UNL     1       0.111  16.654  20.478  0.00  0.00    +0.000 OA
ENDROOT
BRANCH   1  21
ATOM     19  N   UNL     1       1.788   8.307  18.619  0.00  0.00    +0.000 N 
ATOM     20  C   UNL     1       1.023   9.136  17.723  0.00  0.00    +0.000 C 
ATOM     21  C   UNL     1       0.475  10.268  18.562  0.00  0.00    +0.000 C 
ATOM     22  C   UNL     1       0.417   9.679  19.970  0.00  0.00    +0.000 C 
ATOM     23  C   UNL     1       1.467   8.577  19.955  0.00  0.00    +0.000 C 
ATOM     24  O   UNL     1       1.841   8.010  20.964  0.00  0.00    +0.000 OA
BRANCH  19  29
ATOM     25  C   UNL     1       4.730   6.618  17.037  0.00  0.00    +0.000 A 
ATOM     26  C   UNL     1       4.359   5.280  17.130  0.00  0.00    +0.000 A 
ATOM     27  C   UNL     1       3.155   4.930  17.736  0.00  0.00    +0.000 A 
ATOM     28  C   UNL     1       2.307   5.919  18.241  0.00  0.00    +0.000 A 
ATOM     29  C   UNL     1       2.644   7.273  18.147  0.00  0.00    +0.000 A 
ATOM     30  C   UNL     1       3.877   7.601  17.548  0.00  0.00    +0.000 A 
BRANCH  25  32
ATOM     31  C   UNL     1       7.101   6.679  17.223  0.00  0.00    +0.000 C 
ATOM     32  O   UNL     1       5.934   6.849  16.427  0.00  0.00    +0.000 OA
ENDBRANCH  25  32
ENDBRANCH  19  29
ENDBRANCH   1  21
TORSDOF 3
ENDMDL
MODEL 7
REMARK VINA RESULT:      -6.9      1.092      1.330
REMARK  Name = 
REMARK  4 active torsions:
REMARK  status: ('A' for Active; 'I' for Inactive)
REMARK    1  A    between atoms: C_1  and  O_2
REMARK    2  A    between atoms: O_2  and  C_3
REMARK    3  A    between atoms: C_7  and  N_8
REMARK    4  A    between atoms: C_10  and  C_11
REMARK                            x       y       z     vdW  Elec       q    Type
REMARK                         _______ _______ _______ _____ _____    ______ ____
ROOT
ATOM      1  C   UNL     1       1.759   8.020  19.509  0.00  0.00    +0.000 C 
ATOM      2  O   UNL     1       1.863   7.220  20.441  0.00  0.00    +0.000 OA
ATOM      3  N   UNL     1       1.467   9.378  19.751  0.00  0.00    +0.000 N 
ATOM      4  C   UNL     1       1.262   9.672  21.178  0.00  0.00    +0.000 C 
ATOM      5  C   UNL     1       0.958  11.119  21.508  0.00  0.00    +0.000 C 
ATOM      6  C   UNL     1      -0.127  11.677  20.578  0.00  0.00    +0.000 C 
ATOM      7  C   UNL     1       0.570  11.693  19.191  0.00  0.00    +0.000 C 
ATOM      8  C   UNL     1       0.833  10.243  18.731  0.00  0.00    +0.000 C 
ATOM      9  C   UNL     1      -1.389  10.801  20.528  0.00  0.00    +0.000 C 
ATOM     10  C   UNL     1      -2.282  11.530  19.569  0.00  0.00    +0.000 C 
ATOM     11  O   UNL     1      -2.650  11.101  18.486  0.00  0.00    +0.000 OA
ATOM     12  C   UNL     1      -2.679  12.823  20.106  0.00  0.00    +0.000 A 
ATOM     13  C   UNL     1      -4.013  13.201  19.996  0.00  0.00    +0.000 A 
ATOM     14  C   UNL     1      -4.554  13.966  21.020  0.00  0.00    +0.000 A 
ATOM     15  C   UNL     1      -3.744  14.361  22.091  0.00  0.00    +0.000 A 
ATOM     16  C   UNL     1      -2.362  14.098  22.094  0.00  0.00    +0.000 A 
ATOM     17  C   UNL     1      -1.810  13.333  21.073  0.00  0.00    +0.000 A 
ATOM     18  O   UNL     1      -0.468  12.996  21.105  0.00  0.00    +0.000 OA
ENDROOT
BRANCH   1  21
ATOM     19  N   UNL     1       3.779   6.089  17.923  0.00  0.00    +0.000 N 
ATOM     20  C   UNL     1       3.403   7.464  17.713  0.00  0.00    +0.000 C 
ATOM     21  C   UNL     1       1.938   7.557  18.068  0.00  0.00    +0.000 C 
ATOM     22  C   UNL     1       1.418   6.139  17.839  0.00  0.00    +0.000 C 
ATOM     23  C   UNL     1       2.652   5.263  17.998  0.00  0.00    +0.000 C 
ATOM     24  O   UNL     1       2.592   4.050  18.074  0.00  0.00    +0.000 OA
BRANCH  19  29
ATOM     25  C   UNL     1       7.108   4.954  16.642  0.00  0.00    +0.000 A 
ATOM     26  C   UNL     1       7.807   4.764  17.830  0.00  0.00    +0.000 A 
ATOM     27  C   UNL     1       7.195   5.033  19.051  0.00  0.00    +0.000 A 
ATOM     28  C   UNL     1       5.872   5.482  19.092  0.00  0.00    +0.000 A 
ATOM     29  C   UNL     1       5.138   5.667  17.916  0.00  0.00    +0.000 A 
ATOM     30  C   UNL     1       5.786   5.407  16.691  0.00  0.00    +0.000 A 
BRANCH  25  32
ATOM     31  C   UNL     1       7.083   4.703  14.276  0.00  0.00    +0.000 C 
ATOM     32  O   UNL     1       7.807   4.663  15.501  0.00  0.00    +0.000 OA
ENDBRANCH  25  32
ENDBRANCH  19  29
ENDBRANCH   1  21
TORSDOF 3
ENDMDL
MODEL 8
REMARK VINA RESULT:      -6.9      1.154      1.538
REMARK  Name = 
REMARK  4 active torsions:
REMARK  status: ('A' for Active; 'I' for Inactive)
REMARK    1  A    between atoms: C_1  and  O_2
REMARK    2  A    between atoms: O_2  and  C_3
REMARK    3  A    between atoms: C_7  and  N_8
REMARK    4  A    between atoms: C_10  and  C_11
REMARK                            x       y       z     vdW  Elec       q    Type
REMARK                         _______ _______ _______ _____ _____    ______ ____
ROOT
ATOM      1  C   UNL     1       1.546   5.932  20.002  0.00  0.00    +0.000 C 
ATOM      2  O   UNL     1       1.406   5.221  20.998  0.00  0.00    +0.000 OA
ATOM      3  N   UNL     1       1.708   7.328  20.124  0.00  0.00    +0.000 N 
ATOM      4  C   UNL     1       1.635   7.789  21.520  0.00  0.00    +0.000 C 
ATOM      5  C   UNL     1       1.816   9.279  21.724  0.00  0.00    +0.000 C 
ATOM      6  C   UNL     1       0.949  10.076  20.741  0.00  0.00    +0.000 C 
ATOM      7  C   UNL     1       1.589   9.753  19.364  0.00  0.00    +0.000 C 
ATOM      8  C   UNL     1       1.365   8.262  19.030  0.00  0.00    +0.000 C 
ATOM      9  C   UNL     1      -0.527   9.649  20.754  0.00  0.00    +0.000 C 
ATOM     10  C   UNL     1      -1.158  10.545  19.729  0.00  0.00    +0.000 C 
ATOM     11  O   UNL     1      -1.664  10.168  18.683  0.00  0.00    +0.000 OA
ATOM     12  C   UNL     1      -1.110  11.936  20.151  0.00  0.00    +0.000 A 
ATOM     13  C   UNL     1      -2.255  12.711  19.999  0.00  0.00    +0.000 A 
ATOM     14  C   UNL     1      -2.503  13.691  20.949  0.00  0.00    +0.000 A 
ATOM     15  C   UNL     1      -1.589  13.894  21.990  0.00  0.00    +0.000 A 
ATOM     16  C   UNL     1      -0.364  13.203  22.027  0.00  0.00    +0.000 A 
ATOM     17  C   UNL     1      -0.105  12.219  21.079  0.00  0.00    +0.000 A 
ATOM     18  O   UNL     1       1.059  11.474  21.151  0.00  0.00    +0.000 OA
ENDROOT
BRANCH   1  21
ATOM     19  N   UNL     1       3.739   4.733  17.982  0.00  0.00    +0.000 N 
ATOM     20  C   UNL     1       2.749   5.768  17.818  0.00  0.00    +0.000 C 
ATOM     21  C   UNL     1       1.540   5.319  18.606  0.00  0.00    +0.000 C 
ATOM     22  C   UNL     1       1.669   3.797  18.634  0.00  0.00    +0.000 C 
ATOM     23  C   UNL     1       3.160   3.549  18.453  0.00  0.00    +0.000 C 
ATOM     24  O   UNL     1       3.669   2.457  18.614  0.00  0.00    +0.000 OA
BRANCH  19  29
ATOM     25  C   UNL     1       7.221   6.099  17.830  0.00  0.00    +0.000 A 
ATOM     26  C   UNL     1       7.758   5.361  16.780  0.00  0.00    +0.000 A 
ATOM     27  C   UNL     1       6.986   4.396  16.138  0.00  0.00    +0.000 A 
ATOM     28  C   UNL     1       5.665   4.173  16.535  0.00  0.00    +0.000 A 
ATOM     29  C   UNL     1       5.091   4.911  17.577  0.00  0.00    +0.000 A 
ATOM     30  C   UNL     1       5.900   5.868  18.223  0.00  0.00    +0.000 A 
BRANCH  25  32
ATOM     31  C   UNL     1       8.048   8.330  17.843  0.00  0.00    +0.000 C 
ATOM     32  O   UNL     1       8.068   7.017  18.391  0.00  0.00    +0.000 OA
ENDBRANCH  25  32
ENDBRANCH  19  29
ENDBRANCH   1  21
TORSDOF 3
ENDMDL
MODEL 9
REMARK VINA RESULT:      -6.8      2.683      9.311
REMARK  Name = 
REMARK  4 active torsions:
REMARK  status: ('A' for Active; 'I' for Inactive)
REMARK    1  A    between atoms: C_1  and  O_2
REMARK    2  A    between atoms: O_2  and  C_3
REMARK    3  A    between atoms: C_7  and  N_8
REMARK    4  A    between atoms: C_10  and  C_11
REMARK                            x       y       z     vdW  Elec       q    Type
REMARK                         _______ _______ _______ _____ _____    ______ ____
ROOT
ATOM      1  C   UNL     1       0.532   9.836  18.948  0.00  0.00    +0.000 C 
ATOM      2  O   UNL     1       0.094  10.233  17.867  0.00  0.00    +0.000 OA
ATOM      3  N   UNL     1       1.596   8.912  19.003  0.00  0.00    +0.000 N 
ATOM      4  C   UNL     1       2.040   8.475  17.670  0.00  0.00    +0.000 C 
ATOM      5  C   UNL     1       3.192   7.490  17.658  0.00  0.00    +0.000 C 
ATOM      6  C   UNL     1       2.950   6.351  18.657  0.00  0.00    +0.000 C 
ATOM      7  C   UNL     1       3.015   7.068  20.032  0.00  0.00    +0.000 C 
ATOM      8  C   UNL     1       1.815   8.028  20.170  0.00  0.00    +0.000 C 
ATOM      9  C   UNL     1       1.583   5.670  18.477  0.00  0.00    +0.000 C 
ATOM     10  C   UNL     1       1.574   4.619  19.547  0.00  0.00    +0.000 C 
ATOM     11  O   UNL     1       0.809   4.592  20.498  0.00  0.00    +0.000 OA
ATOM     12  C   UNL     1       2.593   3.611  19.297  0.00  0.00    +0.000 A 
ATOM     13  C   UNL     1       2.245   2.272  19.449  0.00  0.00    +0.000 A 
ATOM     14  C   UNL     1       2.845   1.349  18.604  0.00  0.00    +0.000 A 
ATOM     15  C   UNL     1       3.794   1.781  17.669  0.00  0.00    +0.000 A 
ATOM     16  C   UNL     1       4.240   3.115  17.648  0.00  0.00    +0.000 A 
ATOM     17  C   UNL     1       3.646   4.048  18.491  0.00  0.00    +0.000 A 
ATOM     18  O   UNL     1       4.016   5.379  18.423  0.00  0.00    +0.000 OA
ENDROOT
BRANCH   1  21
ATOM     19  N   UNL     1       0.289  12.654  20.473  0.00  0.00    +0.000 N 
ATOM     20  C   UNL     1       0.813  11.379  20.893  0.00  0.00    +0.000 C 
ATOM     21  C   UNL     1      -0.071  10.332  20.257  0.00  0.00    +0.000 C 
ATOM     22  C   UNL     1      -1.401  11.056  20.052  0.00  0.00    +0.000 C 
ATOM     23  C   UNL     1      -1.013  12.526  19.977  0.00  0.00    +0.000 C 
ATOM     24  O   UNL     1      -1.790  13.394  19.627  0.00  0.00    +0.000 OA
BRANCH  19  29
ATOM     25  C   UNL     1       2.527  15.584  19.825  0.00  0.00    +0.000 A 
ATOM     26  C   UNL     1       2.484  16.237  21.053  0.00  0.00    +0.000 A 
ATOM     27  C   UNL     1       1.698  15.731  22.086  0.00  0.00    +0.000 A 
ATOM     28  C   UNL     1       0.962  14.558  21.901  0.00  0.00    +0.000 A 
ATOM     29  C   UNL     1       0.999  13.869  20.683  0.00  0.00    +0.000 A 
ATOM     30  C   UNL     1       1.785  14.413  19.647  0.00  0.00    +0.000 A 
BRANCH  25  32
ATOM     31  C   UNL     1       3.650  15.387  17.737  0.00  0.00    +0.000 C 
ATOM     32  O   UNL     1       3.326  16.170  18.881  0.00  0.00    +0.000 OA
ENDBRANCH  25  32
ENDBRANCH  19  29
ENDBRANCH   1  21
TORSDOF 3
ENDMDL
