MODEL 1
REMARK VINA RESULT:      -8.7      0.000      0.000
REMARK  Name = 
REMARK  10 active torsions:
REMARK  status: ('A' for Active; 'I' for Inactive)
REMARK    1  A    between atoms: C_1  and  S_2
REMARK    2  A    between atoms: S_2  and  C_3
REMARK    3  A    between atoms: C_7  and  N_8
REMARK    4  A    between atoms: C_9  and  C_11
REMARK    5  A    between atoms: C_11  and  C_12
REMARK    6  A    between atoms: C_12  and  C_13
REMARK    7  A    between atoms: C_14  and  C_15
REMARK    8  A    between atoms: C_19  and  C_20
REMARK    9  A    between atoms: C_22  and  C_23
REMARK   10  A    between atoms: C_28  and  C_29
REMARK                            x       y       z     vdW  Elec       q    Type
REMARK                         _______ _______ _______ _____ _____    ______ ____
ROOT
ATOM      1  C   UNL     1       3.592   5.757  18.540  0.00  0.00    +0.000 A 
ATOM      2  C   UNL     1       3.546   7.060  17.769  0.00  0.00    +0.000 A 
ATOM      3  C   UNL     1       4.312   7.216  16.468  0.00  0.00    +0.000 C 
ATOM      4  N   UNL     1       2.878   8.115  18.135  0.00  0.00    +0.000 NA
ATOM      5  C   UNL     1       2.161   8.041  19.292  0.00  0.00    +0.000 A 
ATOM      6  C   UNL     1       1.354   8.941  19.946  0.00  0.00    +0.000 A 
ATOM      7  C   UNL     1       1.053  10.250  19.554  0.00  0.00    +0.000 A 
ATOM      8  C   UNL     1       1.501  11.017  18.355  0.00  0.00    +0.000 C 
ATOM      9  C   UNL     1       0.194  10.829  20.512  0.00  0.00    +0.000 A 
ATOM     10  C   UNL     1      -0.255  10.134  21.669  0.00  0.00    +0.000 A 
ATOM     11  C   UNL     1      -1.167  10.840  22.636  0.00  0.00    +0.000 C 
ATOM     12  N   UNL     1       0.067   8.850  22.008  0.00  0.00    +0.000 NA
ATOM     13  C   UNL     1       0.894   8.261  21.108  0.00  0.00    +0.000 A 
ATOM     14  N   UNL     1       1.369   7.021  21.185  0.00  0.00    +0.000 NA
ATOM     15  N   UNL     1       2.139   6.878  20.073  0.00  0.00    +0.000 N 
ATOM     16  C   UNL     1       2.858   5.734  19.680  0.00  0.00    +0.000 A 
ATOM     17  C   UNL     1       2.766   4.520  20.569  0.00  0.00    +0.000 C 
ENDROOT
BRANCH   1  18
ATOM     18  C   UNL     1       4.347   4.576  17.993  0.00  0.00    +0.000 C 
BRANCH  18  19
ATOM     19  C   UNL     1       5.842   4.587  18.344  0.00  0.00    +0.000 C 
BRANCH  19  21
ATOM     20  N   UNL     1       5.923   4.594  15.917  0.00  0.00    +0.000 N 
ATOM     21  C   UNL     1       6.676   4.494  17.076  0.00  0.00    +0.000 C 
ATOM     22  O   UNL     1       7.891   4.332  17.135  0.00  0.00    +0.000 OA
ATOM     23  H   UNL     1       4.920   4.712  16.019  0.00  0.00    +0.000 HD
BRANCH  20  28
ATOM     24  C   UNL     1       6.260   3.505  12.372  0.00  0.00    +0.000 A 
ATOM     25  C   UNL     1       7.323   4.299  11.941  0.00  0.00    +0.000 A 
ATOM     26  C   UNL     1       7.916   5.213  12.808  0.00  0.00    +0.000 A 
ATOM     27  C   UNL     1       7.461   5.331  14.121  0.00  0.00    +0.000 A 
ATOM     28  C   UNL     1       6.412   4.537  14.589  0.00  0.00    +0.000 A 
ATOM     29  C   UNL     1       5.814   3.627  13.701  0.00  0.00    +0.000 A 
BRANCH  24  31
ATOM     30  C   UNL     1       3.827   3.020  11.044  0.00  0.00    +0.000 C 
ATOM     31  S   UNL     1       5.465   2.286  11.329  0.00  0.00    +0.000 S 
ENDBRANCH  24  31
ENDBRANCH  20  28
ENDBRANCH  19  21
ENDBRANCH  18  19
ENDBRANCH   1  18
TORSDOF 5
ENDMDL
MODEL 2
REMARK VINA RESULT:      -8.7      1.090      2.475
REMARK  Name = 
REMARK  10 active torsions:
REMARK  status: ('A' for Active; 'I' for Inactive)
REMARK    1  A    between atoms: C_1  and  S_2
REMARK    2  A    between atoms: S_2  and  C_3
REMARK    3  A    between atoms: C_7  and  N_8
REMARK    4  A    between atoms: C_9  and  C_11
REMARK    5  A    between atoms: C_11  and  C_12
REMARK    6  A    between atoms: C_12  and  C_13
REMARK    7  A    between atoms: C_14  and  C_15
REMARK    8  A    between atoms: C_19  and  C_20
REMARK    9  A    between atoms: C_22  and  C_23
REMARK   10  A    between atoms: C_28  and  C_29
REMARK                            x       y       z     vdW  Elec       q    Type
REMARK                         _______ _______ _______ _____ _____    ______ ____
ROOT
ATOM      1  C   UNL     1       3.585   5.624  18.446  0.00  0.00    +0.000 A 
ATOM      2  C   UNL     1       2.746   5.578  19.707  0.00  0.00    +0.000 A 
ATOM      3  C   UNL     1       2.715   4.330  20.569  0.00  0.00    +0.000 C 
ATOM      4  N   UNL     1       2.011   6.558  20.144  0.00  0.00    +0.000 NA
ATOM      5  C   UNL     1       1.999   7.713  19.420  0.00  0.00    +0.000 A 
ATOM      6  C   UNL     1       1.359   8.917  19.598  0.00  0.00    +0.000 A 
ATOM      7  C   UNL     1       0.499   9.273  20.642  0.00  0.00    +0.000 A 
ATOM      8  C   UNL     1       0.048   8.480  21.823  0.00  0.00    +0.000 C 
ATOM      9  C   UNL     1       0.055  10.597  20.440  0.00  0.00    +0.000 A 
ATOM     10  C   UNL     1       0.460  11.386  19.328  0.00  0.00    +0.000 A 
ATOM     11  C   UNL     1      -0.072  12.788  19.197  0.00  0.00    +0.000 C 
ATOM     12  N   UNL     1       1.307  10.992  18.330  0.00  0.00    +0.000 NA
ATOM     13  C   UNL     1       1.754   9.721  18.493  0.00  0.00    +0.000 A 
ATOM     14  N   UNL     1       2.584   9.080  17.676  0.00  0.00    +0.000 NA
ATOM     15  N   UNL     1       2.743   7.853  18.241  0.00  0.00    +0.000 N 
ATOM     16  C   UNL     1       3.542   6.796  17.766  0.00  0.00    +0.000 A 
ATOM     17  C   UNL     1       4.325   7.037  16.500  0.00  0.00    +0.000 C 
ENDROOT
BRANCH   1  18
ATOM     18  C   UNL     1       4.451   4.453  18.065  0.00  0.00    +0.000 C 
BRANCH  18  19
ATOM     19  C   UNL     1       5.942   4.672  18.358  0.00  0.00    +0.000 C 
BRANCH  19  21
ATOM     20  N   UNL     1       5.966   4.624  15.931  0.00  0.00    +0.000 N 
ATOM     21  C   UNL     1       6.748   4.559  17.073  0.00  0.00    +0.000 C 
ATOM     22  O   UNL     1       7.965   4.412  17.108  0.00  0.00    +0.000 OA
ATOM     23  H   UNL     1       4.965   4.732  16.053  0.00  0.00    +0.000 HD
BRANCH  20  28
ATOM     24  C   UNL     1       6.195   3.497  12.388  0.00  0.00    +0.000 A 
ATOM     25  C   UNL     1       7.273   4.254  11.929  0.00  0.00    +0.000 A 
ATOM     26  C   UNL     1       7.911   5.156  12.775  0.00  0.00    +0.000 A 
ATOM     27  C   UNL     1       7.488   5.299  14.096  0.00  0.00    +0.000 A 
ATOM     28  C   UNL     1       6.425   4.541  14.592  0.00  0.00    +0.000 A 
ATOM     29  C   UNL     1       5.781   3.643  13.726  0.00  0.00    +0.000 A 
BRANCH  24  31
ATOM     30  C   UNL     1       6.616   1.026  11.110  0.00  0.00    +0.000 C 
ATOM     31  S   UNL     1       5.341   2.294  11.373  0.00  0.00    +0.000 S 
ENDBRANCH  24  31
ENDBRANCH  20  28
ENDBRANCH  19  21
ENDBRANCH  18  19
ENDBRANCH   1  18
TORSDOF 5
ENDMDL
MODEL 3
REMARK VINA RESULT:      -8.2      4.058      6.630
REMARK  Name = 
REMARK  10 active torsions:
REMARK  status: ('A' for Active; 'I' for Inactive)
REMARK    1  A    between atoms: C_1  and  S_2
REMARK    2  A    between atoms: S_2  and  C_3
REMARK    3  A    between atoms: C_7  and  N_8
REMARK    4  A    between atoms: C_9  and  C_11
REMARK    5  A    between atoms: C_11  and  C_12
REMARK    6  A    between atoms: C_12  and  C_13
REMARK    7  A    between atoms: C_14  and  C_15
REMARK    8  A    between atoms: C_19  and  C_20
REMARK    9  A    between atoms: C_22  and  C_23
REMARK   10  A    between atoms: C_28  and  C_29
REMARK                            x       y       z     vdW  Elec       q    Type
REMARK                         _______ _______ _______ _____ _____    ______ ____
ROOT
ATOM      1  C   UNL     1      -0.248  11.126  19.048  0.00  0.00    +0.000 A 
ATOM      2  C   UNL     1      -0.262  12.128  20.185  0.00  0.00    +0.000 A 
ATOM      3  C   UNL     1       1.020  12.487  20.913  0.00  0.00    +0.000 C 
ATOM      4  N   UNL     1      -1.323  12.742  20.619  0.00  0.00    +0.000 NA
ATOM      5  C   UNL     1      -2.509  12.470  20.003  0.00  0.00    +0.000 A 
ATOM      6  C   UNL     1      -3.787  12.939  20.196  0.00  0.00    +0.000 A 
ATOM      7  C   UNL     1      -4.212  13.876  21.144  0.00  0.00    +0.000 A 
ATOM      8  C   UNL     1      -3.428  14.613  22.178  0.00  0.00    +0.000 C 
ATOM      9  C   UNL     1      -5.602  14.069  21.007  0.00  0.00    +0.000 A 
ATOM     10  C   UNL     1      -6.385  13.385  20.035  0.00  0.00    +0.000 A 
ATOM     11  C   UNL     1      -7.865  13.656  19.970  0.00  0.00    +0.000 C 
ATOM     12  N   UNL     1      -5.922  12.476  19.127  0.00  0.00    +0.000 NA
ATOM     13  C   UNL     1      -4.586  12.265  19.230  0.00  0.00    +0.000 A 
ATOM     14  N   UNL     1      -3.870  11.434  18.479  0.00  0.00    +0.000 NA
ATOM     15  N   UNL     1      -2.598  11.560  18.941  0.00  0.00    +0.000 N 
ATOM     16  C   UNL     1      -1.451  10.896  18.466  0.00  0.00    +0.000 A 
ATOM     17  C   UNL     1      -1.632   9.946  17.309  0.00  0.00    +0.000 C 
ENDROOT
BRANCH   1  18
ATOM     18  C   UNL     1       1.049  10.521  18.583  0.00  0.00    +0.000 C 
BRANCH  18  19
ATOM     19  C   UNL     1       1.412   9.217  19.308  0.00  0.00    +0.000 C 
BRANCH  19  21
ATOM     20  N   UNL     1       2.364   7.020  18.907  0.00  0.00    +0.000 N 
ATOM     21  C   UNL     1       2.089   8.256  18.344  0.00  0.00    +0.000 C 
ATOM     22  O   UNL     1       2.355   8.601  17.197  0.00  0.00    +0.000 OA
ATOM     23  H   UNL     1       2.101   6.878  19.876  0.00  0.00    +0.000 HD
BRANCH  20  28
ATOM     24  C   UNL     1       5.055   4.966  17.354  0.00  0.00    +0.000 A 
ATOM     25  C   UNL     1       4.342   3.836  16.955  0.00  0.00    +0.000 A 
ATOM     26  C   UNL     1       2.979   3.734  17.219  0.00  0.00    +0.000 A 
ATOM     27  C   UNL     1       2.311   4.770  17.870  0.00  0.00    +0.000 A 
ATOM     28  C   UNL     1       2.992   5.924  18.264  0.00  0.00    +0.000 A 
ATOM     29  C   UNL     1       4.369   6.010  18.004  0.00  0.00    +0.000 A 
BRANCH  24  31
ATOM     30  C   UNL     1       6.955   4.609  15.309  0.00  0.00    +0.000 C 
ATOM     31  S   UNL     1       6.801   5.186  17.026  0.00  0.00    +0.000 S 
ENDBRANCH  24  31
ENDBRANCH  20  28
ENDBRANCH  19  21
ENDBRANCH  18  19
ENDBRANCH   1  18
TORSDOF 5
ENDMDL
MODEL 4
REMARK VINA RESULT:      -8.1      3.425      6.169
REMARK  Name = 
REMARK  10 active torsions:
REMARK  status: ('A' for Active; 'I' for Inactive)
REMARK    1  A    between atoms: C_1  and  S_2
REMARK    2  A    between atoms: S_2  and  C_3
REMARK    3  A    between atoms: C_7  and  N_8
REMARK    4  A    between atoms: C_9  and  C_11
REMARK    5  A    between atoms: C_11  and  C_12
REMARK    6  A    between atoms: C_12  and  C_13
REMARK    7  A    between atoms: C_14  and  C_15
REMARK    8  A    between atoms: C_19  and  C_20
REMARK    9  A    between atoms: C_22  and  C_23
REMARK   10  A    between atoms: C_28  and  C_29
REMARK                            x       y       z     vdW  Elec       q    Type
REMARK                         _______ _______ _______ _____ _____    ______ ____
ROOT
ATOM      1  C   UNL     1       0.568   9.588  20.524  0.00  0.00    +0.000 A 
ATOM      2  C   UNL     1       0.278  10.611  21.602  0.00  0.00    +0.000 A 
ATOM      3  C   UNL     1      -0.373  10.194  22.907  0.00  0.00    +0.000 C 
ATOM      4  N   UNL     1       0.548  11.880  21.512  0.00  0.00    +0.000 NA
ATOM      5  C   UNL     1       1.141  12.322  20.367  0.00  0.00    +0.000 A 
ATOM      6  C   UNL     1       1.563  13.565  19.956  0.00  0.00    +0.000 A 
ATOM      7  C   UNL     1       1.476  14.767  20.667  0.00  0.00    +0.000 A 
ATOM      8  C   UNL     1       0.925  15.036  22.027  0.00  0.00    +0.000 C 
ATOM      9  C   UNL     1       2.018  15.804  19.880  0.00  0.00    +0.000 A 
ATOM     10  C   UNL     1       2.552  15.590  18.579  0.00  0.00    +0.000 A 
ATOM     11  C   UNL     1       3.105  16.763  17.816  0.00  0.00    +0.000 C 
ATOM     12  N   UNL     1       2.616  14.392  17.926  0.00  0.00    +0.000 NA
ATOM     13  C   UNL     1       2.102  13.369  18.654  0.00  0.00    +0.000 A 
ATOM     14  N   UNL     1       2.031  12.099  18.267  0.00  0.00    +0.000 NA
ATOM     15  N   UNL     1       1.451  11.452  19.313  0.00  0.00    +0.000 N 
ATOM     16  C   UNL     1       1.163  10.077  19.408  0.00  0.00    +0.000 A 
ATOM     17  C   UNL     1       1.546   9.208  18.236  0.00  0.00    +0.000 C 
ENDROOT
BRANCH   1  18
ATOM     18  C   UNL     1       0.273   8.131  20.758  0.00  0.00    +0.000 C 
BRANCH  18  19
ATOM     19  C   UNL     1       1.434   7.367  21.411  0.00  0.00    +0.000 C 
BRANCH  19  21
ATOM     20  N   UNL     1       2.904   6.423  19.724  0.00  0.00    +0.000 N 
ATOM     21  C   UNL     1       1.821   6.173  20.552  0.00  0.00    +0.000 C 
ATOM     22  O   UNL     1       1.191   5.122  20.619  0.00  0.00    +0.000 OA
ATOM     23  H   UNL     1       3.319   7.348  19.763  0.00  0.00    +0.000 HD
BRANCH  20  28
ATOM     24  C   UNL     1       5.538   4.638  17.790  0.00  0.00    +0.000 A 
ATOM     25  C   UNL     1       4.767   3.789  16.995  0.00  0.00    +0.000 A 
ATOM     26  C   UNL     1       3.380   3.783  17.112  0.00  0.00    +0.000 A 
ATOM     27  C   UNL     1       2.748   4.638  18.013  0.00  0.00    +0.000 A 
ATOM     28  C   UNL     1       3.490   5.514  18.808  0.00  0.00    +0.000 A 
ATOM     29  C   UNL     1       4.889   5.503  18.691  0.00  0.00    +0.000 A 
BRANCH  24  31
ATOM     30  C   UNL     1       7.738   5.929  18.978  0.00  0.00    +0.000 C 
ATOM     31  S   UNL     1       7.323   4.727  17.678  0.00  0.00    +0.000 S 
ENDBRANCH  24  31
ENDBRANCH  20  28
ENDBRANCH  19  21
ENDBRANCH  18  19
ENDBRANCH   1  18
TORSDOF 5
ENDMDL
MODEL 5
REMARK VINA RESULT:      -8.1      4.473      7.326
REMARK  Name = 
REMARK  10 active torsions:
REMARK  status: ('A' for Active; 'I' for Inactive)
REMARK    1  A    between atoms: C_1  and  S_2
REMARK    2  A    between atoms: S_2  and  C_3
REMARK    3  A    between atoms: C_7  and  N_8
REMARK    4  A    between atoms: C_9  and  C_11
REMARK    5  A    between atoms: C_11  and  C_12
REMARK    6  A    between atoms: C_12  and  C_13
REMARK    7  A    between atoms: C_14  and  C_15
REMARK    8  A    between atoms: C_19  and  C_20
REMARK    9  A    between atoms: C_22  and  C_23
REMARK   10  A    between atoms: C_28  and  C_29
REMARK                            x       y       z     vdW  Elec       q    Type
REMARK                         _______ _______ _______ _____ _____    ______ ____
ROOT
ATOM      1  C   UNL     1      -0.117  11.019  20.471  0.00  0.00    +0.000 A 
ATOM      2  C   UNL     1      -0.263  10.650  19.009  0.00  0.00    +0.000 A 
ATOM      3  C   UNL     1       0.877   9.982  18.264  0.00  0.00    +0.000 C 
ATOM      4  N   UNL     1      -1.328  10.863  18.293  0.00  0.00    +0.000 NA
ATOM      5  C   UNL     1      -2.394  11.454  18.903  0.00  0.00    +0.000 A 
ATOM      6  C   UNL     1      -3.647  11.804  18.457  0.00  0.00    +0.000 A 
ATOM      7  C   UNL     1      -4.168  11.626  17.171  0.00  0.00    +0.000 A 
ATOM      8  C   UNL     1      -3.540  11.023  15.959  0.00  0.00    +0.000 C 
ATOM      9  C   UNL     1      -5.485  12.130  17.137  0.00  0.00    +0.000 A 
ATOM     10  C   UNL     1      -6.119  12.712  18.269  0.00  0.00    +0.000 A 
ATOM     11  C   UNL     1      -7.528  13.226  18.132  0.00  0.00    +0.000 C 
ATOM     12  N   UNL     1      -5.566  12.863  19.510  0.00  0.00    +0.000 NA
ATOM     13  C   UNL     1      -4.297  12.389  19.579  0.00  0.00    +0.000 A 
ATOM     14  N   UNL     1      -3.519  12.407  20.657  0.00  0.00    +0.000 NA
ATOM     15  N   UNL     1      -2.356  11.830  20.253  0.00  0.00    +0.000 N 
ATOM     16  C   UNL     1      -1.207  11.599  21.032  0.00  0.00    +0.000 A 
ATOM     17  C   UNL     1      -1.257  12.018  22.479  0.00  0.00    +0.000 C 
ENDROOT
BRANCH   1  18
ATOM     18  C   UNL     1       1.139  10.669  21.222  0.00  0.00    +0.000 C 
BRANCH  18  19
ATOM     19  C   UNL     1       1.003   9.410  22.091  0.00  0.00    +0.000 C 
BRANCH  19  21
ATOM     20  N   UNL     1       2.106   7.795  20.653  0.00  0.00    +0.000 N 
ATOM     21  C   UNL     1       0.895   8.176  21.209  0.00  0.00    +0.000 C 
ATOM     22  O   UNL     1      -0.186   7.624  21.033  0.00  0.00    +0.000 OA
ATOM     23  H   UNL     1       2.921   8.357  20.874  0.00  0.00    +0.000 HD
BRANCH  20  28
ATOM     24  C   UNL     1       2.286   4.264  19.481  0.00  0.00    +0.000 A 
ATOM     25  C   UNL     1       2.761   4.431  18.180  0.00  0.00    +0.000 A 
ATOM     26  C   UNL     1       2.998   5.707  17.675  0.00  0.00    +0.000 A 
ATOM     27  C   UNL     1       2.779   6.829  18.473  0.00  0.00    +0.000 A 
ATOM     28  C   UNL     1       2.323   6.695  19.786  0.00  0.00    +0.000 A 
ATOM     29  C   UNL     1       2.076   5.404  20.280  0.00  0.00    +0.000 A 
BRANCH  24  31
ATOM     30  C   UNL     1       1.735   3.067  21.967  0.00  0.00    +0.000 C 
ATOM     31  S   UNL     1       1.985   2.659  20.213  0.00  0.00    +0.000 S 
ENDBRANCH  24  31
ENDBRANCH  20  28
ENDBRANCH  19  21
ENDBRANCH  18  19
ENDBRANCH   1  18
TORSDOF 5
ENDMDL
MODEL 6
REMARK VINA RESULT:      -8.0      3.819      6.481
REMARK  Name = 
REMARK  10 active torsions:
REMARK  status: ('A' for Active; 'I' for Inactive)
REMARK    1  A    between atoms: C_1  and  S_2
REMARK    2  A    between atoms: S_2  and  C_3
REMARK    3  A    between atoms: C_7  and  N_8
REMARK    4  A    between atoms: C_9  and  C_11
REMARK    5  A    between atoms: C_11  and  C_12
REMARK    6  A    between atoms: C_12  and  C_13
REMARK    7  A    between atoms: C_14  and  C_15
REMARK    8  A    between atoms: C_19  and  C_20
REMARK    9  A    between atoms: C_22  and  C_23
REMARK   10  A    between atoms: C_28  and  C_29
REMARK                            x       y       z     vdW  Elec       q    Type
REMARK                         _______ _______ _______ _____ _____    ______ ____
ROOT
ATOM      1  C   UNL     1      -0.069  11.230  19.023  0.00  0.00    +0.000 A 
ATOM      2  C   UNL     1      -1.432  10.932  18.433  0.00  0.00    +0.000 A 
ATOM      3  C   UNL     1      -1.577   9.964  17.274  0.00  0.00    +0.000 C 
ATOM      4  N   UNL     1      -2.548  11.456  18.846  0.00  0.00    +0.000 NA
ATOM      5  C   UNL     1      -2.490  12.331  19.889  0.00  0.00    +0.000 A 
ATOM      6  C   UNL     1      -3.456  13.039  20.566  0.00  0.00    +0.000 A 
ATOM      7  C   UNL     1      -4.834  13.033  20.327  0.00  0.00    +0.000 A 
ATOM      8  C   UNL     1      -5.625  12.282  19.309  0.00  0.00    +0.000 C 
ATOM      9  C   UNL     1      -5.462  13.904  21.243  0.00  0.00    +0.000 A 
ATOM     10  C   UNL     1      -4.744  14.638  22.227  0.00  0.00    +0.000 A 
ATOM     11  C   UNL     1      -5.503  15.546  23.157  0.00  0.00    +0.000 C 
ATOM     12  N   UNL     1      -3.392  14.608  22.423  0.00  0.00    +0.000 NA
ATOM     13  C   UNL     1      -2.754  13.780  21.558  0.00  0.00    +0.000 A 
ATOM     14  N   UNL     1      -1.444  13.559  21.517  0.00  0.00    +0.000 NA
ATOM     15  N   UNL     1      -1.276  12.668  20.504  0.00  0.00    +0.000 N 
ATOM     16  C   UNL     1      -0.066  12.101  20.062  0.00  0.00    +0.000 A 
ATOM     17  C   UNL     1       1.192  12.504  20.789  0.00  0.00    +0.000 C 
ENDROOT
BRANCH   1  18
ATOM     18  C   UNL     1       1.154  10.518  18.510  0.00  0.00    +0.000 C 
BRANCH  18  19
ATOM     19  C   UNL     1       1.486   9.234  19.284  0.00  0.00    +0.000 C 
BRANCH  19  21
ATOM     20  N   UNL     1       2.339   6.985  18.955  0.00  0.00    +0.000 N 
ATOM     21  C   UNL     1       2.122   8.213  18.352  0.00  0.00    +0.000 C 
ATOM     22  O   UNL     1       2.404   8.510  17.196  0.00  0.00    +0.000 OA
ATOM     23  H   UNL     1       2.069   6.886  19.928  0.00  0.00    +0.000 HD
BRANCH  20  28
ATOM     24  C   UNL     1       4.955   4.722  17.574  0.00  0.00    +0.000 A 
ATOM     25  C   UNL     1       4.182   3.653  17.121  0.00  0.00    +0.000 A 
ATOM     26  C   UNL     1       2.800   3.661  17.293  0.00  0.00    +0.000 A 
ATOM     27  C   UNL     1       2.176   4.748  17.904  0.00  0.00    +0.000 A 
ATOM     28  C   UNL     1       2.919   5.842  18.349  0.00  0.00    +0.000 A 
ATOM     29  C   UNL     1       4.313   5.817  18.182  0.00  0.00    +0.000 A 
BRANCH  24  31
ATOM     30  C   UNL     1       6.912   4.873  15.558  0.00  0.00    +0.000 C 
ATOM     31  S   UNL     1       6.732   4.800  17.365  0.00  0.00    +0.000 S 
ENDBRANCH  24  31
ENDBRANCH  20  28
ENDBRANCH  19  21
ENDBRANCH  18  19
ENDBRANCH   1  18
TORSDOF 5
ENDMDL
MODEL 7
REMARK VINA RESULT:      -8.0      5.046     11.162
REMARK  Name = 
REMARK  10 active torsions:
REMARK  status: ('A' for Active; 'I' for Inactive)
REMARK    1  A    between atoms: C_1  and  S_2
REMARK    2  A    between atoms: S_2  and  C_3
REMARK    3  A    between atoms: C_7  and  N_8
REMARK    4  A    between atoms: C_9  and  C_11
REMARK    5  A    between atoms: C_11  and  C_12
REMARK    6  A    between atoms: C_12  and  C_13
REMARK    7  A    between atoms: C_14  and  C_15
REMARK    8  A    between atoms: C_19  and  C_20
REMARK    9  A    between atoms: C_22  and  C_23
REMARK   10  A    between atoms: C_28  and  C_29
REMARK                            x       y       z     vdW  Elec       q    Type
REMARK                         _______ _______ _______ _____ _____    ______ ____
ROOT
ATOM      1  C   UNL     1       0.604   9.847  20.036  0.00  0.00    +0.000 A 
ATOM      2  C   UNL     1       0.518   8.679  20.997  0.00  0.00    +0.000 A 
ATOM      3  C   UNL     1      -0.355   8.760  22.235  0.00  0.00    +0.000 C 
ATOM      4  N   UNL     1       1.156   7.554  20.855  0.00  0.00    +0.000 NA
ATOM      5  C   UNL     1       1.954   7.411  19.759  0.00  0.00    +0.000 A 
ATOM      6  C   UNL     1       2.738   6.377  19.306  0.00  0.00    +0.000 A 
ATOM      7  C   UNL     1       2.923   5.127  19.908  0.00  0.00    +0.000 A 
ATOM      8  C   UNL     1       2.340   4.576  21.167  0.00  0.00    +0.000 C 
ATOM      9  C   UNL     1       3.811   4.366  19.121  0.00  0.00    +0.000 A 
ATOM     10  C   UNL     1       4.389   4.855  17.916  0.00  0.00    +0.000 A 
ATOM     11  C   UNL     1       5.331   3.967  17.147  0.00  0.00    +0.000 C 
ATOM     12  N   UNL     1       4.176   6.087  17.366  0.00  0.00    +0.000 NA
ATOM     13  C   UNL     1       3.325   6.848  18.099  0.00  0.00    +0.000 A 
ATOM     14  N   UNL     1       2.941   8.087  17.804  0.00  0.00    +0.000 NA
ATOM     15  N   UNL     1       2.096   8.435  18.812  0.00  0.00    +0.000 N 
ATOM     16  C   UNL     1       1.406   9.652  18.960  0.00  0.00    +0.000 A 
ATOM     17  C   UNL     1       1.602  10.693  17.886  0.00  0.00    +0.000 C 
ENDROOT
BRANCH   1  18
ATOM     18  C   UNL     1      -0.227  11.081  20.262  0.00  0.00    +0.000 C 
BRANCH  18  19
ATOM     19  C   UNL     1       0.362  12.033  21.313  0.00  0.00    +0.000 C 
BRANCH  19  21
ATOM     20  N   UNL     1      -1.980  12.038  21.952  0.00  0.00    +0.000 N 
ATOM     21  C   UNL     1      -0.754  12.657  22.136  0.00  0.00    +0.000 C 
ATOM     22  O   UNL     1      -0.534  13.621  22.862  0.00  0.00    +0.000 OA
ATOM     23  H   UNL     1      -2.018  11.257  21.306  0.00  0.00    +0.000 HD
BRANCH  20  28
ATOM     24  C   UNL     1      -5.479  13.262  22.308  0.00  0.00    +0.000 A 
ATOM     25  C   UNL     1      -5.660  13.176  23.689  0.00  0.00    +0.000 A 
ATOM     26  C   UNL     1      -4.641  12.691  24.504  0.00  0.00    +0.000 A 
ATOM     27  C   UNL     1      -3.423  12.302  23.948  0.00  0.00    +0.000 A 
ATOM     28  C   UNL     1      -3.203  12.394  22.572  0.00  0.00    +0.000 A 
ATOM     29  C   UNL     1      -4.243  12.874  21.759  0.00  0.00    +0.000 A 
BRANCH  24  31
ATOM     30  C   UNL     1      -7.519  12.387  20.579  0.00  0.00    +0.000 C 
ATOM     31  S   UNL     1      -6.728  13.902  21.197  0.00  0.00    +0.000 S 
ENDBRANCH  24  31
ENDBRANCH  20  28
ENDBRANCH  19  21
ENDBRANCH  18  19
ENDBRANCH   1  18
TORSDOF 5
ENDMDL
MODEL 8
REMARK VINA RESULT:      -7.9      4.198      6.895
REMARK  Name = 
REMARK  10 active torsions:
REMARK  status: ('A' for Active; 'I' for Inactive)
REMARK    1  A    between atoms: C_1  and  S_2
REMARK    2  A    between atoms: S_2  and  C_3
REMARK    3  A    between atoms: C_7  and  N_8
REMARK    4  A    between atoms: C_9  and  C_11
REMARK    5  A    between atoms: C_11  and  C_12
REMARK    6  A    between atoms: C_12  and  C_13
REMARK    7  A    between atoms: C_14  and  C_15
REMARK    8  A    between atoms: C_19  and  C_20
REMARK    9  A    between atoms: C_22  and  C_23
REMARK   10  A    between atoms: C_28  and  C_29
REMARK                            x       y       z     vdW  Elec       q    Type
REMARK                         _______ _______ _______ _____ _____    ______ ____
ROOT
ATOM      1  C   UNL     1      -0.508  11.579  19.139  0.00  0.00    +0.000 A 
ATOM      2  C   UNL     1      -1.792  11.165  18.450  0.00  0.00    +0.000 A 
ATOM      3  C   UNL     1      -1.763  10.224  17.261  0.00  0.00    +0.000 C 
ATOM      4  N   UNL     1      -2.981  11.562  18.799  0.00  0.00    +0.000 NA
ATOM      5  C   UNL     1      -3.080  12.405  19.866  0.00  0.00    +0.000 A 
ATOM      6  C   UNL     1      -4.155  12.991  20.493  0.00  0.00    +0.000 A 
ATOM      7  C   UNL     1      -5.507  12.855  20.161  0.00  0.00    +0.000 A 
ATOM      8  C   UNL     1      -6.150  12.060  19.073  0.00  0.00    +0.000 C 
ATOM      9  C   UNL     1      -6.278  13.629  21.053  0.00  0.00    +0.000 A 
ATOM     10  C   UNL     1      -5.704  14.400  22.102  0.00  0.00    +0.000 A 
ATOM     11  C   UNL     1      -6.611  15.198  23.000  0.00  0.00    +0.000 C 
ATOM     12  N   UNL     1      -4.372  14.500  22.388  0.00  0.00    +0.000 NA
ATOM     13  C   UNL     1      -3.599  13.767  21.548  0.00  0.00    +0.000 A 
ATOM     14  N   UNL     1      -2.273  13.679  21.590  0.00  0.00    +0.000 NA
ATOM     15  N   UNL     1      -1.950  12.842  20.569  0.00  0.00    +0.000 N 
ATOM     16  C   UNL     1      -0.662  12.414  20.196  0.00  0.00    +0.000 A 
ATOM     17  C   UNL     1       0.499  12.917  21.017  0.00  0.00    +0.000 C 
ENDROOT
BRANCH   1  18
ATOM     18  C   UNL     1       0.812  11.010  18.692  0.00  0.00    +0.000 C 
BRANCH  18  19
ATOM     19  C   UNL     1       1.171   9.683  19.377  0.00  0.00    +0.000 C 
BRANCH  19  21
ATOM     20  N   UNL     1       2.254   7.552  18.953  0.00  0.00    +0.000 N 
ATOM     21  C   UNL     1       1.881   8.765  18.395  0.00  0.00    +0.000 C 
ATOM     22  O   UNL     1       2.089   9.122  17.240  0.00  0.00    +0.000 OA
ATOM     23  H   UNL     1       2.030   7.397  19.930  0.00  0.00    +0.000 HD
BRANCH  20  28
ATOM     24  C   UNL     1       3.005   4.113  17.736  0.00  0.00    +0.000 A 
ATOM     25  C   UNL     1       4.212   4.317  17.067  0.00  0.00    +0.000 A 
ATOM     26  C   UNL     1       4.769   5.590  16.991  0.00  0.00    +0.000 A 
ATOM     27  C   UNL     1       4.133   6.671  17.600  0.00  0.00    +0.000 A 
ATOM     28  C   UNL     1       2.934   6.497  18.294  0.00  0.00    +0.000 A 
ATOM     29  C   UNL     1       2.375   5.211  18.353  0.00  0.00    +0.000 A 
BRANCH  24  31
ATOM     30  C   UNL     1       3.627   1.462  18.443  0.00  0.00    +0.000 C 
ATOM     31  S   UNL     1       2.239   2.503  17.903  0.00  0.00    +0.000 S 
ENDBRANCH  24  31
ENDBRANCH  20  28
ENDBRANCH  19  21
ENDBRANCH  18  19
ENDBRANCH   1  18
TORSDOF 5
ENDMDL
MODEL 9
REMARK VINA RESULT:      -7.9      5.256     11.433
REMARK  Name = 
REMARK  10 active torsions:
REMARK  status: ('A' for Active; 'I' for Inactive)
REMARK    1  A    between atoms: C_1  and  S_2
REMARK    2  A    between atoms: S_2  and  C_3
REMARK    3  A    between atoms: C_7  and  N_8
REMARK    4  A    between atoms: C_9  and  C_11
REMARK    5  A    between atoms: C_11  and  C_12
REMARK    6  A    between atoms: C_12  and  C_13
REMARK    7  A    between atoms: C_14  and  C_15
REMARK    8  A    between atoms: C_19  and  C_20
REMARK    9  A    between atoms: C_22  and  C_23
REMARK   10  A    between atoms: C_28  and  C_29
REMARK                            x       y       z     vdW  Elec       q    Type
REMARK                         _______ _______ _______ _____ _____    ______ ____
ROOT
ATOM      1  C   UNL     1       0.955   9.862  20.038  0.00  0.00    +0.000 A 
ATOM      2  C   UNL     1       0.797   8.724  21.025  0.00  0.00    +0.000 A 
ATOM      3  C   UNL     1       0.010   8.918  22.307  0.00  0.00    +0.000 C 
ATOM      4  N   UNL     1       1.298   7.534  20.870  0.00  0.00    +0.000 NA
ATOM      5  C   UNL     1       2.012   7.289  19.734  0.00  0.00    +0.000 A 
ATOM      6  C   UNL     1       2.651   6.168  19.260  0.00  0.00    +0.000 A 
ATOM      7  C   UNL     1       2.731   4.914  19.874  0.00  0.00    +0.000 A 
ATOM      8  C   UNL     1       2.164   4.448  21.173  0.00  0.00    +0.000 C 
ATOM      9  C   UNL     1       3.485   4.049  19.054  0.00  0.00    +0.000 A 
ATOM     10  C   UNL     1       4.044   4.455  17.810  0.00  0.00    +0.000 A 
ATOM     11  C   UNL     1       4.837   3.458  17.008  0.00  0.00    +0.000 C 
ATOM     12  N   UNL     1       3.935   5.696  17.249  0.00  0.00    +0.000 NA
ATOM     13  C   UNL     1       3.216   6.556  18.013  0.00  0.00    +0.000 A 
ATOM     14  N   UNL     1       2.954   7.825  17.716  0.00  0.00    +0.000 NA
ATOM     15  N   UNL     1       2.211   8.278  18.761  0.00  0.00    +0.000 N 
ATOM     16  C   UNL     1       1.669   9.566  18.924  0.00  0.00    +0.000 A 
ATOM     17  C   UNL     1       1.916  10.564  17.821  0.00  0.00    +0.000 C 
ENDROOT
BRANCH   1  18
ATOM     18  C   UNL     1       0.279  11.184  20.286  0.00  0.00    +0.000 C 
BRANCH  18  19
ATOM     19  C   UNL     1      -1.142  11.263  19.710  0.00  0.00    +0.000 C 
BRANCH  19  21
ATOM     20  N   UNL     1      -1.645  12.134  21.920  0.00  0.00    +0.000 N 
ATOM     21  C   UNL     1      -2.010  12.155  20.583  0.00  0.00    +0.000 C 
ATOM     22  O   UNL     1      -2.937  12.797  20.099  0.00  0.00    +0.000 OA
ATOM     23  H   UNL     1      -0.863  11.543  22.182  0.00  0.00    +0.000 HD
BRANCH  20  28
ATOM     24  C   UNL     1      -2.248  14.833  24.414  0.00  0.00    +0.000 A 
ATOM     25  C   UNL     1      -3.375  14.346  25.077  0.00  0.00    +0.000 A 
ATOM     26  C   UNL     1      -3.955  13.142  24.689  0.00  0.00    +0.000 A 
ATOM     27  C   UNL     1      -3.404  12.403  23.643  0.00  0.00    +0.000 A 
ATOM     28  C   UNL     1      -2.264  12.852  22.973  0.00  0.00    +0.000 A 
ATOM     29  C   UNL     1      -1.695  14.075  23.365  0.00  0.00    +0.000 A 
BRANCH  24  31
ATOM     30  C   UNL     1      -0.745  15.958  26.510  0.00  0.00    +0.000 C 
ATOM     31  S   UNL     1      -1.426  16.356  24.872  0.00  0.00    +0.000 S 
ENDBRANCH  24  31
ENDBRANCH  20  28
ENDBRANCH  19  21
ENDBRANCH  18  19
ENDBRANCH   1  18
TORSDOF 5
ENDMDL
