MODEL 1
REMARK VINA RESULT:      -8.1      0.000      0.000
REMARK  Name = 
REMARK  9 active torsions:
REMARK  status: ('A' for Active; 'I' for Inactive)
REMARK    1  A    between atoms: C_1  and  C_2
REMARK    2  A    between atoms: C_4  and  N_5
REMARK    3  A    between atoms: C_17  and  C_18
REMARK    4  A    between atoms: C_19  and  N_20
REMARK    5  A    between atoms: C_21  and  C_23
REMARK    6  A    between atoms: C_23  and  C_24
REMARK    7  A    between atoms: C_24  and  C_25
REMARK    8  A    between atoms: C_24  and  C_26
REMARK    9  A    between atoms: C_24  and  C_27
REMARK                            x       y       z     vdW  Elec       q    Type
REMARK                         _______ _______ _______ _____ _____    ______ ____
ROOT
ATOM      1  C   UNL     1       1.901   4.765  20.874  0.00  0.00    +0.000 C 
ATOM      2  C   UNL     1       1.965   6.165  20.322  0.00  0.00    +0.000 A 
ATOM      3  C   UNL     1       1.341   7.164  21.094  0.00  0.00    +0.000 A 
ATOM      4  C   UNL     1       1.204   8.473  20.641  0.00  0.00    +0.000 A 
ATOM      5  C   UNL     1       1.760   8.789  19.397  0.00  0.00    +0.000 A 
ATOM      6  C   UNL     1       2.399   7.824  18.594  0.00  0.00    +0.000 A 
ATOM      7  C   UNL     1       2.997   8.276  17.289  0.00  0.00    +0.000 C 
ATOM      8  C   UNL     1       2.501   6.497  19.058  0.00  0.00    +0.000 A 
ENDROOT
BRANCH   4   9
ATOM      9  N   UNL     1       0.462   9.452  21.331  0.00  0.00    +0.000 N 
ATOM     10  C   UNL     1      -0.415   8.983  22.418  0.00  0.00    +0.000 C 
ATOM     11  C   UNL     1      -0.850  10.181  23.268  0.00  0.00    +0.000 C 
ATOM     12  C   UNL     1      -1.319  11.348  22.430  0.00  0.00    +0.000 A 
ATOM     13  C   UNL     1      -1.999  12.413  23.035  0.00  0.00    +0.000 A 
ATOM     14  C   UNL     1      -2.391  13.505  22.270  0.00  0.00    +0.000 A 
ATOM     15  F   UNL     1      -3.031  14.525  22.857  0.00  0.00    +0.000 F 
ATOM     16  C   UNL     1      -2.127  13.559  20.911  0.00  0.00    +0.000 A 
ATOM     17  C   UNL     1      -1.447  12.510  20.297  0.00  0.00    +0.000 A 
ATOM     18  C   UNL     1      -1.016  11.409  21.055  0.00  0.00    +0.000 A 
ATOM     19  C   UNL     1      -0.271  10.289  20.360  0.00  0.00    +0.000 C 
ENDBRANCH   4   9
BRANCH   8  20
ATOM     20  N   UNL     1       3.063   5.510  18.202  0.00  0.00    +0.000 N 
ATOM     21  C   UNL     1       4.369   5.075  18.343  0.00  0.00    +0.000 C 
ATOM     22  O   UNL     1       5.151   5.473  19.211  0.00  0.00    +0.000 OA
ATOM     23  H   UNL     1       2.728   5.514  17.243  0.00  0.00    +0.000 HD
BRANCH  21  24
ATOM     24  C   UNL     1       4.821   4.021  17.329  0.00  0.00    +0.000 C 
BRANCH  24  25
ATOM     25  C   UNL     1       5.858   4.543  16.307  0.00  0.00    +0.000 C 
ATOM     26  C   UNL     1       7.263   4.547  16.928  0.00  0.00    +0.000 C 
ATOM     27  C   UNL     1       5.879   3.631  15.063  0.00  0.00    +0.000 C 
ATOM     28  C   UNL     1       5.495   5.961  15.832  0.00  0.00    +0.000 C 
ENDBRANCH  24  25
ENDBRANCH  21  24
ENDBRANCH   8  20
TORSDOF 4
ENDMDL
MODEL 2
REMARK VINA RESULT:      -7.9      3.974      9.643
REMARK  Name = 
REMARK  9 active torsions:
REMARK  status: ('A' for Active; 'I' for Inactive)
REMARK    1  A    between atoms: C_1  and  C_2
REMARK    2  A    between atoms: C_4  and  N_5
REMARK    3  A    between atoms: C_17  and  C_18
REMARK    4  A    between atoms: C_19  and  N_20
REMARK    5  A    between atoms: C_21  and  C_23
REMARK    6  A    between atoms: C_23  and  C_24
REMARK    7  A    between atoms: C_24  and  C_25
REMARK    8  A    between atoms: C_24  and  C_26
REMARK    9  A    between atoms: C_24  and  C_27
REMARK                            x       y       z     vdW  Elec       q    Type
REMARK                         _______ _______ _______ _____ _____    ______ ____
ROOT
ATOM      1  C   UNL     1      -0.150  11.197  18.287  0.00  0.00    +0.000 C 
ATOM      2  C   UNL     1       0.248  10.379  19.487  0.00  0.00    +0.000 A 
ATOM      3  C   UNL     1       1.141   9.317  19.243  0.00  0.00    +0.000 A 
ATOM      4  C   UNL     1       1.487   8.398  20.230  0.00  0.00    +0.000 A 
ATOM      5  C   UNL     1       0.954   8.591  21.509  0.00  0.00    +0.000 A 
ATOM      6  C   UNL     1       0.063   9.642  21.800  0.00  0.00    +0.000 A 
ATOM      7  C   UNL     1      -0.423   9.783  23.217  0.00  0.00    +0.000 C 
ATOM      8  C   UNL     1      -0.298  10.544  20.779  0.00  0.00    +0.000 A 
ENDROOT
BRANCH   4   9
ATOM      9  N   UNL     1       2.264   7.251  19.974  0.00  0.00    +0.000 N 
ATOM     10  C   UNL     1       2.627   6.989  18.571  0.00  0.00    +0.000 C 
ATOM     11  C   UNL     1       3.741   5.939  18.525  0.00  0.00    +0.000 C 
ATOM     12  C   UNL     1       3.459   4.753  19.419  0.00  0.00    +0.000 A 
ATOM     13  C   UNL     1       4.229   3.589  19.299  0.00  0.00    +0.000 A 
ATOM     14  C   UNL     1       3.995   2.516  20.152  0.00  0.00    +0.000 A 
ATOM     15  F   UNL     1       4.743   1.410  20.038  0.00  0.00    +0.000 F 
ATOM     16  C   UNL     1       3.006   2.573  21.120  0.00  0.00    +0.000 A 
ATOM     17  C   UNL     1       2.238   3.726  21.255  0.00  0.00    +0.000 A 
ATOM     18  C   UNL     1       2.474   4.833  20.424  0.00  0.00    +0.000 A 
ATOM     19  C   UNL     1       1.627   6.075  20.602  0.00  0.00    +0.000 C 
ENDBRANCH   4   9
BRANCH   8  20
ATOM     20  N   UNL     1      -1.269  11.545  21.056  0.00  0.00    +0.000 N 
ATOM     21  C   UNL     1      -0.921  12.786  21.560  0.00  0.00    +0.000 C 
ATOM     22  O   UNL     1       0.236  13.148  21.796  0.00  0.00    +0.000 OA
ATOM     23  H   UNL     1      -2.174  11.208  21.374  0.00  0.00    +0.000 HD
BRANCH  21  24
ATOM     24  C   UNL     1      -2.090  13.740  21.818  0.00  0.00    +0.000 C 
BRANCH  24  25
ATOM     25  C   UNL     1      -2.629  13.689  23.266  0.00  0.00    +0.000 C 
ATOM     26  C   UNL     1      -1.596  14.274  24.241  0.00  0.00    +0.000 C 
ATOM     27  C   UNL     1      -3.925  14.517  23.378  0.00  0.00    +0.000 C 
ATOM     28  C   UNL     1      -2.970  12.245  23.674  0.00  0.00    +0.000 C 
ENDBRANCH  24  25
ENDBRANCH  21  24
ENDBRANCH   8  20
TORSDOF 4
ENDMDL
MODEL 3
REMARK VINA RESULT:      -7.7      0.450      1.737
REMARK  Name = 
REMARK  9 active torsions:
REMARK  status: ('A' for Active; 'I' for Inactive)
REMARK    1  A    between atoms: C_1  and  C_2
REMARK    2  A    between atoms: C_4  and  N_5
REMARK    3  A    between atoms: C_17  and  C_18
REMARK    4  A    between atoms: C_19  and  N_20
REMARK    5  A    between atoms: C_21  and  C_23
REMARK    6  A    between atoms: C_23  and  C_24
REMARK    7  A    between atoms: C_24  and  C_25
REMARK    8  A    between atoms: C_24  and  C_26
REMARK    9  A    between atoms: C_24  and  C_27
REMARK                            x       y       z     vdW  Elec       q    Type
REMARK                         _______ _______ _______ _____ _____    ______ ____
ROOT
ATOM      1  C   UNL     1       3.140   8.156  17.290  0.00  0.00    +0.000 C 
ATOM      2  C   UNL     1       2.415   7.688  18.524  0.00  0.00    +0.000 A 
ATOM      3  C   UNL     1       1.702   8.674  19.234  0.00  0.00    +0.000 A 
ATOM      4  C   UNL     1       1.100   8.413  20.462  0.00  0.00    +0.000 A 
ATOM      5  C   UNL     1       1.179   7.107  20.957  0.00  0.00    +0.000 A 
ATOM      6  C   UNL     1       1.876   6.088  20.278  0.00  0.00    +0.000 A 
ATOM      7  C   UNL     1       1.869   4.708  20.878  0.00  0.00    +0.000 C 
ATOM      8  C   UNL     1       2.503   6.380  19.051  0.00  0.00    +0.000 A 
ENDROOT
BRANCH   4   9
ATOM      9  N   UNL     1       0.505   9.415  21.255  0.00  0.00    +0.000 N 
ATOM     10  C   UNL     1      -0.361   8.967  22.359  0.00  0.00    +0.000 C 
ATOM     11  C   UNL     1      -0.619  10.142  23.307  0.00  0.00    +0.000 C 
ATOM     12  C   UNL     1      -1.000  11.407  22.574  0.00  0.00    +0.000 A 
ATOM     13  C   UNL     1      -1.528  12.493  23.283  0.00  0.00    +0.000 A 
ATOM     14  C   UNL     1      -1.837  13.671  22.612  0.00  0.00    +0.000 A 
ATOM     15  F   UNL     1      -2.331  14.710  23.299  0.00  0.00    +0.000 F 
ATOM     16  C   UNL     1      -1.639  13.791  21.246  0.00  0.00    +0.000 A 
ATOM     17  C   UNL     1      -1.110  12.721  20.529  0.00  0.00    +0.000 A 
ATOM     18  C   UNL     1      -0.763  11.531  21.189  0.00  0.00    +0.000 A 
ATOM     19  C   UNL     1      -0.182  10.389  20.383  0.00  0.00    +0.000 C 
ENDBRANCH   4   9
BRANCH   8  20
ATOM     20  N   UNL     1       3.282   5.373  18.419  0.00  0.00    +0.000 N 
ATOM     21  C   UNL     1       4.601   5.139  18.766  0.00  0.00    +0.000 C 
ATOM     22  O   UNL     1       5.213   5.750  19.648  0.00  0.00    +0.000 OA
ATOM     23  H   UNL     1       3.076   5.205  17.438  0.00  0.00    +0.000 HD
BRANCH  21  24
ATOM     24  C   UNL     1       5.301   4.031  17.977  0.00  0.00    +0.000 C 
BRANCH  24  25
ATOM     25  C   UNL     1       6.224   4.553  16.852  0.00  0.00    +0.000 C 
ATOM     26  C   UNL     1       7.690   4.532  17.312  0.00  0.00    +0.000 C 
ATOM     27  C   UNL     1       6.095   3.658  15.603  0.00  0.00    +0.000 C 
ATOM     28  C   UNL     1       5.830   5.981  16.436  0.00  0.00    +0.000 C 
ENDBRANCH  24  25
ENDBRANCH  21  24
ENDBRANCH   8  20
TORSDOF 4
ENDMDL
MODEL 4
REMARK VINA RESULT:      -7.6      4.011      9.515
REMARK  Name = 
REMARK  9 active torsions:
REMARK  status: ('A' for Active; 'I' for Inactive)
REMARK    1  A    between atoms: C_1  and  C_2
REMARK    2  A    between atoms: C_4  and  N_5
REMARK    3  A    between atoms: C_17  and  C_18
REMARK    4  A    between atoms: C_19  and  N_20
REMARK    5  A    between atoms: C_21  and  C_23
REMARK    6  A    between atoms: C_23  and  C_24
REMARK    7  A    between atoms: C_24  and  C_25
REMARK    8  A    between atoms: C_24  and  C_26
REMARK    9  A    between atoms: C_24  and  C_27
REMARK                            x       y       z     vdW  Elec       q    Type
REMARK                         _______ _______ _______ _____ _____    ______ ____
ROOT
ATOM      1  C   UNL     1      -0.559   9.822  23.179  0.00  0.00    +0.000 C 
ATOM      2  C   UNL     1       0.075   9.799  21.813  0.00  0.00    +0.000 A 
ATOM      3  C   UNL     1       0.697   8.592  21.441  0.00  0.00    +0.000 A 
ATOM      4  C   UNL     1       1.438   8.471  20.268  0.00  0.00    +0.000 A 
ATOM      5  C   UNL     1       1.506   9.587  19.427  0.00  0.00    +0.000 A 
ATOM      6  C   UNL     1       0.894  10.812  19.756  0.00  0.00    +0.000 A 
ATOM      7  C   UNL     1       0.996  11.940  18.765  0.00  0.00    +0.000 C 
ATOM      8  C   UNL     1       0.173  10.922  20.963  0.00  0.00    +0.000 A 
ENDROOT
BRANCH   4   9
ATOM      9  N   UNL     1       2.185   7.320  19.946  0.00  0.00    +0.000 N 
ATOM     10  C   UNL     1       2.430   7.061  18.517  0.00  0.00    +0.000 C 
ATOM     11  C   UNL     1       3.531   6.005  18.376  0.00  0.00    +0.000 C 
ATOM     12  C   UNL     1       3.316   4.818  19.286  0.00  0.00    +0.000 A 
ATOM     13  C   UNL     1       4.067   3.651  19.099  0.00  0.00    +0.000 A 
ATOM     14  C   UNL     1       3.898   2.576  19.965  0.00  0.00    +0.000 A 
ATOM     15  F   UNL     1       4.628   1.466  19.786  0.00  0.00    +0.000 F 
ATOM     16  C   UNL     1       2.993   2.634  21.011  0.00  0.00    +0.000 A 
ATOM     17  C   UNL     1       2.244   3.790  21.213  0.00  0.00    +0.000 A 
ATOM     18  C   UNL     1       2.417   4.900  20.369  0.00  0.00    +0.000 A 
ATOM     19  C   UNL     1       1.595   6.146  20.620  0.00  0.00    +0.000 C 
ENDBRANCH   4   9
BRANCH   8  20
ATOM     20  N   UNL     1      -0.362  12.187  21.332  0.00  0.00    +0.000 N 
ATOM     21  C   UNL     1      -1.618  12.600  20.922  0.00  0.00    +0.000 C 
ATOM     22  O   UNL     1      -2.387  11.926  20.231  0.00  0.00    +0.000 OA
ATOM     23  H   UNL     1       0.312  12.941  21.427  0.00  0.00    +0.000 HD
BRANCH  21  24
ATOM     24  C   UNL     1      -2.035  13.995  21.393  0.00  0.00    +0.000 C 
BRANCH  24  25
ATOM     25  C   UNL     1      -2.518  14.040  22.861  0.00  0.00    +0.000 C 
ATOM     26  C   UNL     1      -1.338  14.327  23.802  0.00  0.00    +0.000 C 
ATOM     27  C   UNL     1      -3.564  15.159  23.039  0.00  0.00    +0.000 C 
ATOM     28  C   UNL     1      -3.190  12.714  23.258  0.00  0.00    +0.000 C 
ENDBRANCH  24  25
ENDBRANCH  21  24
ENDBRANCH   8  20
TORSDOF 4
ENDMDL
MODEL 5
REMARK VINA RESULT:      -7.6      3.859      9.503
REMARK  Name = 
REMARK  9 active torsions:
REMARK  status: ('A' for Active; 'I' for Inactive)
REMARK    1  A    between atoms: C_1  and  C_2
REMARK    2  A    between atoms: C_4  and  N_5
REMARK    3  A    between atoms: C_17  and  C_18
REMARK    4  A    between atoms: C_19  and  N_20
REMARK    5  A    between atoms: C_21  and  C_23
REMARK    6  A    between atoms: C_23  and  C_24
REMARK    7  A    between atoms: C_24  and  C_25
REMARK    8  A    between atoms: C_24  and  C_26
REMARK    9  A    between atoms: C_24  and  C_27
REMARK                            x       y       z     vdW  Elec       q    Type
REMARK                         _______ _______ _______ _____ _____    ______ ____
ROOT
ATOM      1  C   UNL     1       0.203   9.192  22.504  0.00  0.00    +0.000 C 
ATOM      2  C   UNL     1       0.686   9.340  21.085  0.00  0.00    +0.000 A 
ATOM      3  C   UNL     1       1.188   8.173  20.478  0.00  0.00    +0.000 A 
ATOM      4  C   UNL     1       1.792   8.190  19.223  0.00  0.00    +0.000 A 
ATOM      5  C   UNL     1       1.840   9.414  18.546  0.00  0.00    +0.000 A 
ATOM      6  C   UNL     1       1.344  10.605  19.111  0.00  0.00    +0.000 A 
ATOM      7  C   UNL     1       1.411  11.859  18.284  0.00  0.00    +0.000 C 
ATOM      8  C   UNL     1       0.764  10.570  20.395  0.00  0.00    +0.000 A 
ENDROOT
BRANCH   4   9
ATOM      9  N   UNL     1       2.426   7.066  18.659  0.00  0.00    +0.000 N 
ATOM     10  C   UNL     1       2.810   5.982  19.580  0.00  0.00    +0.000 C 
ATOM     11  C   UNL     1       3.144   4.726  18.770  0.00  0.00    +0.000 C 
ATOM     12  C   UNL     1       4.052   5.015  17.597  0.00  0.00    +0.000 A 
ATOM     13  C   UNL     1       4.670   3.959  16.916  0.00  0.00    +0.000 A 
ATOM     14  C   UNL     1       5.469   4.226  15.809  0.00  0.00    +0.000 A 
ATOM     15  F   UNL     1       6.049   3.210  15.156  0.00  0.00    +0.000 F 
ATOM     16  C   UNL     1       5.673   5.523  15.369  0.00  0.00    +0.000 A 
ATOM     17  C   UNL     1       5.060   6.582  16.033  0.00  0.00    +0.000 A 
ATOM     18  C   UNL     1       4.226   6.336  17.135  0.00  0.00    +0.000 A 
ATOM     19  C   UNL     1       3.566   7.508  17.831  0.00  0.00    +0.000 C 
ENDBRANCH   4   9
BRANCH   8  20
ATOM     20  N   UNL     1       0.351  11.790  20.997  0.00  0.00    +0.000 N 
ATOM     21  C   UNL     1      -0.926  12.296  20.830  0.00  0.00    +0.000 C 
ATOM     22  O   UNL     1      -1.818  11.747  20.176  0.00  0.00    +0.000 OA
ATOM     23  H   UNL     1       1.070  12.503  21.090  0.00  0.00    +0.000 HD
BRANCH  21  24
ATOM     24  C   UNL     1      -1.200  13.629  21.531  0.00  0.00    +0.000 C 
BRANCH  24  25
ATOM     25  C   UNL     1      -2.096  13.501  22.785  0.00  0.00    +0.000 C 
ATOM     26  C   UNL     1      -3.534  13.930  22.459  0.00  0.00    +0.000 C 
ATOM     27  C   UNL     1      -2.125  12.037  23.269  0.00  0.00    +0.000 C 
ATOM     28  C   UNL     1      -1.548  14.356  23.941  0.00  0.00    +0.000 C 
ENDBRANCH  24  25
ENDBRANCH  21  24
ENDBRANCH   8  20
TORSDOF 4
ENDMDL
MODEL 6
REMARK VINA RESULT:      -7.4      0.832      1.872
REMARK  Name = 
REMARK  9 active torsions:
REMARK  status: ('A' for Active; 'I' for Inactive)
REMARK    1  A    between atoms: C_1  and  C_2
REMARK    2  A    between atoms: C_4  and  N_5
REMARK    3  A    between atoms: C_17  and  C_18
REMARK    4  A    between atoms: C_19  and  N_20
REMARK    5  A    between atoms: C_21  and  C_23
REMARK    6  A    between atoms: C_23  and  C_24
REMARK    7  A    between atoms: C_24  and  C_25
REMARK    8  A    between atoms: C_24  and  C_26
REMARK    9  A    between atoms: C_24  and  C_27
REMARK                            x       y       z     vdW  Elec       q    Type
REMARK                         _______ _______ _______ _____ _____    ______ ____
ROOT
ATOM      1  C   UNL     1       3.292   8.273  17.359  0.00  0.00    +0.000 C 
ATOM      2  C   UNL     1       2.577   7.786  18.591  0.00  0.00    +0.000 A 
ATOM      3  C   UNL     1       1.753   8.725  19.240  0.00  0.00    +0.000 A 
ATOM      4  C   UNL     1       1.140   8.456  20.461  0.00  0.00    +0.000 A 
ATOM      5  C   UNL     1       1.327   7.183  21.012  0.00  0.00    +0.000 A 
ATOM      6  C   UNL     1       2.138   6.210  20.395  0.00  0.00    +0.000 A 
ATOM      7  C   UNL     1       2.243   4.861  21.051  0.00  0.00    +0.000 C 
ATOM      8  C   UNL     1       2.772   6.514  19.174  0.00  0.00    +0.000 A 
ENDROOT
BRANCH   4   9
ATOM      9  N   UNL     1       0.429   9.426  21.196  0.00  0.00    +0.000 N 
ATOM     10  C   UNL     1      -0.394   8.944  22.318  0.00  0.00    +0.000 C 
ATOM     11  C   UNL     1      -0.791  10.132  23.199  0.00  0.00    +0.000 C 
ATOM     12  C   UNL     1      -1.303  11.305  22.396  0.00  0.00    +0.000 A 
ATOM     13  C   UNL     1      -1.955  12.362  23.043  0.00  0.00    +0.000 A 
ATOM     14  C   UNL     1      -2.386  13.461  22.308  0.00  0.00    +0.000 A 
ATOM     15  F   UNL     1      -3.000  14.474  22.935  0.00  0.00    +0.000 F 
ATOM     16  C   UNL     1      -2.187  13.529  20.938  0.00  0.00    +0.000 A 
ATOM     17  C   UNL     1      -1.535  12.488  20.283  0.00  0.00    +0.000 A 
ATOM     18  C   UNL     1      -1.065  11.381  21.009  0.00  0.00    +0.000 A 
ATOM     19  C   UNL     1      -0.351  10.270  20.268  0.00  0.00    +0.000 C 
ENDBRANCH   4   9
BRANCH   8  20
ATOM     20  N   UNL     1       3.663   5.562  18.605  0.00  0.00    +0.000 N 
ATOM     21  C   UNL     1       3.234   4.603  17.704  0.00  0.00    +0.000 C 
ATOM     22  O   UNL     1       2.073   4.491  17.298  0.00  0.00    +0.000 OA
ATOM     23  H   UNL     1       4.424   5.256  19.204  0.00  0.00    +0.000 HD
BRANCH  21  24
ATOM     24  C   UNL     1       4.316   3.644  17.202  0.00  0.00    +0.000 C 
BRANCH  24  25
ATOM     25  C   UNL     1       5.493   4.350  16.489  0.00  0.00    +0.000 C 
ATOM     26  C   UNL     1       6.678   4.512  17.452  0.00  0.00    +0.000 C 
ATOM     27  C   UNL     1       5.959   3.512  15.282  0.00  0.00    +0.000 C 
ATOM     28  C   UNL     1       5.064   5.728  15.955  0.00  0.00    +0.000 C 
ENDBRANCH  24  25
ENDBRANCH  21  24
ENDBRANCH   8  20
TORSDOF 4
ENDMDL
MODEL 7
REMARK VINA RESULT:      -7.4      3.984      9.562
REMARK  Name = 
REMARK  9 active torsions:
REMARK  status: ('A' for Active; 'I' for Inactive)
REMARK    1  A    between atoms: C_1  and  C_2
REMARK    2  A    between atoms: C_4  and  N_5
REMARK    3  A    between atoms: C_17  and  C_18
REMARK    4  A    between atoms: C_19  and  N_20
REMARK    5  A    between atoms: C_21  and  C_23
REMARK    6  A    between atoms: C_23  and  C_24
REMARK    7  A    between atoms: C_24  and  C_25
REMARK    8  A    between atoms: C_24  and  C_26
REMARK    9  A    between atoms: C_24  and  C_27
REMARK                            x       y       z     vdW  Elec       q    Type
REMARK                         _______ _______ _______ _____ _____    ______ ____
ROOT
ATOM      1  C   UNL     1      -0.014  11.518  18.583  0.00  0.00    +0.000 C 
ATOM      2  C   UNL     1       0.316  10.587  19.720  0.00  0.00    +0.000 A 
ATOM      3  C   UNL     1       1.180   9.518  19.413  0.00  0.00    +0.000 A 
ATOM      4  C   UNL     1       1.462   8.507  20.328  0.00  0.00    +0.000 A 
ATOM      5  C   UNL     1       0.895   8.610  21.603  0.00  0.00    +0.000 A 
ATOM      6  C   UNL     1       0.030   9.665  21.955  0.00  0.00    +0.000 A 
ATOM      7  C   UNL     1      -0.497   9.704  23.364  0.00  0.00    +0.000 C 
ATOM      8  C   UNL     1      -0.266  10.663  21.005  0.00  0.00    +0.000 A 
ENDROOT
BRANCH   4   9
ATOM      9  N   UNL     1       2.208   7.357  19.998  0.00  0.00    +0.000 N 
ATOM     10  C   UNL     1       2.476   7.122  18.569  0.00  0.00    +0.000 C 
ATOM     11  C   UNL     1       3.573   6.062  18.429  0.00  0.00    +0.000 C 
ATOM     12  C   UNL     1       3.336   4.861  19.315  0.00  0.00    +0.000 A 
ATOM     13  C   UNL     1       4.083   3.692  19.121  0.00  0.00    +0.000 A 
ATOM     14  C   UNL     1       3.894   2.603  19.965  0.00  0.00    +0.000 A 
ATOM     15  F   UNL     1       4.620   1.492  19.780  0.00  0.00    +0.000 F 
ATOM     16  C   UNL     1       2.971   2.649  20.997  0.00  0.00    +0.000 A 
ATOM     17  C   UNL     1       2.226   3.807  21.206  0.00  0.00    +0.000 A 
ATOM     18  C   UNL     1       2.419   4.929  20.384  0.00  0.00    +0.000 A 
ATOM     19  C   UNL     1       1.600   6.175  20.642  0.00  0.00    +0.000 C 
ENDBRANCH   4   9
BRANCH   8  20
ATOM     20  N   UNL     1      -1.211  11.672  21.337  0.00  0.00    +0.000 N 
ATOM     21  C   UNL     1      -0.829  12.882  21.889  0.00  0.00    +0.000 C 
ATOM     22  O   UNL     1       0.338  13.208  22.125  0.00  0.00    +0.000 OA
ATOM     23  H   UNL     1      -2.119  11.341  21.652  0.00  0.00    +0.000 HD
BRANCH  21  24
ATOM     24  C   UNL     1      -1.973  13.849  22.203  0.00  0.00    +0.000 C 
BRANCH  24  25
ATOM     25  C   UNL     1      -1.950  15.140  21.353  0.00  0.00    +0.000 C 
ATOM     26  C   UNL     1      -1.182  14.903  20.045  0.00  0.00    +0.000 C 
ATOM     27  C   UNL     1      -3.389  15.568  21.001  0.00  0.00    +0.000 C 
ATOM     28  C   UNL     1      -1.304  16.300  22.133  0.00  0.00    +0.000 C 
ENDBRANCH  24  25
ENDBRANCH  21  24
ENDBRANCH   8  20
TORSDOF 4
ENDMDL
MODEL 8
REMARK VINA RESULT:      -7.4      3.793      9.508
REMARK  Name = 
REMARK  9 active torsions:
REMARK  status: ('A' for Active; 'I' for Inactive)
REMARK    1  A    between atoms: C_1  and  C_2
REMARK    2  A    between atoms: C_4  and  N_5
REMARK    3  A    between atoms: C_17  and  C_18
REMARK    4  A    between atoms: C_19  and  N_20
REMARK    5  A    between atoms: C_21  and  C_23
REMARK    6  A    between atoms: C_23  and  C_24
REMARK    7  A    between atoms: C_24  and  C_25
REMARK    8  A    between atoms: C_24  and  C_26
REMARK    9  A    between atoms: C_24  and  C_27
REMARK                            x       y       z     vdW  Elec       q    Type
REMARK                         _______ _______ _______ _____ _____    ______ ____
ROOT
ATOM      1  C   UNL     1      -0.302  11.211  18.332  0.00  0.00    +0.000 C 
ATOM      2  C   UNL     1       0.377  10.239  19.259  0.00  0.00    +0.000 A 
ATOM      3  C   UNL     1       1.130   9.220  18.644  0.00  0.00    +0.000 A 
ATOM      4  C   UNL     1       1.698   8.176  19.369  0.00  0.00    +0.000 A 
ATOM      5  C   UNL     1       1.541   8.194  20.760  0.00  0.00    +0.000 A 
ATOM      6  C   UNL     1       0.802   9.196  21.418  0.00  0.00    +0.000 A 
ATOM      7  C   UNL     1       0.726   9.143  22.920  0.00  0.00    +0.000 C 
ATOM      8  C   UNL     1       0.211  10.228  20.662  0.00  0.00    +0.000 A 
ENDROOT
BRANCH   4   9
ATOM      9  N   UNL     1       2.333   7.074  18.763  0.00  0.00    +0.000 N 
ATOM     10  C   UNL     1       2.721   5.958  19.643  0.00  0.00    +0.000 C 
ATOM     11  C   UNL     1       3.056   4.733  18.787  0.00  0.00    +0.000 C 
ATOM     12  C   UNL     1       3.960   5.066  17.623  0.00  0.00    +0.000 A 
ATOM     13  C   UNL     1       4.578   4.037  16.902  0.00  0.00    +0.000 A 
ATOM     14  C   UNL     1       5.374   4.345  15.804  0.00  0.00    +0.000 A 
ATOM     15  F   UNL     1       5.954   3.355  15.112  0.00  0.00    +0.000 F 
ATOM     16  C   UNL     1       5.574   5.658  15.411  0.00  0.00    +0.000 A 
ATOM     17  C   UNL     1       4.961   6.691  16.115  0.00  0.00    +0.000 A 
ATOM     18  C   UNL     1       4.130   6.403  17.209  0.00  0.00    +0.000 A 
ATOM     19  C   UNL     1       3.470   7.548  17.948  0.00  0.00    +0.000 C 
ENDBRANCH   4   9
BRANCH   8  20
ATOM     20  N   UNL     1      -0.611  11.181  21.323  0.00  0.00    +0.000 N 
ATOM     21  C   UNL     1      -0.120  12.403  21.749  0.00  0.00    +0.000 C 
ATOM     22  O   UNL     1       1.042  12.787  21.587  0.00  0.00    +0.000 OA
ATOM     23  H   UNL     1      -1.343  10.799  21.916  0.00  0.00    +0.000 HD
BRANCH  21  24
ATOM     24  C   UNL     1      -1.133  13.305  22.459  0.00  0.00    +0.000 C 
BRANCH  24  25
ATOM     25  C   UNL     1      -1.521  14.564  21.650  0.00  0.00    +0.000 C 
ATOM     26  C   UNL     1      -0.567  15.722  21.975  0.00  0.00    +0.000 C 
ATOM     27  C   UNL     1      -1.432  14.271  20.139  0.00  0.00    +0.000 C 
ATOM     28  C   UNL     1      -2.971  14.984  21.951  0.00  0.00    +0.000 C 
ENDBRANCH  24  25
ENDBRANCH  21  24
ENDBRANCH   8  20
TORSDOF 4
ENDMDL
MODEL 9
REMARK VINA RESULT:      -7.4      3.996      9.220
REMARK  Name = 
REMARK  9 active torsions:
REMARK  status: ('A' for Active; 'I' for Inactive)
REMARK    1  A    between atoms: C_1  and  C_2
REMARK    2  A    between atoms: C_4  and  N_5
REMARK    3  A    between atoms: C_17  and  C_18
REMARK    4  A    between atoms: C_19  and  N_20
REMARK    5  A    between atoms: C_21  and  C_23
REMARK    6  A    between atoms: C_23  and  C_24
REMARK    7  A    between atoms: C_24  and  C_25
REMARK    8  A    between atoms: C_24  and  C_26
REMARK    9  A    between atoms: C_24  and  C_27
REMARK                            x       y       z     vdW  Elec       q    Type
REMARK                         _______ _______ _______ _____ _____    ______ ____
ROOT
ATOM      1  C   UNL     1      -0.500   9.891  23.102  0.00  0.00    +0.000 C 
ATOM      2  C   UNL     1       0.023   9.728  21.700  0.00  0.00    +0.000 A 
ATOM      3  C   UNL     1       0.731   8.539  21.438  0.00  0.00    +0.000 A 
ATOM      4  C   UNL     1       1.386   8.316  20.230  0.00  0.00    +0.000 A 
ATOM      5  C   UNL     1       1.277   9.303  19.244  0.00  0.00    +0.000 A 
ATOM      6  C   UNL     1       0.574  10.505  19.459  0.00  0.00    +0.000 A 
ATOM      7  C   UNL     1       0.486  11.484  18.320  0.00  0.00    +0.000 C 
ATOM      8  C   UNL     1      -0.057  10.723  20.700  0.00  0.00    +0.000 A 
ENDROOT
BRANCH   4   9
ATOM      9  N   UNL     1       2.214   7.201  19.998  0.00  0.00    +0.000 N 
ATOM     10  C   UNL     1       2.662   6.977  18.613  0.00  0.00    +0.000 C 
ATOM     11  C   UNL     1       3.813   5.966  18.612  0.00  0.00    +0.000 C 
ATOM     12  C   UNL     1       3.523   4.755  19.469  0.00  0.00    +0.000 A 
ATOM     13  C   UNL     1       4.338   3.620  19.371  0.00  0.00    +0.000 A 
ATOM     14  C   UNL     1       4.096   2.524  20.193  0.00  0.00    +0.000 A 
ATOM     15  F   UNL     1       4.886   1.446  20.102  0.00  0.00    +0.000 F 
ATOM     16  C   UNL     1       3.054   2.530  21.106  0.00  0.00    +0.000 A 
ATOM     17  C   UNL     1       2.240   3.654  21.217  0.00  0.00    +0.000 A 
ATOM     18  C   UNL     1       2.483   4.783  20.419  0.00  0.00    +0.000 A 
ATOM     19  C   UNL     1       1.585   5.993  20.571  0.00  0.00    +0.000 C 
ENDBRANCH   4   9
BRANCH   8  20
ATOM     20  N   UNL     1      -0.683  11.976  20.943  0.00  0.00    +0.000 N 
ATOM     21  C   UNL     1       0.023  13.070  21.413  0.00  0.00    +0.000 C 
ATOM     22  O   UNL     1       1.236  13.076  21.643  0.00  0.00    +0.000 OA
ATOM     23  H   UNL     1      -1.645  11.934  21.267  0.00  0.00    +0.000 HD
BRANCH  21  24
ATOM     24  C   UNL     1      -0.806  14.338  21.637  0.00  0.00    +0.000 C 
BRANCH  24  25
ATOM     25  C   UNL     1      -0.498  15.471  20.632  0.00  0.00    +0.000 C 
ATOM     26  C   UNL     1      -0.250  14.888  19.232  0.00  0.00    +0.000 C 
ATOM     27  C   UNL     1      -1.692  16.443  20.548  0.00  0.00    +0.000 C 
ATOM     28  C   UNL     1       0.728  16.286  21.081  0.00  0.00    +0.000 C 
ENDBRANCH  24  25
ENDBRANCH  21  24
ENDBRANCH   8  20
TORSDOF 4
ENDMDL
