MODEL 1
REMARK VINA RESULT:      -7.8      0.000      0.000
REMARK  Name = 
REMARK  9 active torsions:
REMARK  status: ('A' for Active; 'I' for Inactive)
REMARK    1  A    between atoms: C_1  and  C_2
REMARK    2  A    between atoms: C_6  and  O_7
REMARK    3  A    between atoms: O_7  and  C_8
REMARK    4  A    between atoms: C_8  and  C_9
REMARK    5  A    between atoms: C_11  and  C_12
REMARK    6  A    between atoms: C_13  and  C_14
REMARK    7  A    between atoms: N_16  and  C_17
REMARK    8  A    between atoms: C_17  and  C_18
REMARK    9  A    between atoms: C_17  and  C_19
REMARK                            x       y       z     vdW  Elec       q    Type
REMARK                         _______ _______ _______ _____ _____    ______ ____
ROOT
ATOM      1  C   UNL     1       7.561   6.965  17.879  0.00  0.00    +0.000 A 
ATOM      2  N   UNL     1       7.410   6.669  16.607  0.00  0.00    +0.000 NA
ATOM      3  C   UNL     1       6.538   5.599  16.452  0.00  0.00    +0.000 A 
ATOM      4  C   UNL     1       6.263   5.147  15.060  0.00  0.00    +0.000 C 
ATOM      5  C   UNL     1       6.041   5.069  17.638  0.00  0.00    +0.000 A 
ATOM      6  S   UNL     1       6.667   5.976  18.961  0.00  0.00    +0.000 S 
ENDROOT
BRANCH   5   7
ATOM      7  C   UNL     1       5.152   3.924  17.827  0.00  0.00    +0.000 C 
ATOM      8  O   UNL     1       4.457   3.465  16.925  0.00  0.00    +0.000 OA
ATOM      9  N   UNL     1       5.153   3.371  19.093  0.00  0.00    +0.000 N 
ATOM     10  H   UNL     1       5.716   3.809  19.809  0.00  0.00    +0.000 HD
BRANCH   9  11
ATOM     11  C   UNL     1       4.357   2.216  19.470  0.00  0.00    +0.000 C 
ATOM     12  C   UNL     1       4.983   1.481  20.657  0.00  0.00    +0.000 C 
BRANCH  11  13
ATOM     13  C   UNL     1       2.945   2.658  19.775  0.00  0.00    +0.000 A 
ATOM     14  C   UNL     1       2.530   3.483  20.807  0.00  0.00    +0.000 A 
ATOM     15  C   UNL     1       1.136   3.768  20.758  0.00  0.00    +0.000 A 
ATOM     16  C   UNL     1       0.519   3.139  19.702  0.00  0.00    +0.000 A 
ATOM     17  S   UNL     1       1.614   2.195  18.790  0.00  0.00    +0.000 S 
ENDBRANCH  11  13
ENDBRANCH   9  11
ENDBRANCH   5   7
BRANCH   1  18
ATOM     18  C   UNL     1       8.500   8.015  18.396  0.00  0.00    +0.000 C 
BRANCH  18  19
ATOM     19  O   UNL     1       8.088   9.280  17.873  0.00  0.00    +0.000 OA
BRANCH  19  25
ATOM     20  C   UNL     1       9.505  14.054  17.777  0.00  0.00    +0.000 C 
ATOM     21  C   UNL     1       9.459  12.704  18.430  0.00  0.00    +0.000 A 
ATOM     22  C   UNL     1      10.093  12.475  19.655  0.00  0.00    +0.000 A 
ATOM     23  C   UNL     1      10.038  11.215  20.246  0.00  0.00    +0.000 A 
ATOM     24  C   UNL     1       9.353  10.176  19.617  0.00  0.00    +0.000 A 
ATOM     25  C   UNL     1       8.717  10.382  18.392  0.00  0.00    +0.000 A 
ATOM     26  C   UNL     1       8.770  11.651  17.805  0.00  0.00    +0.000 A 
ENDBRANCH  19  25
ENDBRANCH  18  19
ENDBRANCH   1  18
TORSDOF 6
ENDMDL
MODEL 2
REMARK VINA RESULT:      -7.8      0.819      1.530
REMARK  Name = 
REMARK  9 active torsions:
REMARK  status: ('A' for Active; 'I' for Inactive)
REMARK    1  A    between atoms: C_1  and  C_2
REMARK    2  A    between atoms: C_6  and  O_7
REMARK    3  A    between atoms: O_7  and  C_8
REMARK    4  A    between atoms: C_8  and  C_9
REMARK    5  A    between atoms: C_11  and  C_12
REMARK    6  A    between atoms: C_13  and  C_14
REMARK    7  A    between atoms: N_16  and  C_17
REMARK    8  A    between atoms: C_17  and  C_18
REMARK    9  A    between atoms: C_17  and  C_19
REMARK                            x       y       z     vdW  Elec       q    Type
REMARK                         _______ _______ _______ _____ _____    ______ ____
ROOT
ATOM      1  C   UNL     1       7.555   6.999  17.728  0.00  0.00    +0.000 A 
ATOM      2  N   UNL     1       7.582   6.558  16.490  0.00  0.00    +0.000 NA
ATOM      3  C   UNL     1       6.736   5.467  16.338  0.00  0.00    +0.000 A 
ATOM      4  C   UNL     1       6.657   4.855  14.984  0.00  0.00    +0.000 C 
ATOM      5  C   UNL     1       6.075   5.071  17.497  0.00  0.00    +0.000 A 
ATOM      6  S   UNL     1       6.513   6.132  18.781  0.00  0.00    +0.000 S 
ENDROOT
BRANCH   5   7
ATOM      7  C   UNL     1       5.162   3.946  17.691  0.00  0.00    +0.000 C 
ATOM      8  O   UNL     1       4.458   3.496  16.790  0.00  0.00    +0.000 OA
ATOM      9  N   UNL     1       5.150   3.399  18.959  0.00  0.00    +0.000 N 
ATOM     10  H   UNL     1       5.721   3.829  19.674  0.00  0.00    +0.000 HD
BRANCH   9  11
ATOM     11  C   UNL     1       4.331   2.263  19.341  0.00  0.00    +0.000 C 
ATOM     12  C   UNL     1       4.860   1.607  20.617  0.00  0.00    +0.000 C 
BRANCH  11  13
ATOM     13  C   UNL     1       2.896   2.711  19.503  0.00  0.00    +0.000 A 
ATOM     14  C   UNL     1       1.777   2.170  18.892  0.00  0.00    +0.000 A 
ATOM     15  C   UNL     1       0.565   2.776  19.329  0.00  0.00    +0.000 A 
ATOM     16  C   UNL     1       0.791   3.776  20.247  0.00  0.00    +0.000 A 
ATOM     17  S   UNL     1       2.457   3.993  20.560  0.00  0.00    +0.000 S 
ENDBRANCH  11  13
ENDBRANCH   9  11
ENDBRANCH   5   7
BRANCH   1  18
ATOM     18  C   UNL     1       8.417   8.113  18.246  0.00  0.00    +0.000 C 
BRANCH  18  19
ATOM     19  O   UNL     1       7.840   9.354  17.835  0.00  0.00    +0.000 OA
BRANCH  19  25
ATOM     20  C   UNL     1      11.522  11.816  20.113  0.00  0.00    +0.000 C 
ATOM     21  C   UNL     1      10.332  11.772  19.201  0.00  0.00    +0.000 A 
ATOM     22  C   UNL     1       9.860  12.929  18.575  0.00  0.00    +0.000 A 
ATOM     23  C   UNL     1       8.754  12.867  17.730  0.00  0.00    +0.000 A 
ATOM     24  C   UNL     1       8.111  11.649  17.507  0.00  0.00    +0.000 A 
ATOM     25  C   UNL     1       8.563  10.483  18.126  0.00  0.00    +0.000 A 
ATOM     26  C   UNL     1       9.678  10.549  18.969  0.00  0.00    +0.000 A 
ENDBRANCH  19  25
ENDBRANCH  18  19
ENDBRANCH   1  18
TORSDOF 6
ENDMDL
MODEL 3
REMARK VINA RESULT:      -7.7      0.880      1.054
REMARK  Name = 
REMARK  9 active torsions:
REMARK  status: ('A' for Active; 'I' for Inactive)
REMARK    1  A    between atoms: C_1  and  C_2
REMARK    2  A    between atoms: C_6  and  O_7
REMARK    3  A    between atoms: O_7  and  C_8
REMARK    4  A    between atoms: C_8  and  C_9
REMARK    5  A    between atoms: C_11  and  C_12
REMARK    6  A    between atoms: C_13  and  C_14
REMARK    7  A    between atoms: N_16  and  C_17
REMARK    8  A    between atoms: C_17  and  C_18
REMARK    9  A    between atoms: C_17  and  C_19
REMARK                            x       y       z     vdW  Elec       q    Type
REMARK                         _______ _______ _______ _____ _____    ______ ____
ROOT
ATOM      1  C   UNL     1       7.595   7.342  18.068  0.00  0.00    +0.000 A 
ATOM      2  N   UNL     1       6.822   7.547  17.025  0.00  0.00    +0.000 NA
ATOM      3  C   UNL     1       5.962   6.473  16.832  0.00  0.00    +0.000 A 
ATOM      4  C   UNL     1       5.018   6.560  15.684  0.00  0.00    +0.000 C 
ATOM      5  C   UNL     1       6.111   5.431  17.741  0.00  0.00    +0.000 A 
ATOM      6  S   UNL     1       7.336   5.850  18.877  0.00  0.00    +0.000 S 
ENDROOT
BRANCH   5   7
ATOM      7  C   UNL     1       5.406   4.150  17.790  0.00  0.00    +0.000 C 
ATOM      8  O   UNL     1       5.096   3.523  16.780  0.00  0.00    +0.000 OA
ATOM      9  N   UNL     1       5.122   3.673  19.054  0.00  0.00    +0.000 N 
ATOM     10  H   UNL     1       5.366   4.246  19.851  0.00  0.00    +0.000 HD
BRANCH   9  11
ATOM     11  C   UNL     1       4.452   2.411  19.310  0.00  0.00    +0.000 C 
ATOM     12  C   UNL     1       4.996   1.744  20.574  0.00  0.00    +0.000 C 
BRANCH  11  13
ATOM     13  C   UNL     1       2.961   2.645  19.405  0.00  0.00    +0.000 A 
ATOM     14  C   UNL     1       1.983   2.162  18.553  0.00  0.00    +0.000 A 
ATOM     15  C   UNL     1       0.667   2.501  18.977  0.00  0.00    +0.000 A 
ATOM     16  C   UNL     1       0.675   3.248  20.133  0.00  0.00    +0.000 A 
ATOM     17  S   UNL     1       2.264   3.556  20.685  0.00  0.00    +0.000 S 
ENDBRANCH  11  13
ENDBRANCH   9  11
ENDBRANCH   5   7
BRANCH   1  18
ATOM     18  C   UNL     1       8.693   8.269  18.502  0.00  0.00    +0.000 C 
BRANCH  18  19
ATOM     19  O   UNL     1       8.546   9.499  17.789  0.00  0.00    +0.000 OA
BRANCH  19  25
ATOM     20  C   UNL     1       9.641  14.353  18.008  0.00  0.00    +0.000 C 
ATOM     21  C   UNL     1       9.582  12.985  18.621  0.00  0.00    +0.000 A 
ATOM     22  C   UNL     1      10.026  12.761  19.928  0.00  0.00    +0.000 A 
ATOM     23  C   UNL     1       9.962  11.484  20.480  0.00  0.00    +0.000 A 
ATOM     24  C   UNL     1       9.455  10.422  19.730  0.00  0.00    +0.000 A 
ATOM     25  C   UNL     1       9.011  10.623  18.422  0.00  0.00    +0.000 A 
ATOM     26  C   UNL     1       9.072  11.909  17.874  0.00  0.00    +0.000 A 
ENDBRANCH  19  25
ENDBRANCH  18  19
ENDBRANCH   1  18
TORSDOF 6
ENDMDL
MODEL 4
REMARK VINA RESULT:      -7.4      1.045      1.389
REMARK  Name = 
REMARK  9 active torsions:
REMARK  status: ('A' for Active; 'I' for Inactive)
REMARK    1  A    between atoms: C_1  and  C_2
REMARK    2  A    between atoms: C_6  and  O_7
REMARK    3  A    between atoms: O_7  and  C_8
REMARK    4  A    between atoms: C_8  and  C_9
REMARK    5  A    between atoms: C_11  and  C_12
REMARK    6  A    between atoms: C_13  and  C_14
REMARK    7  A    between atoms: N_16  and  C_17
REMARK    8  A    between atoms: C_17  and  C_18
REMARK    9  A    between atoms: C_17  and  C_19
REMARK                            x       y       z     vdW  Elec       q    Type
REMARK                         _______ _______ _______ _____ _____    ______ ____
ROOT
ATOM      1  C   UNL     1       7.683   7.296  18.119  0.00  0.00    +0.000 A 
ATOM      2  N   UNL     1       6.841   7.514  17.133  0.00  0.00    +0.000 NA
ATOM      3  C   UNL     1       5.981   6.436  16.974  0.00  0.00    +0.000 A 
ATOM      4  C   UNL     1       4.963   6.536  15.892  0.00  0.00    +0.000 C 
ATOM      5  C   UNL     1       6.198   5.377  17.849  0.00  0.00    +0.000 A 
ATOM      6  S   UNL     1       7.491   5.786  18.912  0.00  0.00    +0.000 S 
ENDROOT
BRANCH   5   7
ATOM      7  C   UNL     1       5.509   4.089  17.917  0.00  0.00    +0.000 C 
ATOM      8  O   UNL     1       5.239   3.426  16.919  0.00  0.00    +0.000 OA
ATOM      9  N   UNL     1       5.194   3.647  19.187  0.00  0.00    +0.000 N 
ATOM     10  H   UNL     1       5.406   4.248  19.972  0.00  0.00    +0.000 HD
BRANCH   9  11
ATOM     11  C   UNL     1       4.533   2.384  19.462  0.00  0.00    +0.000 C 
ATOM     12  C   UNL     1       5.103   1.726  20.720  0.00  0.00    +0.000 C 
BRANCH  11  13
ATOM     13  C   UNL     1       3.044   2.613  19.583  0.00  0.00    +0.000 A 
ATOM     14  C   UNL     1       2.336   2.926  20.731  0.00  0.00    +0.000 A 
ATOM     15  C   UNL     1       0.954   3.157  20.480  0.00  0.00    +0.000 A 
ATOM     16  C   UNL     1       0.638   2.997  19.150  0.00  0.00    +0.000 A 
ATOM     17  S   UNL     1       2.000   2.548  18.219  0.00  0.00    +0.000 S 
ENDBRANCH  11  13
ENDBRANCH   9  11
ENDBRANCH   5   7
BRANCH   1  18
ATOM     18  C   UNL     1       8.798   8.226  18.499  0.00  0.00    +0.000 C 
BRANCH  18  19
ATOM     19  O   UNL     1       8.325   9.568  18.368  0.00  0.00    +0.000 OA
BRANCH  19  25
ATOM     20  C   UNL     1       9.917  12.962  21.648  0.00  0.00    +0.000 C 
ATOM     21  C   UNL     1      10.028  12.241  20.337  0.00  0.00    +0.000 A 
ATOM     22  C   UNL     1      11.045  12.550  19.428  0.00  0.00    +0.000 A 
ATOM     23  C   UNL     1      11.131  11.868  18.217  0.00  0.00    +0.000 A 
ATOM     24  C   UNL     1      10.203  10.874  17.904  0.00  0.00    +0.000 A 
ATOM     25  C   UNL     1       9.178  10.554  18.796  0.00  0.00    +0.000 A 
ATOM     26  C   UNL     1       9.099  11.237  20.014  0.00  0.00    +0.000 A 
ENDBRANCH  19  25
ENDBRANCH  18  19
ENDBRANCH   1  18
TORSDOF 6
ENDMDL
MODEL 5
REMARK VINA RESULT:      -7.2      0.920      1.526
REMARK  Name = 
REMARK  9 active torsions:
REMARK  status: ('A' for Active; 'I' for Inactive)
REMARK    1  A    between atoms: C_1  and  C_2
REMARK    2  A    between atoms: C_6  and  O_7
REMARK    3  A    between atoms: O_7  and  C_8
REMARK    4  A    between atoms: C_8  and  C_9
REMARK    5  A    between atoms: C_11  and  C_12
REMARK    6  A    between atoms: C_13  and  C_14
REMARK    7  A    between atoms: N_16  and  C_17
REMARK    8  A    between atoms: C_17  and  C_18
REMARK    9  A    between atoms: C_17  and  C_19
REMARK                            x       y       z     vdW  Elec       q    Type
REMARK                         _______ _______ _______ _____ _____    ______ ____
ROOT
ATOM      1  C   UNL     1       7.263   6.970  17.545  0.00  0.00    +0.000 A 
ATOM      2  N   UNL     1       7.521   6.400  16.389  0.00  0.00    +0.000 NA
ATOM      3  C   UNL     1       6.604   5.392  16.123  0.00  0.00    +0.000 A 
ATOM      4  C   UNL     1       6.764   4.651  14.841  0.00  0.00    +0.000 C 
ATOM      5  C   UNL     1       5.650   5.189  17.115  0.00  0.00    +0.000 A 
ATOM      6  S   UNL     1       5.907   6.329  18.380  0.00  0.00    +0.000 S 
ENDROOT
BRANCH   5   7
ATOM      7  C   UNL     1       4.584   4.189  17.170  0.00  0.00    +0.000 C 
ATOM      8  O   UNL     1       3.658   4.159  16.364  0.00  0.00    +0.000 OA
ATOM      9  N   UNL     1       4.692   3.258  18.184  0.00  0.00    +0.000 N 
ATOM     10  H   UNL     1       5.453   3.349  18.842  0.00  0.00    +0.000 HD
BRANCH   9  11
ATOM     11  C   UNL     1       3.748   2.174  18.388  0.00  0.00    +0.000 C 
ATOM     12  C   UNL     1       4.469   0.880  18.772  0.00  0.00    +0.000 C 
BRANCH  11  13
ATOM     13  C   UNL     1       2.739   2.578  19.438  0.00  0.00    +0.000 A 
ATOM     14  C   UNL     1       2.958   2.715  20.799  0.00  0.00    +0.000 A 
ATOM     15  C   UNL     1       1.811   3.193  21.495  0.00  0.00    +0.000 A 
ATOM     16  C   UNL     1       0.742   3.390  20.651  0.00  0.00    +0.000 A 
ATOM     17  S   UNL     1       1.117   2.979  19.035  0.00  0.00    +0.000 S 
ENDBRANCH  11  13
ENDBRANCH   9  11
ENDBRANCH   5   7
BRANCH   1  18
ATOM     18  C   UNL     1       8.114   8.039  18.168  0.00  0.00    +0.000 C 
BRANCH  18  19
ATOM     19  O   UNL     1       7.655   9.307  17.696  0.00  0.00    +0.000 OA
BRANCH  19  25
ATOM     20  C   UNL     1      11.337  11.547  20.193  0.00  0.00    +0.000 C 
ATOM     21  C   UNL     1      10.197  11.574  19.217  0.00  0.00    +0.000 A 
ATOM     22  C   UNL     1       9.825  12.760  18.577  0.00  0.00    +0.000 A 
ATOM     23  C   UNL     1       8.765  12.764  17.673  0.00  0.00    +0.000 A 
ATOM     24  C   UNL     1       8.069  11.585  17.405  0.00  0.00    +0.000 A 
ATOM     25  C   UNL     1       8.422  10.392  18.036  0.00  0.00    +0.000 A 
ATOM     26  C   UNL     1       9.492  10.391  18.939  0.00  0.00    +0.000 A 
ENDBRANCH  19  25
ENDBRANCH  18  19
ENDBRANCH   1  18
TORSDOF 6
ENDMDL
MODEL 6
REMARK VINA RESULT:      -7.2      6.466      9.725
REMARK  Name = 
REMARK  9 active torsions:
REMARK  status: ('A' for Active; 'I' for Inactive)
REMARK    1  A    between atoms: C_1  and  C_2
REMARK    2  A    between atoms: C_6  and  O_7
REMARK    3  A    between atoms: O_7  and  C_8
REMARK    4  A    between atoms: C_8  and  C_9
REMARK    5  A    between atoms: C_11  and  C_12
REMARK    6  A    between atoms: C_13  and  C_14
REMARK    7  A    between atoms: N_16  and  C_17
REMARK    8  A    between atoms: C_17  and  C_18
REMARK    9  A    between atoms: C_17  and  C_19
REMARK                            x       y       z     vdW  Elec       q    Type
REMARK                         _______ _______ _______ _____ _____    ______ ____
ROOT
ATOM      1  C   UNL     1       2.613   7.452  18.575  0.00  0.00    +0.000 A 
ATOM      2  N   UNL     1       2.315   7.304  19.847  0.00  0.00    +0.000 NA
ATOM      3  C   UNL     1       1.544   8.367  20.297  0.00  0.00    +0.000 A 
ATOM      4  C   UNL     1       1.122   8.340  21.725  0.00  0.00    +0.000 C 
ATOM      5  C   UNL     1       1.276   9.344  19.345  0.00  0.00    +0.000 A 
ATOM      6  S   UNL     1       1.986   8.875  17.847  0.00  0.00    +0.000 S 
ENDROOT
BRANCH   5   7
ATOM      7  C   UNL     1       0.543  10.600  19.501  0.00  0.00    +0.000 C 
ATOM      8  O   UNL     1       0.879  11.472  20.299  0.00  0.00    +0.000 OA
ATOM      9  N   UNL     1      -0.553  10.758  18.676  0.00  0.00    +0.000 N 
ATOM     10  H   UNL     1      -0.808   9.996  18.063  0.00  0.00    +0.000 HD
BRANCH   9  11
ATOM     11  C   UNL     1      -1.391  11.943  18.665  0.00  0.00    +0.000 C 
ATOM     12  C   UNL     1      -0.637  13.147  18.095  0.00  0.00    +0.000 C 
BRANCH  11  13
ATOM     13  C   UNL     1      -2.652  11.659  17.882  0.00  0.00    +0.000 A 
ATOM     14  C   UNL     1      -2.742  11.196  16.581  0.00  0.00    +0.000 A 
ATOM     15  C   UNL     1      -4.085  10.954  16.174  0.00  0.00    +0.000 A 
ATOM     16  C   UNL     1      -4.986  11.257  17.168  0.00  0.00    +0.000 A 
ATOM     17  S   UNL     1      -4.215  11.849  18.574  0.00  0.00    +0.000 S 
ENDBRANCH  11  13
ENDBRANCH   9  11
ENDBRANCH   5   7
BRANCH   1  18
ATOM     18  C   UNL     1       3.503   6.523  17.802  0.00  0.00    +0.000 C 
BRANCH  18  19
ATOM     19  O   UNL     1       4.029   5.551  18.708  0.00  0.00    +0.000 OA
BRANCH  19  25
ATOM     20  C   UNL     1       1.473   2.489  21.691  0.00  0.00    +0.000 C 
ATOM     21  C   UNL     1       1.961   2.907  20.335  0.00  0.00    +0.000 A 
ATOM     22  C   UNL     1       1.629   2.173  19.192  0.00  0.00    +0.000 A 
ATOM     23  C   UNL     1       2.090   2.579  17.942  0.00  0.00    +0.000 A 
ATOM     24  C   UNL     1       2.887   3.718  17.826  0.00  0.00    +0.000 A 
ATOM     25  C   UNL     1       3.234   4.462  18.954  0.00  0.00    +0.000 A 
ATOM     26  C   UNL     1       2.763   4.054  20.207  0.00  0.00    +0.000 A 
ENDBRANCH  19  25
ENDBRANCH  18  19
ENDBRANCH   1  18
TORSDOF 6
ENDMDL
MODEL 7
REMARK VINA RESULT:      -7.2      7.944     10.735
REMARK  Name = 
REMARK  9 active torsions:
REMARK  status: ('A' for Active; 'I' for Inactive)
REMARK    1  A    between atoms: C_1  and  C_2
REMARK    2  A    between atoms: C_6  and  O_7
REMARK    3  A    between atoms: O_7  and  C_8
REMARK    4  A    between atoms: C_8  and  C_9
REMARK    5  A    between atoms: C_11  and  C_12
REMARK    6  A    between atoms: C_13  and  C_14
REMARK    7  A    between atoms: N_16  and  C_17
REMARK    8  A    between atoms: C_17  and  C_18
REMARK    9  A    between atoms: C_17  and  C_19
REMARK                            x       y       z     vdW  Elec       q    Type
REMARK                         _______ _______ _______ _____ _____    ______ ____
ROOT
ATOM      1  C   UNL     1       0.809   9.346  19.228  0.00  0.00    +0.000 A 
ATOM      2  N   UNL     1       0.671   9.701  20.486  0.00  0.00    +0.000 NA
ATOM      3  C   UNL     1      -0.416  10.551  20.640  0.00  0.00    +0.000 A 
ATOM      4  C   UNL     1      -0.705  11.039  22.017  0.00  0.00    +0.000 C 
ATOM      5  C   UNL     1      -1.095  10.855  19.465  0.00  0.00    +0.000 A 
ATOM      6  S   UNL     1      -0.356  10.011  18.157  0.00  0.00    +0.000 S 
ENDROOT
BRANCH   5   7
ATOM      7  C   UNL     1      -2.239  11.746  19.272  0.00  0.00    +0.000 C 
ATOM      8  O   UNL     1      -2.271  12.892  19.710  0.00  0.00    +0.000 OA
ATOM      9  N   UNL     1      -3.287  11.221  18.542  0.00  0.00    +0.000 N 
ATOM     10  H   UNL     1      -3.226  10.259  18.234  0.00  0.00    +0.000 HD
BRANCH   9  11
ATOM     11  C   UNL     1      -4.498  11.956  18.223  0.00  0.00    +0.000 C 
ATOM     12  C   UNL     1      -4.859  11.809  16.744  0.00  0.00    +0.000 C 
BRANCH  11  13
ATOM     13  C   UNL     1      -5.622  11.485  19.116  0.00  0.00    +0.000 A 
ATOM     14  C   UNL     1      -6.411  10.361  18.945  0.00  0.00    +0.000 A 
ATOM     15  C   UNL     1      -7.326  10.161  20.017  0.00  0.00    +0.000 A 
ATOM     16  C   UNL     1      -7.224  11.147  20.971  0.00  0.00    +0.000 A 
ATOM     17  S   UNL     1      -6.046  12.316  20.560  0.00  0.00    +0.000 S 
ENDBRANCH  11  13
ENDBRANCH   9  11
ENDBRANCH   5   7
BRANCH   1  18
ATOM     18  C   UNL     1       1.935   8.500  18.708  0.00  0.00    +0.000 C 
BRANCH  18  19
ATOM     19  O   UNL     1       2.352   7.619  19.753  0.00  0.00    +0.000 OA
BRANCH  19  25
ATOM     20  C   UNL     1       1.378   2.952  21.196  0.00  0.00    +0.000 C 
ATOM     21  C   UNL     1       1.698   3.966  20.138  0.00  0.00    +0.000 A 
ATOM     22  C   UNL     1       1.839   3.590  18.799  0.00  0.00    +0.000 A 
ATOM     23  C   UNL     1       2.135   4.546  17.830  0.00  0.00    +0.000 A 
ATOM     24  C   UNL     1       2.294   5.884  18.193  0.00  0.00    +0.000 A 
ATOM     25  C   UNL     1       2.162   6.280  19.525  0.00  0.00    +0.000 A 
ATOM     26  C   UNL     1       1.859   5.317  20.493  0.00  0.00    +0.000 A 
ENDBRANCH  19  25
ENDBRANCH  18  19
ENDBRANCH   1  18
TORSDOF 6
ENDMDL
MODEL 8
REMARK VINA RESULT:      -7.1      6.737      9.117
REMARK  Name = 
REMARK  9 active torsions:
REMARK  status: ('A' for Active; 'I' for Inactive)
REMARK    1  A    between atoms: C_1  and  C_2
REMARK    2  A    between atoms: C_6  and  O_7
REMARK    3  A    between atoms: O_7  and  C_8
REMARK    4  A    between atoms: C_8  and  C_9
REMARK    5  A    between atoms: C_11  and  C_12
REMARK    6  A    between atoms: C_13  and  C_14
REMARK    7  A    between atoms: N_16  and  C_17
REMARK    8  A    between atoms: C_17  and  C_18
REMARK    9  A    between atoms: C_17  and  C_19
REMARK                            x       y       z     vdW  Elec       q    Type
REMARK                         _______ _______ _______ _____ _____    ______ ____
ROOT
ATOM      1  C   UNL     1       0.563  10.684  19.355  0.00  0.00    +0.000 A 
ATOM      2  N   UNL     1       0.638  10.552  20.661  0.00  0.00    +0.000 NA
ATOM      3  C   UNL     1       1.184   9.321  20.999  0.00  0.00    +0.000 A 
ATOM      4  C   UNL     1       1.336   9.023  22.450  0.00  0.00    +0.000 C 
ATOM      5  C   UNL     1       1.506   8.504  19.920  0.00  0.00    +0.000 A 
ATOM      6  S   UNL     1       1.143   9.340  18.458  0.00  0.00    +0.000 S 
ENDROOT
BRANCH   5   7
ATOM      7  C   UNL     1       2.046   7.145  19.928  0.00  0.00    +0.000 C 
ATOM      8  O   UNL     1       1.671   6.285  20.721  0.00  0.00    +0.000 OA
ATOM      9  N   UNL     1       3.002   6.877  18.969  0.00  0.00    +0.000 N 
ATOM     10  H   UNL     1       3.303   7.631  18.365  0.00  0.00    +0.000 HD
BRANCH   9  11
ATOM     11  C   UNL     1       3.638   5.583  18.801  0.00  0.00    +0.000 C 
ATOM     12  C   UNL     1       2.921   4.750  17.737  0.00  0.00    +0.000 C 
BRANCH  11  13
ATOM     13  C   UNL     1       5.097   5.781  18.459  0.00  0.00    +0.000 A 
ATOM     14  C   UNL     1       6.193   5.318  19.167  0.00  0.00    +0.000 A 
ATOM     15  C   UNL     1       7.428   5.609  18.523  0.00  0.00    +0.000 A 
ATOM     16  C   UNL     1       7.245   6.302  17.349  0.00  0.00    +0.000 A 
ATOM     17  S   UNL     1       5.593   6.617  17.042  0.00  0.00    +0.000 S 
ENDBRANCH  11  13
ENDBRANCH   9  11
ENDBRANCH   5   7
BRANCH   1  18
ATOM     18  C   UNL     1      -0.056  11.862  18.659  0.00  0.00    +0.000 C 
BRANCH  18  19
ATOM     19  O   UNL     1      -1.404  11.991  19.114  0.00  0.00    +0.000 OA
BRANCH  19  25
ATOM     20  C   UNL     1      -3.002  10.255  14.727  0.00  0.00    +0.000 C 
ATOM     21  C   UNL     1      -3.255  10.822  16.093  0.00  0.00    +0.000 A 
ATOM     22  C   UNL     1      -4.557  11.060  16.544  0.00  0.00    +0.000 A 
ATOM     23  C   UNL     1      -4.771  11.585  17.816  0.00  0.00    +0.000 A 
ATOM     24  C   UNL     1      -3.687  11.878  18.645  0.00  0.00    +0.000 A 
ATOM     25  C   UNL     1      -2.380  11.652  18.211  0.00  0.00    +0.000 A 
ATOM     26  C   UNL     1      -2.170  11.118  16.935  0.00  0.00    +0.000 A 
ENDBRANCH  19  25
ENDBRANCH  18  19
ENDBRANCH   1  18
TORSDOF 6
ENDMDL
MODEL 9
REMARK VINA RESULT:      -7.1      1.396      1.433
REMARK  Name = 
REMARK  9 active torsions:
REMARK  status: ('A' for Active; 'I' for Inactive)
REMARK    1  A    between atoms: C_1  and  C_2
REMARK    2  A    between atoms: C_6  and  O_7
REMARK    3  A    between atoms: O_7  and  C_8
REMARK    4  A    between atoms: C_8  and  C_9
REMARK    5  A    between atoms: C_11  and  C_12
REMARK    6  A    between atoms: C_13  and  C_14
REMARK    7  A    between atoms: N_16  and  C_17
REMARK    8  A    between atoms: C_17  and  C_18
REMARK    9  A    between atoms: C_17  and  C_19
REMARK                            x       y       z     vdW  Elec       q    Type
REMARK                         _______ _______ _______ _____ _____    ______ ____
ROOT
ATOM      1  C   UNL     1       7.133   7.319  17.308  0.00  0.00    +0.000 A 
ATOM      2  N   UNL     1       7.479   6.437  16.397  0.00  0.00    +0.000 NA
ATOM      3  C   UNL     1       6.813   5.235  16.599  0.00  0.00    +0.000 A 
ATOM      4  C   UNL     1       7.100   4.133  15.640  0.00  0.00    +0.000 C 
ATOM      5  C   UNL     1       5.964   5.211  17.700  0.00  0.00    +0.000 A 
ATOM      6  S   UNL     1       5.989   6.757  18.460  0.00  0.00    +0.000 S 
ENDROOT
BRANCH   5   7
ATOM      7  C   UNL     1       5.162   4.102  18.215  0.00  0.00    +0.000 C 
ATOM      8  O   UNL     1       5.392   3.559  19.292  0.00  0.00    +0.000 OA
ATOM      9  N   UNL     1       4.106   3.708  17.417  0.00  0.00    +0.000 N 
ATOM     10  H   UNL     1       3.983   4.164  16.522  0.00  0.00    +0.000 HD
BRANCH   9  11
ATOM     11  C   UNL     1       3.183   2.644  17.766  0.00  0.00    +0.000 C 
ATOM     12  C   UNL     1       3.928   1.339  18.053  0.00  0.00    +0.000 C 
BRANCH  11  13
ATOM     13  C   UNL     1       2.345   3.074  18.948  0.00  0.00    +0.000 A 
ATOM     14  C   UNL     1       2.002   2.313  20.052  0.00  0.00    +0.000 A 
ATOM     15  C   UNL     1       1.270   3.051  21.024  0.00  0.00    +0.000 A 
ATOM     16  C   UNL     1       1.058   4.352  20.630  0.00  0.00    +0.000 A 
ATOM     17  S   UNL     1       1.719   4.670  19.086  0.00  0.00    +0.000 S 
ENDBRANCH  11  13
ENDBRANCH   9  11
ENDBRANCH   5   7
BRANCH   1  18
ATOM     18  C   UNL     1       7.731   8.691  17.426  0.00  0.00    +0.000 C 
BRANCH  18  19
ATOM     19  O   UNL     1       8.523   8.732  18.615  0.00  0.00    +0.000 OA
BRANCH  19  25
ATOM     20  C   UNL     1      10.926  12.890  17.292  0.00  0.00    +0.000 C 
ATOM     21  C   UNL     1      10.336  11.980  18.329  0.00  0.00    +0.000 A 
ATOM     22  C   UNL     1      10.404  12.298  19.689  0.00  0.00    +0.000 A 
ATOM     23  C   UNL     1       9.850  11.441  20.636  0.00  0.00    +0.000 A 
ATOM     24  C   UNL     1       9.225  10.260  20.232  0.00  0.00    +0.000 A 
ATOM     25  C   UNL     1       9.151   9.922  18.881  0.00  0.00    +0.000 A 
ATOM     26  C   UNL     1       9.704  10.789  17.932  0.00  0.00    +0.000 A 
ENDBRANCH  19  25
ENDBRANCH  18  19
ENDBRANCH   1  18
TORSDOF 6
ENDMDL
