MODEL 1
REMARK VINA RESULT:      -6.1      0.000      0.000
REMARK  Name = 
REMARK  8 active torsions:
REMARK  status: ('A' for Active; 'I' for Inactive)
REMARK    1  A    between atoms: C_1  and  C_2
REMARK    2  A    between atoms: C_2  and  C_3
REMARK    3  A    between atoms: C_5  and  C_6
REMARK    4  A    between atoms: C_6  and  N_7
REMARK    5  A    between atoms: N_7  and  C_8
REMARK    6  A    between atoms: C_8  and  C_9
REMARK    7  A    between atoms: C_8  and  C_10
REMARK    8  A    between atoms: C_10  and  N_11
REMARK                            x       y       z     vdW  Elec       q    Type
REMARK                         _______ _______ _______ _____ _____    ______ ____
ROOT
ATOM      1  N   UNL     1       5.367   6.147  18.048  0.00  0.00    +0.000 NA
ATOM      2  H   UNL     1       5.477   6.752  18.869  0.00  0.00    +0.000 HD
ENDROOT
BRANCH   1   3
ATOM      3  C   UNL     1       6.531   6.338  17.153  0.00  0.00    +0.000 C 
ATOM      4  C   UNL     1       7.621   7.159  17.858  0.00  0.00    +0.000 C 
BRANCH   3   5
ATOM      5  C   UNL     1       7.156   4.990  16.724  0.00  0.00    +0.000 C 
BRANCH   5   6
ATOM      6  N   UNL     1       6.930   4.663  15.330  0.00  0.00    +0.000 N 
ATOM      7  C   UNL     1       5.992   3.802  14.835  0.00  0.00    +0.000 A 
ATOM      8  C   UNL     1       6.159   3.806  13.470  0.00  0.00    +0.000 A 
ATOM      9  C   UNL     1       7.233   4.683  13.243  0.00  0.00    +0.000 A 
ATOM     10  N   UNL     1       7.709   5.208  14.374  0.00  0.00    +0.000 NA
ENDBRANCH   5   6
ENDBRANCH   3   5
ENDBRANCH   1   3
BRANCH   1  11
ATOM     11  C   UNL     1       5.272   4.777  18.569  0.00  0.00    +0.000 C 
BRANCH  11  14
ATOM     12  C   UNL     1       1.977   3.616  19.526  0.00  0.00    +0.000 A 
ATOM     13  N   UNL     1       3.222   3.983  19.750  0.00  0.00    +0.000 NA
ATOM     14  C   UNL     1       3.833   4.355  18.558  0.00  0.00    +0.000 A 
ATOM     15  C   UNL     1       3.017   4.273  17.445  0.00  0.00    +0.000 A 
ATOM     16  S   UNL     1       1.465   3.707  17.886  0.00  0.00    +0.000 S 
BRANCH  12  18
ATOM     17  C   UNL     1       1.764   2.492  21.748  0.00  0.00    +0.000 C 
ATOM     18  C   UNL     1       1.031   3.147  20.587  0.00  0.00    +0.000 C 
ENDBRANCH  12  18
ENDBRANCH  11  14
ENDBRANCH   1  11
TORSDOF 6
ENDMDL
MODEL 2
REMARK VINA RESULT:      -6.1      1.524      3.258
REMARK  Name = 
REMARK  8 active torsions:
REMARK  status: ('A' for Active; 'I' for Inactive)
REMARK    1  A    between atoms: C_1  and  C_2
REMARK    2  A    between atoms: C_2  and  C_3
REMARK    3  A    between atoms: C_5  and  C_6
REMARK    4  A    between atoms: C_6  and  N_7
REMARK    5  A    between atoms: N_7  and  C_8
REMARK    6  A    between atoms: C_8  and  C_9
REMARK    7  A    between atoms: C_8  and  C_10
REMARK    8  A    between atoms: C_10  and  N_11
REMARK                            x       y       z     vdW  Elec       q    Type
REMARK                         _______ _______ _______ _____ _____    ______ ____
ROOT
ATOM      1  N   UNL     1       5.436   3.458  16.560  0.00  0.00    +0.000 NA
ATOM      2  H   UNL     1       5.161   2.569  16.128  0.00  0.00    +0.000 HD
ENDROOT
BRANCH   1   3
ATOM      3  C   UNL     1       6.463   4.104  15.711  0.00  0.00    +0.000 C 
ATOM      4  C   UNL     1       6.197   3.812  14.228  0.00  0.00    +0.000 C 
BRANCH   3   5
ATOM      5  C   UNL     1       6.480   5.641  15.896  0.00  0.00    +0.000 C 
BRANCH   5   6
ATOM      6  N   UNL     1       7.134   6.072  17.115  0.00  0.00    +0.000 N 
ATOM      7  C   UNL     1       7.574   7.332  17.404  0.00  0.00    +0.000 A 
ATOM      8  C   UNL     1       8.131   7.260  18.659  0.00  0.00    +0.000 A 
ATOM      9  C   UNL     1       7.997   5.912  19.033  0.00  0.00    +0.000 A 
ATOM     10  N   UNL     1       7.390   5.181  18.095  0.00  0.00    +0.000 NA
ENDBRANCH   5   6
ENDBRANCH   3   5
ENDBRANCH   1   3
BRANCH   1  11
ATOM     11  C   UNL     1       4.204   4.251  16.662  0.00  0.00    +0.000 C 
BRANCH  11  14
ATOM     12  C   UNL     1       2.461   3.480  19.742  0.00  0.00    +0.000 A 
ATOM     13  N   UNL     1       3.268   4.183  18.974  0.00  0.00    +0.000 NA
ATOM     14  C   UNL     1       3.315   3.632  17.699  0.00  0.00    +0.000 A 
ATOM     15  C   UNL     1       2.518   2.515  17.526  0.00  0.00    +0.000 A 
ATOM     16  S   UNL     1       1.706   2.134  18.982  0.00  0.00    +0.000 S 
BRANCH  12  18
ATOM     17  C   UNL     1       1.450   2.648  21.871  0.00  0.00    +0.000 C 
ATOM     18  C   UNL     1       2.183   3.789  21.180  0.00  0.00    +0.000 C 
ENDBRANCH  12  18
ENDBRANCH  11  14
ENDBRANCH   1  11
TORSDOF 6
ENDMDL
MODEL 3
REMARK VINA RESULT:      -6.1      1.989      2.475
REMARK  Name = 
REMARK  8 active torsions:
REMARK  status: ('A' for Active; 'I' for Inactive)
REMARK    1  A    between atoms: C_1  and  C_2
REMARK    2  A    between atoms: C_2  and  C_3
REMARK    3  A    between atoms: C_5  and  C_6
REMARK    4  A    between atoms: C_6  and  N_7
REMARK    5  A    between atoms: N_7  and  C_8
REMARK    6  A    between atoms: C_8  and  C_9
REMARK    7  A    between atoms: C_8  and  C_10
REMARK    8  A    between atoms: C_10  and  N_11
REMARK                            x       y       z     vdW  Elec       q    Type
REMARK                         _______ _______ _______ _____ _____    ______ ____
ROOT
ATOM      1  N   UNL     1       6.244   4.967  19.314  0.00  0.00    +0.000 NA
ATOM      2  H   UNL     1       6.972   4.415  19.782  0.00  0.00    +0.000 HD
ENDROOT
BRANCH   1   3
ATOM      3  C   UNL     1       6.818   5.579  18.094  0.00  0.00    +0.000 C 
ATOM      4  C   UNL     1       7.836   6.667  18.467  0.00  0.00    +0.000 C 
BRANCH   3   5
ATOM      5  C   UNL     1       7.543   4.535  17.212  0.00  0.00    +0.000 C 
BRANCH   5   6
ATOM      6  N   UNL     1       7.063   4.496  15.845  0.00  0.00    +0.000 N 
ATOM      7  C   UNL     1       6.005   3.771  15.372  0.00  0.00    +0.000 A 
ATOM      8  C   UNL     1       5.935   4.043  14.025  0.00  0.00    +0.000 A 
ATOM      9  C   UNL     1       7.003   4.923  13.781  0.00  0.00    +0.000 A 
ATOM     10  N   UNL     1       7.695   5.203  14.887  0.00  0.00    +0.000 NA
ENDBRANCH   5   6
ENDBRANCH   3   5
ENDBRANCH   1   3
BRANCH   1  11
ATOM     11  C   UNL     1       5.157   4.026  19.018  0.00  0.00    +0.000 C 
BRANCH  11  14
ATOM     12  C   UNL     1       2.480   6.303  19.893  0.00  0.00    +0.000 A 
ATOM     13  N   UNL     1       3.653   5.983  19.386  0.00  0.00    +0.000 NA
ATOM     14  C   UNL     1       3.864   4.614  19.499  0.00  0.00    +0.000 A 
ATOM     15  C   UNL     1       2.822   3.918  20.084  0.00  0.00    +0.000 A 
ATOM     16  S   UNL     1       1.561   4.990  20.518  0.00  0.00    +0.000 S 
BRANCH  12  18
ATOM     17  C   UNL     1       1.962   8.365  18.578  0.00  0.00    +0.000 C 
ATOM     18  C   UNL     1       1.935   7.697  19.944  0.00  0.00    +0.000 C 
ENDBRANCH  12  18
ENDBRANCH  11  14
ENDBRANCH   1  11
TORSDOF 6
ENDMDL
MODEL 4
REMARK VINA RESULT:      -6.0      2.847      5.989
REMARK  Name = 
REMARK  8 active torsions:
REMARK  status: ('A' for Active; 'I' for Inactive)
REMARK    1  A    between atoms: C_1  and  C_2
REMARK    2  A    between atoms: C_2  and  C_3
REMARK    3  A    between atoms: C_5  and  C_6
REMARK    4  A    between atoms: C_6  and  N_7
REMARK    5  A    between atoms: N_7  and  C_8
REMARK    6  A    between atoms: C_8  and  C_9
REMARK    7  A    between atoms: C_8  and  C_10
REMARK    8  A    between atoms: C_10  and  N_11
REMARK                            x       y       z     vdW  Elec       q    Type
REMARK                         _______ _______ _______ _____ _____    ______ ____
ROOT
ATOM      1  N   UNL     1       2.784   2.155  19.192  0.00  0.00    +0.000 NA
ATOM      2  H   UNL     1       2.733   1.170  18.907  0.00  0.00    +0.000 HD
ENDROOT
BRANCH   1   3
ATOM      3  C   UNL     1       1.754   2.406  20.226  0.00  0.00    +0.000 C 
ATOM      4  C   UNL     1       2.412   2.662  21.590  0.00  0.00    +0.000 C 
BRANCH   3   5
ATOM      5  C   UNL     1       0.882   3.637  19.883  0.00  0.00    +0.000 C 
BRANCH   5   6
ATOM      6  N   UNL     1       1.645   4.779  19.420  0.00  0.00    +0.000 N 
ATOM      7  C   UNL     1       2.269   5.713  20.197  0.00  0.00    +0.000 A 
ATOM      8  C   UNL     1       2.853   6.602  19.324  0.00  0.00    +0.000 A 
ATOM      9  C   UNL     1       2.506   6.128  18.047  0.00  0.00    +0.000 A 
ATOM     10  N   UNL     1       1.769   5.017  18.098  0.00  0.00    +0.000 NA
ENDBRANCH   5   6
ENDBRANCH   3   5
ENDBRANCH   1   3
BRANCH   1  11
ATOM     11  C   UNL     1       4.150   2.356  19.693  0.00  0.00    +0.000 C 
BRANCH  11  14
ATOM     12  C   UNL     1       6.254   4.985  18.359  0.00  0.00    +0.000 A 
ATOM     13  N   UNL     1       5.761   4.224  19.315  0.00  0.00    +0.000 NA
ATOM     14  C   UNL     1       4.864   3.306  18.779  0.00  0.00    +0.000 A 
ATOM     15  C   UNL     1       4.710   3.387  17.407  0.00  0.00    +0.000 A 
ATOM     16  S   UNL     1       5.687   4.639  16.772  0.00  0.00    +0.000 S 
BRANCH  12  18
ATOM     17  C   UNL     1       7.439   6.933  17.335  0.00  0.00    +0.000 C 
ATOM     18  C   UNL     1       7.244   6.086  18.584  0.00  0.00    +0.000 C 
ENDBRANCH  12  18
ENDBRANCH  11  14
ENDBRANCH   1  11
TORSDOF 6
ENDMDL
MODEL 5
REMARK VINA RESULT:      -5.9      1.002      1.047
REMARK  Name = 
REMARK  8 active torsions:
REMARK  status: ('A' for Active; 'I' for Inactive)
REMARK    1  A    between atoms: C_1  and  C_2
REMARK    2  A    between atoms: C_2  and  C_3
REMARK    3  A    between atoms: C_5  and  C_6
REMARK    4  A    between atoms: C_6  and  N_7
REMARK    5  A    between atoms: N_7  and  C_8
REMARK    6  A    between atoms: C_8  and  C_9
REMARK    7  A    between atoms: C_8  and  C_10
REMARK    8  A    between atoms: C_10  and  N_11
REMARK                            x       y       z     vdW  Elec       q    Type
REMARK                         _______ _______ _______ _____ _____    ______ ____
ROOT
ATOM      1  N   UNL     1       5.956   6.182  18.329  0.00  0.00    +0.000 NA
ATOM      2  H   UNL     1       5.870   7.173  18.583  0.00  0.00    +0.000 HD
ENDROOT
BRANCH   1   3
ATOM      3  C   UNL     1       7.389   5.860  18.145  0.00  0.00    +0.000 C 
ATOM      4  C   UNL     1       8.090   5.726  19.505  0.00  0.00    +0.000 C 
BRANCH   3   5
ATOM      5  C   UNL     1       7.587   4.531  17.377  0.00  0.00    +0.000 C 
BRANCH   5   6
ATOM      6  N   UNL     1       6.894   4.487  16.105  0.00  0.00    +0.000 N 
ATOM      7  C   UNL     1       6.154   3.449  15.613  0.00  0.00    +0.000 A 
ATOM      8  C   UNL     1       5.702   3.858  14.380  0.00  0.00    +0.000 A 
ATOM      9  C   UNL     1       6.240   5.145  14.211  0.00  0.00    +0.000 A 
ATOM     10  N   UNL     1       6.968   5.535  15.259  0.00  0.00    +0.000 NA
ENDBRANCH   5   6
ENDBRANCH   3   5
ENDBRANCH   1   3
BRANCH   1  11
ATOM     11  C   UNL     1       5.344   5.432  19.433  0.00  0.00    +0.000 C 
BRANCH  11  14
ATOM     12  C   UNL     1       2.039   3.952  19.344  0.00  0.00    +0.000 A 
ATOM     13  N   UNL     1       3.173   4.300  19.917  0.00  0.00    +0.000 NA
ATOM     14  C   UNL     1       3.981   4.972  19.007  0.00  0.00    +0.000 A 
ATOM     15  C   UNL     1       3.423   5.132  17.752  0.00  0.00    +0.000 A 
ATOM     16  S   UNL     1       1.870   4.420  17.697  0.00  0.00    +0.000 S 
BRANCH  12  18
ATOM     17  C   UNL     1       1.349   2.755  21.427  0.00  0.00    +0.000 C 
ATOM     18  C   UNL     1       0.939   3.205  20.033  0.00  0.00    +0.000 C 
ENDBRANCH  12  18
ENDBRANCH  11  14
ENDBRANCH   1  11
TORSDOF 6
ENDMDL
MODEL 6
REMARK VINA RESULT:      -5.8      0.933      1.226
REMARK  Name = 
REMARK  8 active torsions:
REMARK  status: ('A' for Active; 'I' for Inactive)
REMARK    1  A    between atoms: C_1  and  C_2
REMARK    2  A    between atoms: C_2  and  C_3
REMARK    3  A    between atoms: C_5  and  C_6
REMARK    4  A    between atoms: C_6  and  N_7
REMARK    5  A    between atoms: N_7  and  C_8
REMARK    6  A    between atoms: C_8  and  C_9
REMARK    7  A    between atoms: C_8  and  C_10
REMARK    8  A    between atoms: C_10  and  N_11
REMARK                            x       y       z     vdW  Elec       q    Type
REMARK                         _______ _______ _______ _____ _____    ______ ____
ROOT
ATOM      1  N   UNL     1       5.384   5.999  17.985  0.00  0.00    +0.000 NA
ATOM      2  H   UNL     1       5.485   5.035  18.321  0.00  0.00    +0.000 HD
ENDROOT
BRANCH   1   3
ATOM      3  C   UNL     1       6.432   6.265  16.973  0.00  0.00    +0.000 C 
ATOM      4  C   UNL     1       7.503   7.206  17.542  0.00  0.00    +0.000 C 
BRANCH   3   5
ATOM      5  C   UNL     1       7.136   4.965  16.518  0.00  0.00    +0.000 C 
BRANCH   5   6
ATOM      6  N   UNL     1       6.876   4.616  15.135  0.00  0.00    +0.000 N 
ATOM      7  C   UNL     1       7.516   5.111  14.034  0.00  0.00    +0.000 A 
ATOM      8  C   UNL     1       6.928   4.500  12.951  0.00  0.00    +0.000 A 
ATOM      9  C   UNL     1       5.933   3.674  13.501  0.00  0.00    +0.000 A 
ATOM     10  N   UNL     1       5.896   3.740  14.834  0.00  0.00    +0.000 NA
ENDBRANCH   5   6
ENDBRANCH   3   5
ENDBRANCH   1   3
BRANCH   1  11
ATOM     11  C   UNL     1       4.027   6.091  17.432  0.00  0.00    +0.000 C 
BRANCH  11  14
ATOM     12  C   UNL     1       1.864   3.816  19.241  0.00  0.00    +0.000 A 
ATOM     13  N   UNL     1       2.436   4.978  19.002  0.00  0.00    +0.000 NA
ATOM     14  C   UNL     1       3.244   4.890  17.873  0.00  0.00    +0.000 A 
ATOM     15  C   UNL     1       3.250   3.647  17.268  0.00  0.00    +0.000 A 
ATOM     16  S   UNL     1       2.245   2.562  18.127  0.00  0.00    +0.000 S 
BRANCH  12  18
ATOM     17  C   UNL     1       1.632   2.817  21.520  0.00  0.00    +0.000 C 
ATOM     18  C   UNL     1       0.935   3.552  20.385  0.00  0.00    +0.000 C 
ENDBRANCH  12  18
ENDBRANCH  11  14
ENDBRANCH   1  11
TORSDOF 6
ENDMDL
MODEL 7
REMARK VINA RESULT:      -5.7      1.745      3.395
REMARK  Name = 
REMARK  8 active torsions:
REMARK  status: ('A' for Active; 'I' for Inactive)
REMARK    1  A    between atoms: C_1  and  C_2
REMARK    2  A    between atoms: C_2  and  C_3
REMARK    3  A    between atoms: C_5  and  C_6
REMARK    4  A    between atoms: C_6  and  N_7
REMARK    5  A    between atoms: N_7  and  C_8
REMARK    6  A    between atoms: C_8  and  C_9
REMARK    7  A    between atoms: C_8  and  C_10
REMARK    8  A    between atoms: C_10  and  N_11
REMARK                            x       y       z     vdW  Elec       q    Type
REMARK                         _______ _______ _______ _____ _____    ______ ____
ROOT
ATOM      1  N   UNL     1       5.585   3.350  16.350  0.00  0.00    +0.000 NA
ATOM      2  H   UNL     1       5.399   2.368  16.116  0.00  0.00    +0.000 HD
ENDROOT
BRANCH   1   3
ATOM      3  C   UNL     1       6.389   3.956  15.265  0.00  0.00    +0.000 C 
ATOM      4  C   UNL     1       5.630   3.892  13.932  0.00  0.00    +0.000 C 
BRANCH   3   5
ATOM      5  C   UNL     1       6.718   5.441  15.552  0.00  0.00    +0.000 C 
BRANCH   5   6
ATOM      6  N   UNL     1       7.235   5.673  16.886  0.00  0.00    +0.000 N 
ATOM      7  C   UNL     1       7.306   6.872  17.536  0.00  0.00    +0.000 A 
ATOM      8  C   UNL     1       7.872   6.605  18.761  0.00  0.00    +0.000 A 
ATOM      9  C   UNL     1       8.125   5.222  18.744  0.00  0.00    +0.000 A 
ATOM     10  N   UNL     1       7.739   4.648  17.603  0.00  0.00    +0.000 NA
ENDBRANCH   5   6
ENDBRANCH   3   5
ENDBRANCH   1   3
BRANCH   1  11
ATOM     11  C   UNL     1       4.268   3.981  16.500  0.00  0.00    +0.000 C 
BRANCH  11  14
ATOM     12  C   UNL     1       2.384   4.021  19.594  0.00  0.00    +0.000 A 
ATOM     13  N   UNL     1       2.676   4.419  18.372  0.00  0.00    +0.000 NA
ATOM     14  C   UNL     1       3.738   3.676  17.870  0.00  0.00    +0.000 A 
ATOM     15  C   UNL     1       4.222   2.709  18.732  0.00  0.00    +0.000 A 
ATOM     16  S   UNL     1       3.349   2.734  20.202  0.00  0.00    +0.000 S 
BRANCH  12  18
ATOM     17  C   UNL     1       1.545   6.083  20.731  0.00  0.00    +0.000 C 
ATOM     18  C   UNL     1       1.295   4.612  20.436  0.00  0.00    +0.000 C 
ENDBRANCH  12  18
ENDBRANCH  11  14
ENDBRANCH   1  11
TORSDOF 6
ENDMDL
MODEL 8
REMARK VINA RESULT:      -5.7      2.342      5.831
REMARK  Name = 
REMARK  8 active torsions:
REMARK  status: ('A' for Active; 'I' for Inactive)
REMARK    1  A    between atoms: C_1  and  C_2
REMARK    2  A    between atoms: C_2  and  C_3
REMARK    3  A    between atoms: C_5  and  C_6
REMARK    4  A    between atoms: C_6  and  N_7
REMARK    5  A    between atoms: N_7  and  C_8
REMARK    6  A    between atoms: C_8  and  C_9
REMARK    7  A    between atoms: C_8  and  C_10
REMARK    8  A    between atoms: C_10  and  N_11
REMARK                            x       y       z     vdW  Elec       q    Type
REMARK                         _______ _______ _______ _____ _____    ______ ____
ROOT
ATOM      1  N   UNL     1       3.574   5.123  20.303  0.00  0.00    +0.000 NA
ATOM      2  H   UNL     1       4.211   5.492  21.019  0.00  0.00    +0.000 HD
ENDROOT
BRANCH   1   3
ATOM      3  C   UNL     1       2.184   5.215  20.807  0.00  0.00    +0.000 C 
ATOM      4  C   UNL     1       1.544   6.543  20.378  0.00  0.00    +0.000 C 
BRANCH   3   5
ATOM      5  C   UNL     1       1.299   4.066  20.270  0.00  0.00    +0.000 C 
BRANCH   5   6
ATOM      6  N   UNL     1       1.973   3.212  19.313  0.00  0.00    +0.000 N 
ATOM      7  C   UNL     1       1.737   3.146  17.969  0.00  0.00    +0.000 A 
ATOM      8  C   UNL     1       2.604   2.197  17.479  0.00  0.00    +0.000 A 
ATOM      9  C   UNL     1       3.304   1.736  18.607  0.00  0.00    +0.000 A 
ATOM     10  N   UNL     1       2.923   2.351  19.729  0.00  0.00    +0.000 NA
ENDBRANCH   5   6
ENDBRANCH   3   5
ENDBRANCH   1   3
BRANCH   1  11
ATOM     11  C   UNL     1       3.798   5.944  19.107  0.00  0.00    +0.000 C 
BRANCH  11  14
ATOM     12  C   UNL     1       6.280   4.780  16.739  0.00  0.00    +0.000 A 
ATOM     13  N   UNL     1       5.075   5.163  17.110  0.00  0.00    +0.000 NA
ATOM     14  C   UNL     1       5.078   5.510  18.456  0.00  0.00    +0.000 A 
ATOM     15  C   UNL     1       6.308   5.394  19.077  0.00  0.00    +0.000 A 
ATOM     16  S   UNL     1       7.481   4.827  17.970  0.00  0.00    +0.000 S 
BRANCH  12  18
ATOM     17  C   UNL     1       5.428   4.352  14.428  0.00  0.00    +0.000 C 
ATOM     18  C   UNL     1       6.634   4.330  15.355  0.00  0.00    +0.000 C 
ENDBRANCH  12  18
ENDBRANCH  11  14
ENDBRANCH   1  11
TORSDOF 6
ENDMDL
MODEL 9
REMARK VINA RESULT:      -5.7      2.348      5.661
REMARK  Name = 
REMARK  8 active torsions:
REMARK  status: ('A' for Active; 'I' for Inactive)
REMARK    1  A    between atoms: C_1  and  C_2
REMARK    2  A    between atoms: C_2  and  C_3
REMARK    3  A    between atoms: C_5  and  C_6
REMARK    4  A    between atoms: C_6  and  N_7
REMARK    5  A    between atoms: N_7  and  C_8
REMARK    6  A    between atoms: C_8  and  C_9
REMARK    7  A    between atoms: C_8  and  C_10
REMARK    8  A    between atoms: C_10  and  N_11
REMARK                            x       y       z     vdW  Elec       q    Type
REMARK                         _______ _______ _______ _____ _____    ______ ____
ROOT
ATOM      1  N   UNL     1       2.457   6.077  18.487  0.00  0.00    +0.000 NA
ATOM      2  H   UNL     1       2.556   5.154  18.049  0.00  0.00    +0.000 HD
ENDROOT
BRANCH   1   3
ATOM      3  C   UNL     1       2.578   5.924  19.955  0.00  0.00    +0.000 C 
ATOM      4  C   UNL     1       1.566   6.827  20.675  0.00  0.00    +0.000 C 
BRANCH   3   5
ATOM      5  C   UNL     1       2.319   4.467  20.406  0.00  0.00    +0.000 C 
BRANCH   5   6
ATOM      6  N   UNL     1       2.654   3.479  19.400  0.00  0.00    +0.000 N 
ATOM      7  C   UNL     1       3.816   2.767  19.311  0.00  0.00    +0.000 A 
ATOM      8  C   UNL     1       3.685   1.966  18.200  0.00  0.00    +0.000 A 
ATOM      9  C   UNL     1       2.419   2.285  17.678  0.00  0.00    +0.000 A 
ATOM     10  N   UNL     1       1.786   3.208  18.405  0.00  0.00    +0.000 NA
ENDBRANCH   5   6
ENDBRANCH   3   5
ENDBRANCH   1   3
BRANCH   1  11
ATOM     11  C   UNL     1       3.522   6.909  17.914  0.00  0.00    +0.000 C 
BRANCH  11  14
ATOM     12  C   UNL     1       5.776   4.519  16.389  0.00  0.00    +0.000 A 
ATOM     13  N   UNL     1       4.670   5.228  16.468  0.00  0.00    +0.000 NA
ATOM     14  C   UNL     1       4.701   6.036  17.600  0.00  0.00    +0.000 A 
ATOM     15  C   UNL     1       5.856   5.926  18.352  0.00  0.00    +0.000 A 
ATOM     16  S   UNL     1       6.918   4.786  17.648  0.00  0.00    +0.000 S 
BRANCH  12  18
ATOM     17  C   UNL     1       6.349   4.231  13.973  0.00  0.00    +0.000 C 
ATOM     18  C   UNL     1       6.073   3.537  15.298  0.00  0.00    +0.000 C 
ENDBRANCH  12  18
ENDBRANCH  11  14
ENDBRANCH   1  11
TORSDOF 6
ENDMDL
