MODEL 1
REMARK VINA RESULT:      -9.8      0.000      0.000
REMARK  Name = 
REMARK  6 active torsions:
REMARK  status: ('A' for Active; 'I' for Inactive)
REMARK    1  A    between atoms: C_1  and  C_2
REMARK    2  A    between atoms: C_4  and  S_5
REMARK    3  A    between atoms: S_5  and  C_6
REMARK    4  A    between atoms: C_6  and  C_7
REMARK    5  A    between atoms: C_10  and  C_11
REMARK    6  A    between atoms: C_15  and  C_16
REMARK                            x       y       z     vdW  Elec       q    Type
REMARK                         _______ _______ _______ _____ _____    ______ ____
ROOT
ATOM      1  C   UNL     1       0.999   9.594  20.177  0.00  0.00    +0.000 A 
ATOM      2  C   UNL     1       1.273   9.589  18.805  0.00  0.00    +0.000 A 
ATOM      3  C   UNL     1       1.793   8.447  18.180  0.00  0.00    +0.000 A 
ATOM      4  C   UNL     1       2.056   7.267  18.894  0.00  0.00    +0.000 A 
ATOM      5  C   UNL     1       1.794   7.295  20.278  0.00  0.00    +0.000 A 
ATOM      6  C   UNL     1       1.277   8.437  20.910  0.00  0.00    +0.000 A 
ENDROOT
BRANCH   4   7
ATOM      7  C   UNL     1       2.582   6.048  18.224  0.00  0.00    +0.000 A 
ATOM      8  C   UNL     1       1.860   4.845  18.201  0.00  0.00    +0.000 A 
ATOM      9  C   UNL     1       2.362   3.701  17.574  0.00  0.00    +0.000 A 
ATOM     10  C   UNL     1       3.619   3.724  16.969  0.00  0.00    +0.000 A 
ATOM     11  C   UNL     1       4.383   4.896  16.977  0.00  0.00    +0.000 A 
ATOM     12  C   UNL     1       3.841   6.045  17.587  0.00  0.00    +0.000 A 
BRANCH  11  13
ATOM     13  C   UNL     1       5.726   4.960  16.400  0.00  0.00    +0.000 A 
ATOM     14  N   UNL     1       6.807   4.322  16.813  0.00  0.00    +0.000 NA
ATOM     15  N   UNL     1       7.820   4.657  15.948  0.00  0.00    +0.000 NA
ATOM     16  N   UNL     1       7.387   5.487  15.013  0.00  0.00    +0.000 NA
ATOM     17  N   UNL     1       6.092   5.679  15.294  0.00  0.00    +0.000 N 
ATOM     18  H   UNL     1       5.543   6.282  14.700  0.00  0.00    +0.000 HD
ENDBRANCH  11  13
ENDBRANCH   4   7
BRANCH   1  19
ATOM     19  C   UNL     1       0.371  10.803  20.843  0.00  0.00    +0.000 C 
BRANCH  19  20
ATOM     20  S   UNL     1       0.068  12.110  19.607  0.00  0.00    +0.000 S 
BRANCH  20  24
ATOM     21  C   UNL     1      -4.525  13.324  21.535  0.00  0.00    +0.000 C 
ATOM     22  C   UNL     1      -3.732  12.740  20.407  0.00  0.00    +0.000 A 
ATOM     23  N   UNL     1      -2.394  12.735  20.500  0.00  0.00    +0.000 NA
ATOM     24  C   UNL     1      -1.725  12.135  19.493  0.00  0.00    +0.000 A 
ATOM     25  C   UNL     1      -2.362  11.520  18.397  0.00  0.00    +0.000 A 
ATOM     26  C   UNL     1      -1.728  10.821  17.333  0.00  0.00    +0.000 A 
ATOM     27  C   UNL     1      -2.467  10.263  16.292  0.00  0.00    +0.000 A 
ATOM     28  C   UNL     1      -3.844  10.409  16.287  0.00  0.00    +0.000 A 
ATOM     29  C   UNL     1      -4.471  11.088  17.335  0.00  0.00    +0.000 A 
ATOM     30  C   UNL     1      -3.758  11.632  18.395  0.00  0.00    +0.000 A 
ATOM     31  N   UNL     1      -4.433  12.234  19.380  0.00  0.00    +0.000 NA
ENDBRANCH  20  24
ENDBRANCH  19  20
ENDBRANCH   1  19
TORSDOF 5
ENDMDL
MODEL 2
REMARK VINA RESULT:      -9.5      1.631      2.937
REMARK  Name = 
REMARK  6 active torsions:
REMARK  status: ('A' for Active; 'I' for Inactive)
REMARK    1  A    between atoms: C_1  and  C_2
REMARK    2  A    between atoms: C_4  and  S_5
REMARK    3  A    between atoms: S_5  and  C_6
REMARK    4  A    between atoms: C_6  and  C_7
REMARK    5  A    between atoms: C_10  and  C_11
REMARK    6  A    between atoms: C_15  and  C_16
REMARK                            x       y       z     vdW  Elec       q    Type
REMARK                         _______ _______ _______ _____ _____    ______ ____
ROOT
ATOM      1  C   UNL     1       0.865  10.230  18.901  0.00  0.00    +0.000 A 
ATOM      2  C   UNL     1       0.899   9.570  20.135  0.00  0.00    +0.000 A 
ATOM      3  C   UNL     1       1.510   8.315  20.262  0.00  0.00    +0.000 A 
ATOM      4  C   UNL     1       2.113   7.671  19.170  0.00  0.00    +0.000 A 
ATOM      5  C   UNL     1       2.054   8.340  17.931  0.00  0.00    +0.000 A 
ATOM      6  C   UNL     1       1.439   9.594  17.796  0.00  0.00    +0.000 A 
ENDROOT
BRANCH   4   7
ATOM      7  C   UNL     1       2.785   6.352  19.313  0.00  0.00    +0.000 A 
ATOM      8  C   UNL     1       2.292   5.359  20.175  0.00  0.00    +0.000 A 
ATOM      9  C   UNL     1       2.929   4.123  20.309  0.00  0.00    +0.000 A 
ATOM     10  C   UNL     1       4.099   3.853  19.598  0.00  0.00    +0.000 A 
ATOM     11  C   UNL     1       4.638   4.815  18.736  0.00  0.00    +0.000 A 
ATOM     12  C   UNL     1       3.958   6.042  18.593  0.00  0.00    +0.000 A 
BRANCH  11  13
ATOM     13  C   UNL     1       5.887   4.602  18.006  0.00  0.00    +0.000 A 
ATOM     14  N   UNL     1       6.053   4.569  16.695  0.00  0.00    +0.000 NA
ATOM     15  N   UNL     1       7.396   4.381  16.471  0.00  0.00    +0.000 NA
ATOM     16  N   UNL     1       8.058   4.297  17.613  0.00  0.00    +0.000 NA
ATOM     17  N   UNL     1       7.125   4.429  18.564  0.00  0.00    +0.000 N 
ATOM     18  H   UNL     1       7.402   4.402  19.534  0.00  0.00    +0.000 HD
ENDBRANCH  11  13
ENDBRANCH   4   7
BRANCH   1  19
ATOM     19  C   UNL     1       0.267  11.618  18.775  0.00  0.00    +0.000 C 
BRANCH  19  20
ATOM     20  S   UNL     1      -1.238  11.745  19.798  0.00  0.00    +0.000 S 
BRANCH  20  24
ATOM     21  C   UNL     1      -2.863  10.451  15.111  0.00  0.00    +0.000 C 
ATOM     22  C   UNL     1      -3.202  10.932  16.488  0.00  0.00    +0.000 A 
ATOM     23  N   UNL     1      -2.212  11.056  17.385  0.00  0.00    +0.000 NA
ATOM     24  C   UNL     1      -2.553  11.561  18.589  0.00  0.00    +0.000 A 
ATOM     25  C   UNL     1      -3.863  11.965  18.917  0.00  0.00    +0.000 A 
ATOM     26  C   UNL     1      -4.283  12.558  20.140  0.00  0.00    +0.000 A 
ATOM     27  C   UNL     1      -5.616  12.905  20.355  0.00  0.00    +0.000 A 
ATOM     28  C   UNL     1      -6.549  12.651  19.363  0.00  0.00    +0.000 A 
ATOM     29  C   UNL     1      -6.137  12.076  18.158  0.00  0.00    +0.000 A 
ATOM     30  C   UNL     1      -4.812  11.744  17.912  0.00  0.00    +0.000 A 
ATOM     31  N   UNL     1      -4.490  11.233  16.718  0.00  0.00    +0.000 NA
ENDBRANCH  20  24
ENDBRANCH  19  20
ENDBRANCH   1  19
TORSDOF 5
ENDMDL
MODEL 3
REMARK VINA RESULT:      -9.5      1.195      2.626
REMARK  Name = 
REMARK  6 active torsions:
REMARK  status: ('A' for Active; 'I' for Inactive)
REMARK    1  A    between atoms: C_1  and  C_2
REMARK    2  A    between atoms: C_4  and  S_5
REMARK    3  A    between atoms: S_5  and  C_6
REMARK    4  A    between atoms: C_6  and  C_7
REMARK    5  A    between atoms: C_10  and  C_11
REMARK    6  A    between atoms: C_15  and  C_16
REMARK                            x       y       z     vdW  Elec       q    Type
REMARK                         _______ _______ _______ _____ _____    ______ ____
ROOT
ATOM      1  C   UNL     1       1.214   9.214  19.804  0.00  0.00    +0.000 A 
ATOM      2  C   UNL     1       1.469   8.079  20.583  0.00  0.00    +0.000 A 
ATOM      3  C   UNL     1       2.094   6.953  20.030  0.00  0.00    +0.000 A 
ATOM      4  C   UNL     1       2.491   6.914  18.684  0.00  0.00    +0.000 A 
ATOM      5  C   UNL     1       2.210   8.056  17.908  0.00  0.00    +0.000 A 
ATOM      6  C   UNL     1       1.580   9.184  18.456  0.00  0.00    +0.000 A 
ENDROOT
BRANCH   4   7
ATOM      7  C   UNL     1       3.178   5.728  18.106  0.00  0.00    +0.000 A 
ATOM      8  C   UNL     1       2.872   4.421  18.517  0.00  0.00    +0.000 A 
ATOM      9  C   UNL     1       3.524   3.311  17.974  0.00  0.00    +0.000 A 
ATOM     10  C   UNL     1       4.523   3.480  17.015  0.00  0.00    +0.000 A 
ATOM     11  C   UNL     1       4.874   4.764  16.582  0.00  0.00    +0.000 A 
ATOM     12  C   UNL     1       4.180   5.865  17.121  0.00  0.00    +0.000 A 
BRANCH  11  13
ATOM     13  C   UNL     1       5.947   5.000  15.617  0.00  0.00    +0.000 A 
ATOM     14  N   UNL     1       7.095   5.620  15.829  0.00  0.00    +0.000 NA
ATOM     15  N   UNL     1       7.798   5.568  14.650  0.00  0.00    +0.000 NA
ATOM     16  N   UNL     1       7.108   4.931  13.718  0.00  0.00    +0.000 NA
ATOM     17  N   UNL     1       5.961   4.583  14.313  0.00  0.00    +0.000 N 
ATOM     18  H   UNL     1       5.268   4.072  13.787  0.00  0.00    +0.000 HD
ENDBRANCH  11  13
ENDBRANCH   4   7
BRANCH   1  19
ATOM     19  C   UNL     1       0.602  10.459  20.417  0.00  0.00    +0.000 C 
BRANCH  19  20
ATOM     20  S   UNL     1       0.389  11.744  19.140  0.00  0.00    +0.000 S 
BRANCH  20  24
ATOM     21  C   UNL     1      -2.920   9.682  15.811  0.00  0.00    +0.000 C 
ATOM     22  C   UNL     1      -2.701  10.477  17.060  0.00  0.00    +0.000 A 
ATOM     23  N   UNL     1      -1.443  10.676  17.480  0.00  0.00    +0.000 NA
ATOM     24  C   UNL     1      -1.291  11.457  18.570  0.00  0.00    +0.000 A 
ATOM     25  C   UNL     1      -2.369  12.065  19.245  0.00  0.00    +0.000 A 
ATOM     26  C   UNL     1      -2.281  12.944  20.359  0.00  0.00    +0.000 A 
ATOM     27  C   UNL     1      -3.424  13.475  20.954  0.00  0.00    +0.000 A 
ATOM     28  C   UNL     1      -4.669  13.124  20.459  0.00  0.00    +0.000 A 
ATOM     29  C   UNL     1      -4.758  12.266  19.358  0.00  0.00    +0.000 A 
ATOM     30  C   UNL     1      -3.632  11.744  18.735  0.00  0.00    +0.000 A 
ATOM     31  N   UNL     1      -3.799  10.961  17.663  0.00  0.00    +0.000 NA
ENDBRANCH  20  24
ENDBRANCH  19  20
ENDBRANCH   1  19
TORSDOF 5
ENDMDL
MODEL 4
REMARK VINA RESULT:      -9.4      1.166      2.673
REMARK  Name = 
REMARK  6 active torsions:
REMARK  status: ('A' for Active; 'I' for Inactive)
REMARK    1  A    between atoms: C_1  and  C_2
REMARK    2  A    between atoms: C_4  and  S_5
REMARK    3  A    between atoms: S_5  and  C_6
REMARK    4  A    between atoms: C_6  and  C_7
REMARK    5  A    between atoms: C_10  and  C_11
REMARK    6  A    between atoms: C_15  and  C_16
REMARK                            x       y       z     vdW  Elec       q    Type
REMARK                         _______ _______ _______ _____ _____    ______ ____
ROOT
ATOM      1  C   UNL     1       0.852   9.681  19.974  0.00  0.00    +0.000 A 
ATOM      2  C   UNL     1       1.074   8.571  20.798  0.00  0.00    +0.000 A 
ATOM      3  C   UNL     1       1.621   7.389  20.279  0.00  0.00    +0.000 A 
ATOM      4  C   UNL     1       1.970   7.267  18.924  0.00  0.00    +0.000 A 
ATOM      5  C   UNL     1       1.722   8.386  18.105  0.00  0.00    +0.000 A 
ATOM      6  C   UNL     1       1.171   9.571  18.618  0.00  0.00    +0.000 A 
ENDROOT
BRANCH   4   7
ATOM      7  C   UNL     1       2.575   6.022  18.381  0.00  0.00    +0.000 A 
ATOM      8  C   UNL     1       1.787   4.940  17.957  0.00  0.00    +0.000 A 
ATOM      9  C   UNL     1       2.360   3.770  17.452  0.00  0.00    +0.000 A 
ATOM     10  C   UNL     1       3.748   3.640  17.380  0.00  0.00    +0.000 A 
ATOM     11  C   UNL     1       4.576   4.684  17.804  0.00  0.00    +0.000 A 
ATOM     12  C   UNL     1       3.973   5.867  18.279  0.00  0.00    +0.000 A 
BRANCH  11  13
ATOM     13  C   UNL     1       6.035   4.581  17.796  0.00  0.00    +0.000 A 
ATOM     14  N   UNL     1       6.852   4.686  18.830  0.00  0.00    +0.000 NA
ATOM     15  N   UNL     1       8.124   4.482  18.351  0.00  0.00    +0.000 NA
ATOM     16  N   UNL     1       8.107   4.256  17.048  0.00  0.00    +0.000 NA
ATOM     17  N   UNL     1       6.816   4.321  16.702  0.00  0.00    +0.000 N 
ATOM     18  H   UNL     1       6.555   4.171  15.738  0.00  0.00    +0.000 HD
ENDBRANCH  11  13
ENDBRANCH   4   7
BRANCH   1  19
ATOM     19  C   UNL     1       0.327  10.983  20.546  0.00  0.00    +0.000 C 
BRANCH  19  20
ATOM     20  S   UNL     1       0.133  12.217  19.217  0.00  0.00    +0.000 S 
BRANCH  20  24
ATOM     21  C   UNL     1      -3.076  10.531  15.591  0.00  0.00    +0.000 C 
ATOM     22  C   UNL     1      -2.892  11.094  16.966  0.00  0.00    +0.000 A 
ATOM     23  N   UNL     1      -1.645  11.321  17.403  0.00  0.00    +0.000 NA
ATOM     24  C   UNL     1      -1.531  11.895  18.620  0.00  0.00    +0.000 A 
ATOM     25  C   UNL     1      -2.638  12.266  19.409  0.00  0.00    +0.000 A 
ATOM     26  C   UNL     1      -2.596  12.926  20.668  0.00  0.00    +0.000 A 
ATOM     27  C   UNL     1      -3.763  13.231  21.364  0.00  0.00    +0.000 A 
ATOM     28  C   UNL     1      -4.987  12.870  20.824  0.00  0.00    +0.000 A 
ATOM     29  C   UNL     1      -5.032  12.230  19.583  0.00  0.00    +0.000 A 
ATOM     30  C   UNL     1      -3.883  11.936  18.860  0.00  0.00    +0.000 A 
ATOM     31  N   UNL     1      -4.011  11.357  17.661  0.00  0.00    +0.000 NA
ENDBRANCH  20  24
ENDBRANCH  19  20
ENDBRANCH   1  19
TORSDOF 5
ENDMDL
MODEL 5
REMARK VINA RESULT:      -9.3      0.908      1.403
REMARK  Name = 
REMARK  6 active torsions:
REMARK  status: ('A' for Active; 'I' for Inactive)
REMARK    1  A    between atoms: C_1  and  C_2
REMARK    2  A    between atoms: C_4  and  S_5
REMARK    3  A    between atoms: S_5  and  C_6
REMARK    4  A    between atoms: C_6  and  C_7
REMARK    5  A    between atoms: C_10  and  C_11
REMARK    6  A    between atoms: C_15  and  C_16
REMARK                            x       y       z     vdW  Elec       q    Type
REMARK                         _______ _______ _______ _____ _____    ______ ____
ROOT
ATOM      1  C   UNL     1       1.328   9.257  19.669  0.00  0.00    +0.000 A 
ATOM      2  C   UNL     1       1.476   8.105  20.451  0.00  0.00    +0.000 A 
ATOM      3  C   UNL     1       2.085   6.956  19.930  0.00  0.00    +0.000 A 
ATOM      4  C   UNL     1       2.574   6.908  18.614  0.00  0.00    +0.000 A 
ATOM      5  C   UNL     1       2.399   8.068  17.833  0.00  0.00    +0.000 A 
ATOM      6  C   UNL     1       1.786   9.220  18.348  0.00  0.00    +0.000 A 
ENDROOT
BRANCH   4   7
ATOM      7  C   UNL     1       3.244   5.696  18.072  0.00  0.00    +0.000 A 
ATOM      8  C   UNL     1       2.953   4.410  18.555  0.00  0.00    +0.000 A 
ATOM      9  C   UNL     1       3.589   3.275  18.045  0.00  0.00    +0.000 A 
ATOM     10  C   UNL     1       4.558   3.399  17.048  0.00  0.00    +0.000 A 
ATOM     11  C   UNL     1       4.892   4.660  16.544  0.00  0.00    +0.000 A 
ATOM     12  C   UNL     1       4.214   5.786  17.051  0.00  0.00    +0.000 A 
BRANCH  11  13
ATOM     13  C   UNL     1       5.934   4.850  15.535  0.00  0.00    +0.000 A 
ATOM     14  N   UNL     1       5.919   4.436  14.279  0.00  0.00    +0.000 NA
ATOM     15  N   UNL     1       7.087   4.874  13.704  0.00  0.00    +0.000 NA
ATOM     16  N   UNL     1       7.821   5.545  14.576  0.00  0.00    +0.000 NA
ATOM     17  N   UNL     1       7.110   5.527  15.711  0.00  0.00    +0.000 N 
ATOM     18  H   UNL     1       7.476   5.992  16.529  0.00  0.00    +0.000 HD
ENDBRANCH  11  13
ENDBRANCH   4   7
BRANCH   1  19
ATOM     19  C   UNL     1       0.733  10.524  20.251  0.00  0.00    +0.000 C 
BRANCH  19  20
ATOM     20  S   UNL     1       0.158  11.618  18.910  0.00  0.00    +0.000 S 
BRANCH  20  24
ATOM     21  C   UNL     1      -3.330  13.066  22.377  0.00  0.00    +0.000 C 
ATOM     22  C   UNL     1      -3.032  12.641  20.973  0.00  0.00    +0.000 A 
ATOM     23  N   UNL     1      -1.756  12.402  20.633  0.00  0.00    +0.000 NA
ATOM     24  C   UNL     1      -1.544  11.953  19.378  0.00  0.00    +0.000 A 
ATOM     25  C   UNL     1      -2.581  11.717  18.453  0.00  0.00    +0.000 A 
ATOM     26  C   UNL     1      -2.438  11.191  17.139  0.00  0.00    +0.000 A 
ATOM     27  C   UNL     1      -3.542  11.013  16.308  0.00  0.00    +0.000 A 
ATOM     28  C   UNL     1      -4.799  11.373  16.766  0.00  0.00    +0.000 A 
ATOM     29  C   UNL     1      -4.943  11.882  18.059  0.00  0.00    +0.000 A 
ATOM     30  C   UNL     1      -3.861  12.046  18.914  0.00  0.00    +0.000 A 
ATOM     31  N   UNL     1      -4.085  12.503  20.151  0.00  0.00    +0.000 NA
ENDBRANCH  20  24
ENDBRANCH  19  20
ENDBRANCH   1  19
TORSDOF 5
ENDMDL
MODEL 6
REMARK VINA RESULT:      -9.2      1.732      2.918
REMARK  Name = 
REMARK  6 active torsions:
REMARK  status: ('A' for Active; 'I' for Inactive)
REMARK    1  A    between atoms: C_1  and  C_2
REMARK    2  A    between atoms: C_4  and  S_5
REMARK    3  A    between atoms: S_5  and  C_6
REMARK    4  A    between atoms: C_6  and  C_7
REMARK    5  A    between atoms: C_10  and  C_11
REMARK    6  A    between atoms: C_15  and  C_16
REMARK                            x       y       z     vdW  Elec       q    Type
REMARK                         _______ _______ _______ _____ _____    ______ ____
ROOT
ATOM      1  C   UNL     1       0.646  10.537  19.076  0.00  0.00    +0.000 A 
ATOM      2  C   UNL     1       1.368   9.944  18.033  0.00  0.00    +0.000 A 
ATOM      3  C   UNL     1       1.969   8.689  18.198  0.00  0.00    +0.000 A 
ATOM      4  C   UNL     1       1.872   7.975  19.403  0.00  0.00    +0.000 A 
ATOM      5  C   UNL     1       1.160   8.593  20.449  0.00  0.00    +0.000 A 
ATOM      6  C   UNL     1       0.560   9.852  20.291  0.00  0.00    +0.000 A 
ENDROOT
BRANCH   4   7
ATOM      7  C   UNL     1       2.488   6.631  19.567  0.00  0.00    +0.000 A 
ATOM      8  C   UNL     1       1.876   5.623  20.328  0.00  0.00    +0.000 A 
ATOM      9  C   UNL     1       2.461   4.364  20.483  0.00  0.00    +0.000 A 
ATOM     10  C   UNL     1       3.696   4.084  19.896  0.00  0.00    +0.000 A 
ATOM     11  C   UNL     1       4.353   5.061  19.140  0.00  0.00    +0.000 A 
ATOM     12  C   UNL     1       3.727   6.312  18.971  0.00  0.00    +0.000 A 
BRANCH  11  13
ATOM     13  C   UNL     1       5.671   4.836  18.545  0.00  0.00    +0.000 A 
ATOM     14  N   UNL     1       6.833   4.767  19.172  0.00  0.00    +0.000 NA
ATOM     15  N   UNL     1       7.784   4.507  18.215  0.00  0.00    +0.000 NA
ATOM     16  N   UNL     1       7.234   4.415  17.015  0.00  0.00    +0.000 NA
ATOM     17  N   UNL     1       5.927   4.623  17.217  0.00  0.00    +0.000 N 
ATOM     18  H   UNL     1       5.296   4.594  16.430  0.00  0.00    +0.000 HD
ENDBRANCH  11  13
ENDBRANCH   4   7
BRANCH   1  19
ATOM     19  C   UNL     1      -0.064  11.862  18.878  0.00  0.00    +0.000 C 
BRANCH  19  20
ATOM     20  S   UNL     1      -1.624  11.883  19.823  0.00  0.00    +0.000 S 
BRANCH  20  24
ATOM     21  C   UNL     1      -2.912  10.482  15.062  0.00  0.00    +0.000 C 
ATOM     22  C   UNL     1      -3.354  10.936  16.419  0.00  0.00    +0.000 A 
ATOM     23  N   UNL     1      -2.422  11.130  17.364  0.00  0.00    +0.000 NA
ATOM     24  C   UNL     1      -2.860  11.607  18.549  0.00  0.00    +0.000 A 
ATOM     25  C   UNL     1      -4.210  11.914  18.810  0.00  0.00    +0.000 A 
ATOM     26  C   UNL     1      -4.734  12.473  20.008  0.00  0.00    +0.000 A 
ATOM     27  C   UNL     1      -6.097  12.721  20.155  0.00  0.00    +0.000 A 
ATOM     28  C   UNL     1      -6.958  12.402  19.118  0.00  0.00    +0.000 A 
ATOM     29  C   UNL     1      -6.445  11.861  17.936  0.00  0.00    +0.000 A 
ATOM     30  C   UNL     1      -5.088  11.626  17.758  0.00  0.00    +0.000 A 
ATOM     31  N   UNL     1      -4.670  11.142  16.583  0.00  0.00    +0.000 NA
ENDBRANCH  20  24
ENDBRANCH  19  20
ENDBRANCH   1  19
TORSDOF 5
ENDMDL
MODEL 7
REMARK VINA RESULT:      -9.2      2.564      3.878
REMARK  Name = 
REMARK  6 active torsions:
REMARK  status: ('A' for Active; 'I' for Inactive)
REMARK    1  A    between atoms: C_1  and  C_2
REMARK    2  A    between atoms: C_4  and  S_5
REMARK    3  A    between atoms: S_5  and  C_6
REMARK    4  A    between atoms: C_6  and  C_7
REMARK    5  A    between atoms: C_10  and  C_11
REMARK    6  A    between atoms: C_15  and  C_16
REMARK                            x       y       z     vdW  Elec       q    Type
REMARK                         _______ _______ _______ _____ _____    ______ ____
ROOT
ATOM      1  C   UNL     1       1.000   9.978  19.590  0.00  0.00    +0.000 A 
ATOM      2  C   UNL     1       1.330   9.815  18.239  0.00  0.00    +0.000 A 
ATOM      3  C   UNL     1       1.850   8.602  17.767  0.00  0.00    +0.000 A 
ATOM      4  C   UNL     1       2.058   7.504  18.618  0.00  0.00    +0.000 A 
ATOM      5  C   UNL     1       1.740   7.690  19.978  0.00  0.00    +0.000 A 
ATOM      6  C   UNL     1       1.224   8.905  20.457  0.00  0.00    +0.000 A 
ENDROOT
BRANCH   4   7
ATOM      7  C   UNL     1       2.584   6.209  18.110  0.00  0.00    +0.000 A 
ATOM      8  C   UNL     1       1.862   5.013  18.242  0.00  0.00    +0.000 A 
ATOM      9  C   UNL     1       2.363   3.798  17.768  0.00  0.00    +0.000 A 
ATOM     10  C   UNL     1       3.620   3.743  17.164  0.00  0.00    +0.000 A 
ATOM     11  C   UNL     1       4.384   4.906  17.021  0.00  0.00    +0.000 A 
ATOM     12  C   UNL     1       3.843   6.124  17.479  0.00  0.00    +0.000 A 
BRANCH  11  13
ATOM     13  C   UNL     1       5.727   4.895  16.441  0.00  0.00    +0.000 A 
ATOM     14  N   UNL     1       6.150   5.568  15.385  0.00  0.00    +0.000 NA
ATOM     15  N   UNL     1       7.484   5.276  15.237  0.00  0.00    +0.000 NA
ATOM     16  N   UNL     1       7.891   4.439  16.177  0.00  0.00    +0.000 NA
ATOM     17  N   UNL     1       6.804   4.199  16.920  0.00  0.00    +0.000 N 
ATOM     18  H   UNL     1       6.877   3.581  17.715  0.00  0.00    +0.000 HD
ENDBRANCH  11  13
ENDBRANCH   4   7
BRANCH   1  19
ATOM     19  C   UNL     1       0.374  11.264  20.090  0.00  0.00    +0.000 C 
BRANCH  19  20
ATOM     20  S   UNL     1      -0.382  10.996  21.728  0.00  0.00    +0.000 S 
BRANCH  20  24
ATOM     21  C   UNL     1       1.179  15.850  22.269  0.00  0.00    +0.000 C 
ATOM     22  C   UNL     1       0.111  14.824  22.490  0.00  0.00    +0.000 A 
ATOM     23  N   UNL     1       0.315  13.579  22.035  0.00  0.00    +0.000 NA
ATOM     24  C   UNL     1      -0.643  12.672  22.320  0.00  0.00    +0.000 A 
ATOM     25  C   UNL     1      -1.799  12.974  23.069  0.00  0.00    +0.000 A 
ATOM     26  C   UNL     1      -2.818  12.060  23.457  0.00  0.00    +0.000 A 
ATOM     27  C   UNL     1      -3.926  12.481  24.189  0.00  0.00    +0.000 A 
ATOM     28  C   UNL     1      -4.043  13.819  24.530  0.00  0.00    +0.000 A 
ATOM     29  C   UNL     1      -3.039  14.717  24.157  0.00  0.00    +0.000 A 
ATOM     30  C   UNL     1      -1.915  14.317  23.448  0.00  0.00    +0.000 A 
ATOM     31  N   UNL     1      -0.979  15.229  23.162  0.00  0.00    +0.000 NA
ENDBRANCH  20  24
ENDBRANCH  19  20
ENDBRANCH   1  19
TORSDOF 5
ENDMDL
MODEL 8
REMARK VINA RESULT:      -9.1      2.524      9.919
REMARK  Name = 
REMARK  6 active torsions:
REMARK  status: ('A' for Active; 'I' for Inactive)
REMARK    1  A    between atoms: C_1  and  C_2
REMARK    2  A    between atoms: C_4  and  S_5
REMARK    3  A    between atoms: S_5  and  C_6
REMARK    4  A    between atoms: C_6  and  C_7
REMARK    5  A    between atoms: C_10  and  C_11
REMARK    6  A    between atoms: C_15  and  C_16
REMARK                            x       y       z     vdW  Elec       q    Type
REMARK                         _______ _______ _______ _____ _____    ______ ____
ROOT
ATOM      1  C   UNL     1       2.585   6.506  19.686  0.00  0.00    +0.000 A 
ATOM      2  C   UNL     1       1.846   7.132  20.698  0.00  0.00    +0.000 A 
ATOM      3  C   UNL     1       1.198   8.353  20.464  0.00  0.00    +0.000 A 
ATOM      4  C   UNL     1       1.257   8.995  19.217  0.00  0.00    +0.000 A 
ATOM      5  C   UNL     1       2.021   8.363  18.216  0.00  0.00    +0.000 A 
ATOM      6  C   UNL     1       2.675   7.143  18.446  0.00  0.00    +0.000 A 
ENDROOT
BRANCH   4   7
ATOM      7  C   UNL     1       0.546  10.277  18.963  0.00  0.00    +0.000 A 
ATOM      8  C   UNL     1       1.020  11.499  19.466  0.00  0.00    +0.000 A 
ATOM      9  C   UNL     1       0.346  12.700  19.229  0.00  0.00    +0.000 A 
ATOM     10  C   UNL     1      -0.842  12.707  18.498  0.00  0.00    +0.000 A 
ATOM     11  C   UNL     1      -1.363  11.514  17.987  0.00  0.00    +0.000 A 
ATOM     12  C   UNL     1      -0.647  10.320  18.212  0.00  0.00    +0.000 A 
BRANCH  11  13
ATOM     13  C   UNL     1      -2.629  11.460  17.256  0.00  0.00    +0.000 A 
ATOM     14  N   UNL     1      -2.879  10.810  16.132  0.00  0.00    +0.000 NA
ATOM     15  N   UNL     1      -4.206  11.016  15.843  0.00  0.00    +0.000 NA
ATOM     16  N   UNL     1      -4.777  11.778  16.761  0.00  0.00    +0.000 NA
ATOM     17  N   UNL     1      -3.801  12.057  17.634  0.00  0.00    +0.000 N 
ATOM     18  H   UNL     1      -4.008  12.630  18.439  0.00  0.00    +0.000 HD
ENDBRANCH  11  13
ENDBRANCH   4   7
BRANCH   1  19
ATOM     19  C   UNL     1       3.229   5.153  19.915  0.00  0.00    +0.000 C 
BRANCH  19  20
ATOM     20  S   UNL     1       3.447   4.288  18.324  0.00  0.00    +0.000 S 
BRANCH  20  24
ATOM     21  C   UNL     1       8.177   5.730  19.678  0.00  0.00    +0.000 C 
ATOM     22  C   UNL     1       7.246   5.274  18.598  0.00  0.00    +0.000 A 
ATOM     23  N   UNL     1       5.975   4.994  18.924  0.00  0.00    +0.000 NA
ATOM     24  C   UNL     1       5.155   4.656  17.906  0.00  0.00    +0.000 A 
ATOM     25  C   UNL     1       5.569   4.608  16.560  0.00  0.00    +0.000 A 
ATOM     26  C   UNL     1       4.751   4.319  15.433  0.00  0.00    +0.000 A 
ATOM     27  C   UNL     1       5.279   4.288  14.145  0.00  0.00    +0.000 A 
ATOM     28  C   UNL     1       6.632   4.527  13.962  0.00  0.00    +0.000 A 
ATOM     29  C   UNL     1       7.436   4.819  15.067  0.00  0.00    +0.000 A 
ATOM     30  C   UNL     1       6.928   4.879  16.357  0.00  0.00    +0.000 A 
ATOM     31  N   UNL     1       7.755   5.204  17.357  0.00  0.00    +0.000 NA
ENDBRANCH  20  24
ENDBRANCH  19  20
ENDBRANCH   1  19
TORSDOF 5
ENDMDL
MODEL 9
REMARK VINA RESULT:      -9.1      1.250      1.648
REMARK  Name = 
REMARK  6 active torsions:
REMARK  status: ('A' for Active; 'I' for Inactive)
REMARK    1  A    between atoms: C_1  and  C_2
REMARK    2  A    between atoms: C_4  and  S_5
REMARK    3  A    between atoms: S_5  and  C_6
REMARK    4  A    between atoms: C_6  and  C_7
REMARK    5  A    between atoms: C_10  and  C_11
REMARK    6  A    between atoms: C_15  and  C_16
REMARK                            x       y       z     vdW  Elec       q    Type
REMARK                         _______ _______ _______ _____ _____    ______ ____
ROOT
ATOM      1  C   UNL     1       1.140   9.768  19.366  0.00  0.00    +0.000 A 
ATOM      2  C   UNL     1       1.679   9.649  18.079  0.00  0.00    +0.000 A 
ATOM      3  C   UNL     1       2.359   8.488  17.690  0.00  0.00    +0.000 A 
ATOM      4  C   UNL     1       2.527   7.400  18.562  0.00  0.00    +0.000 A 
ATOM      5  C   UNL     1       1.997   7.544  19.860  0.00  0.00    +0.000 A 
ATOM      6  C   UNL     1       1.319   8.706  20.257  0.00  0.00    +0.000 A 
ENDROOT
BRANCH   4   7
ATOM      7  C   UNL     1       3.226   6.158  18.138  0.00  0.00    +0.000 A 
ATOM      8  C   UNL     1       2.958   4.916  18.735  0.00  0.00    +0.000 A 
ATOM      9  C   UNL     1       3.621   3.753  18.336  0.00  0.00    +0.000 A 
ATOM     10  C   UNL     1       4.595   3.805  17.338  0.00  0.00    +0.000 A 
ATOM     11  C   UNL     1       4.909   5.021  16.722  0.00  0.00    +0.000 A 
ATOM     12  C   UNL     1       4.203   6.175  17.119  0.00  0.00    +0.000 A 
BRANCH  11  13
ATOM     13  C   UNL     1       5.955   5.140  15.707  0.00  0.00    +0.000 A 
ATOM     14  N   UNL     1       7.140   5.710  15.839  0.00  0.00    +0.000 NA
ATOM     15  N   UNL     1       7.793   5.548  14.641  0.00  0.00    +0.000 NA
ATOM     16  N   UNL     1       7.037   4.892  13.776  0.00  0.00    +0.000 NA
ATOM     17  N   UNL     1       5.898   4.643  14.432  0.00  0.00    +0.000 N 
ATOM     18  H   UNL     1       5.159   4.138  13.964  0.00  0.00    +0.000 HD
ENDBRANCH  11  13
ENDBRANCH   4   7
BRANCH   1  19
ATOM     19  C   UNL     1       0.344  10.995  19.768  0.00  0.00    +0.000 C 
BRANCH  19  20
ATOM     20  S   UNL     1      -0.983  11.302  18.555  0.00  0.00    +0.000 S 
BRANCH  20  24
ATOM     21  C   UNL     1      -2.782  12.919  23.075  0.00  0.00    +0.000 C 
ATOM     22  C   UNL     1      -3.043  12.643  21.627  0.00  0.00    +0.000 A 
ATOM     23  N   UNL     1      -2.029  12.205  20.866  0.00  0.00    +0.000 NA
ATOM     24  C   UNL     1      -2.327  11.902  19.585  0.00  0.00    +0.000 A 
ATOM     25  C   UNL     1      -3.625  12.010  19.045  0.00  0.00    +0.000 A 
ATOM     26  C   UNL     1      -4.024  11.654  17.727  0.00  0.00    +0.000 A 
ATOM     27  C   UNL     1      -5.340  11.819  17.301  0.00  0.00    +0.000 A 
ATOM     28  C   UNL     1      -6.272  12.354  18.175  0.00  0.00    +0.000 A 
ATOM     29  C   UNL     1      -5.884  12.696  19.474  0.00  0.00    +0.000 A 
ATOM     30  C   UNL     1      -4.584  12.520  19.928  0.00  0.00    +0.000 A 
ATOM     31  N   UNL     1      -4.300  12.835  21.196  0.00  0.00    +0.000 NA
ENDBRANCH  20  24
ENDBRANCH  19  20
ENDBRANCH   1  19
TORSDOF 5
ENDMDL
