MODEL 1
REMARK VINA RESULT:      -6.6      0.000      0.000
REMARK  Name = 
REMARK  12 active torsions:
REMARK  status: ('A' for Active; 'I' for Inactive)
REMARK    1  A    between atoms: C_1  and  O_2
REMARK    2  A    between atoms: O_2  and  C_3
REMARK    3  A    between atoms: C_3  and  C_5
REMARK    4  A    between atoms: C_6  and  C_7
REMARK    5  A    between atoms: C_11  and  C_12
REMARK    6  A    between atoms: N_23  and  C_24
REMARK    7  A    between atoms: C_24  and  C_25
REMARK    8  A    between atoms: C_25  and  C_26
REMARK    9  A    between atoms: C_26  and  O_27
REMARK   10  A    between atoms: O_27  and  C_28
REMARK   11  A    between atoms: C_28  and  C_29
REMARK   12  A    between atoms: C_28  and  C_30
REMARK                            x       y       z     vdW  Elec       q    Type
REMARK                         _______ _______ _______ _____ _____    ______ ____
ROOT
ATOM      1  C   UNL     1      -2.284  11.373  18.401  0.00  0.00    +0.000 C 
ATOM      2  C   UNL     1      -3.061  12.045  19.290  0.00  0.00    +0.000 C 
ATOM      3  C   UNL     1      -2.423  12.882  20.404  0.00  0.00    +0.000 C 
ATOM      4  C   UNL     1      -0.885  12.972  20.264  0.00  0.00    +0.000 C 
ATOM      5  C   UNL     1      -0.494  13.844  19.059  0.00  0.00    +0.000 C 
ATOM      6  C   UNL     1      -0.357  12.858  17.885  0.00  0.00    +0.000 C 
ATOM      7  C   UNL     1      -0.764  11.496  18.470  0.00  0.00    +0.000 C 
ATOM      8  N   UNL     1      -0.402  11.657  19.871  0.00  0.00    +0.000 N 
ATOM      9  C   UNL     1       0.147  10.787  20.770  0.00  0.00    +0.000 C 
ATOM     10  O   UNL     1       0.362  11.117  21.934  0.00  0.00    +0.000 OA
ATOM     11  N   UNL     1       0.481   9.550  20.293  0.00  0.00    +0.000 N 
ATOM     12  H   UNL     1       0.133   9.246  19.400  0.00  0.00    +0.000 HD
ENDROOT
BRANCH   2  13
ATOM     13  C   UNL     1      -4.528  12.071  19.292  0.00  0.00    +0.000 A 
ATOM     14  C   UNL     1      -5.237  12.252  18.094  0.00  0.00    +0.000 A 
ATOM     15  C   UNL     1      -6.629  12.364  18.104  0.00  0.00    +0.000 A 
ATOM     16  C   UNL     1      -7.324  12.288  19.312  0.00  0.00    +0.000 A 
ATOM     17  C   UNL     1      -6.627  12.083  20.507  0.00  0.00    +0.000 A 
ATOM     18  C   UNL     1      -5.232  11.972  20.496  0.00  0.00    +0.000 A 
BRANCH  17  19
ATOM     19  C   UNL     1      -7.336  12.019  21.744  0.00  0.00    +0.000 C 
ATOM     20  N   UNL     1      -7.917  11.983  22.754  0.00  0.00    +0.000 NA
ENDBRANCH  17  19
ENDBRANCH   2  13
BRANCH   1  21
ATOM     21  C   UNL     1      -2.837  10.517  17.315  0.00  0.00    +0.000 C 
ATOM     22  O   UNL     1      -3.324   9.408  17.467  0.00  0.00    +0.000 OA
BRANCH  21  24
ATOM     23  C   UNL     1      -3.099  10.358  14.997  0.00  0.00    +0.000 C 
ATOM     24  O   UNL     1      -2.695  11.146  16.119  0.00  0.00    +0.000 OA
ENDBRANCH  21  24
ENDBRANCH   1  21
BRANCH  11  25
ATOM     25  C   UNL     1       1.150   8.567  21.133  0.00  0.00    +0.000 C 
BRANCH  25  26
ATOM     26  C   UNL     1       1.856   7.476  20.327  0.00  0.00    +0.000 C 
BRANCH  26  27
ATOM     27  C   UNL     1       1.475   6.083  20.826  0.00  0.00    +0.000 C 
BRANCH  27  28
ATOM     28  O   UNL     1       2.163   5.076  20.084  0.00  0.00    +0.000 OA
BRANCH  28  29
ATOM     29  C   UNL     1       1.314   4.042  19.569  0.00  0.00    +0.000 C 
ATOM     30  C   UNL     1       1.516   3.846  18.068  0.00  0.00    +0.000 C 
ATOM     31  C   UNL     1       1.658   2.742  20.295  0.00  0.00    +0.000 C 
ENDBRANCH  28  29
ENDBRANCH  27  28
ENDBRANCH  26  27
ENDBRANCH  25  26
ENDBRANCH  11  25
TORSDOF 9
ENDMDL
MODEL 2
REMARK VINA RESULT:      -6.5      3.701      6.426
REMARK  Name = 
REMARK  12 active torsions:
REMARK  status: ('A' for Active; 'I' for Inactive)
REMARK    1  A    between atoms: C_1  and  O_2
REMARK    2  A    between atoms: O_2  and  C_3
REMARK    3  A    between atoms: C_3  and  C_5
REMARK    4  A    between atoms: C_6  and  C_7
REMARK    5  A    between atoms: C_11  and  C_12
REMARK    6  A    between atoms: N_23  and  C_24
REMARK    7  A    between atoms: C_24  and  C_25
REMARK    8  A    between atoms: C_25  and  C_26
REMARK    9  A    between atoms: C_26  and  O_27
REMARK   10  A    between atoms: O_27  and  C_28
REMARK   11  A    between atoms: C_28  and  C_29
REMARK   12  A    between atoms: C_28  and  C_30
REMARK                            x       y       z     vdW  Elec       q    Type
REMARK                         _______ _______ _______ _____ _____    ______ ____
ROOT
ATOM      1  C   UNL     1       0.057  12.126  20.294  0.00  0.00    +0.000 C 
ATOM      2  C   UNL     1      -0.669  12.426  19.184  0.00  0.00    +0.000 C 
ATOM      3  C   UNL     1      -0.560  13.811  18.536  0.00  0.00    +0.000 C 
ATOM      4  C   UNL     1       0.540  14.681  19.188  0.00  0.00    +0.000 C 
ATOM      5  C   UNL     1       1.939  14.147  18.840  0.00  0.00    +0.000 C 
ATOM      6  C   UNL     1       2.289  13.177  19.984  0.00  0.00    +0.000 C 
ATOM      7  C   UNL     1       1.032  13.149  20.869  0.00  0.00    +0.000 C 
ATOM      8  N   UNL     1       0.472  14.471  20.626  0.00  0.00    +0.000 N 
ATOM      9  C   UNL     1      -0.143  15.360  21.461  0.00  0.00    +0.000 C 
ATOM     10  O   UNL     1      -0.572  16.436  21.050  0.00  0.00    +0.000 OA
ATOM     11  N   UNL     1      -0.218  15.005  22.780  0.00  0.00    +0.000 N 
ATOM     12  H   UNL     1      -0.029  14.057  23.054  0.00  0.00    +0.000 HD
ENDROOT
BRANCH   2  13
ATOM     13  C   UNL     1      -1.585  11.514  18.491  0.00  0.00    +0.000 A 
ATOM     14  C   UNL     1      -1.084  10.508  17.650  0.00  0.00    +0.000 A 
ATOM     15  C   UNL     1      -1.955   9.695  16.921  0.00  0.00    +0.000 A 
ATOM     16  C   UNL     1      -3.334   9.876  17.035  0.00  0.00    +0.000 A 
ATOM     17  C   UNL     1      -3.841  10.860  17.889  0.00  0.00    +0.000 A 
ATOM     18  C   UNL     1      -2.968  11.675  18.618  0.00  0.00    +0.000 A 
BRANCH  17  19
ATOM     19  C   UNL     1      -5.251  11.055  17.994  0.00  0.00    +0.000 C 
ATOM     20  N   UNL     1      -6.400  11.217  18.096  0.00  0.00    +0.000 NA
ENDBRANCH  17  19
ENDBRANCH   2  13
BRANCH   1  21
ATOM     21  C   UNL     1      -0.024  10.812  20.991  0.00  0.00    +0.000 C 
ATOM     22  O   UNL     1       0.613   9.814  20.696  0.00  0.00    +0.000 OA
BRANCH  21  24
ATOM     23  C   UNL     1      -0.604  10.097  23.140  0.00  0.00    +0.000 C 
ATOM     24  O   UNL     1      -0.939  10.882  21.994  0.00  0.00    +0.000 OA
ENDBRANCH  21  24
ENDBRANCH   1  21
BRANCH  11  25
ATOM     25  C   UNL     1      -0.774  15.906  23.779  0.00  0.00    +0.000 C 
BRANCH  25  26
ATOM     26  C   UNL     1      -2.288  15.758  23.937  0.00  0.00    +0.000 C 
BRANCH  26  27
ATOM     27  C   UNL     1      -2.649  14.422  24.587  0.00  0.00    +0.000 C 
BRANCH  27  28
ATOM     28  O   UNL     1      -2.379  13.339  23.697  0.00  0.00    +0.000 OA
BRANCH  28  29
ATOM     29  C   UNL     1      -3.476  12.431  23.527  0.00  0.00    +0.000 C 
ATOM     30  C   UNL     1      -4.458  12.513  24.694  0.00  0.00    +0.000 C 
ATOM     31  C   UNL     1      -4.201  12.804  22.234  0.00  0.00    +0.000 C 
ENDBRANCH  28  29
ENDBRANCH  27  28
ENDBRANCH  26  27
ENDBRANCH  25  26
ENDBRANCH  11  25
TORSDOF 9
ENDMDL
MODEL 3
REMARK VINA RESULT:      -6.5      3.155      4.868
REMARK  Name = 
REMARK  12 active torsions:
REMARK  status: ('A' for Active; 'I' for Inactive)
REMARK    1  A    between atoms: C_1  and  O_2
REMARK    2  A    between atoms: O_2  and  C_3
REMARK    3  A    between atoms: C_3  and  C_5
REMARK    4  A    between atoms: C_6  and  C_7
REMARK    5  A    between atoms: C_11  and  C_12
REMARK    6  A    between atoms: N_23  and  C_24
REMARK    7  A    between atoms: C_24  and  C_25
REMARK    8  A    between atoms: C_25  and  C_26
REMARK    9  A    between atoms: C_26  and  O_27
REMARK   10  A    between atoms: O_27  and  C_28
REMARK   11  A    between atoms: C_28  and  C_29
REMARK   12  A    between atoms: C_28  and  C_30
REMARK                            x       y       z     vdW  Elec       q    Type
REMARK                         _______ _______ _______ _____ _____    ______ ____
ROOT
ATOM      1  C   UNL     1       0.845  10.079  19.853  0.00  0.00    +0.000 C 
ATOM      2  C   UNL     1      -0.484   9.800  19.800  0.00  0.00    +0.000 C 
ATOM      3  C   UNL     1      -1.086   8.711  20.694  0.00  0.00    +0.000 C 
ATOM      4  C   UNL     1      -0.060   8.145  21.704  0.00  0.00    +0.000 C 
ATOM      5  C   UNL     1       0.272   9.183  22.788  0.00  0.00    +0.000 C 
ATOM      6  C   UNL     1       1.500   9.940  22.248  0.00  0.00    +0.000 C 
ATOM      7  C   UNL     1       1.739   9.347  20.850  0.00  0.00    +0.000 C 
ATOM      8  N   UNL     1       1.208   8.001  21.007  0.00  0.00    +0.000 N 
ATOM      9  C   UNL     1       1.640   6.796  20.528  0.00  0.00    +0.000 C 
ATOM     10  O   UNL     1       1.029   5.756  20.760  0.00  0.00    +0.000 OA
ATOM     11  N   UNL     1       2.807   6.809  19.814  0.00  0.00    +0.000 N 
ATOM     12  H   UNL     1       3.184   7.680  19.485  0.00  0.00    +0.000 HD
ENDROOT
BRANCH   2  13
ATOM     13  C   UNL     1      -1.464  10.476  18.942  0.00  0.00    +0.000 A 
ATOM     14  C   UNL     1      -2.339  11.432  19.481  0.00  0.00    +0.000 A 
ATOM     15  C   UNL     1      -3.330  12.013  18.686  0.00  0.00    +0.000 A 
ATOM     16  C   UNL     1      -3.448  11.648  17.344  0.00  0.00    +0.000 A 
ATOM     17  C   UNL     1      -2.564  10.714  16.795  0.00  0.00    +0.000 A 
ATOM     18  C   UNL     1      -1.572  10.132  17.591  0.00  0.00    +0.000 A 
BRANCH  17  19
ATOM     19  C   UNL     1      -2.693  10.331  15.426  0.00  0.00    +0.000 C 
ATOM     20  N   UNL     1      -2.812  10.010  14.312  0.00  0.00    +0.000 NA
ENDBRANCH  17  19
ENDBRANCH   2  13
BRANCH   1  21
ATOM     21  C   UNL     1       1.500  11.102  18.991  0.00  0.00    +0.000 C 
ATOM     22  O   UNL     1       2.120  10.870  17.966  0.00  0.00    +0.000 OA
BRANCH  21  24
ATOM     23  C   UNL     1       0.817  13.307  18.619  0.00  0.00    +0.000 C 
ATOM     24  O   UNL     1       1.329  12.336  19.535  0.00  0.00    +0.000 OA
ENDBRANCH  21  24
ENDBRANCH   1  21
BRANCH  11  25
ATOM     25  C   UNL     1       3.411   5.577  19.325  0.00  0.00    +0.000 C 
BRANCH  25  26
ATOM     26  C   UNL     1       3.463   5.505  17.798  0.00  0.00    +0.000 C 
BRANCH  26  27
ATOM     27  C   UNL     1       3.651   4.067  17.317  0.00  0.00    +0.000 C 
BRANCH  27  28
ATOM     28  O   UNL     1       2.388   3.446  17.077  0.00  0.00    +0.000 OA
BRANCH  28  29
ATOM     29  C   UNL     1       2.156   2.265  17.857  0.00  0.00    +0.000 C 
ATOM     30  C   UNL     1       3.434   1.785  18.542  0.00  0.00    +0.000 C 
ATOM     31  C   UNL     1       1.112   2.600  18.921  0.00  0.00    +0.000 C 
ENDBRANCH  28  29
ENDBRANCH  27  28
ENDBRANCH  26  27
ENDBRANCH  25  26
ENDBRANCH  11  25
TORSDOF 9
ENDMDL
MODEL 4
REMARK VINA RESULT:      -6.4      2.584      8.447
REMARK  Name = 
REMARK  12 active torsions:
REMARK  status: ('A' for Active; 'I' for Inactive)
REMARK    1  A    between atoms: C_1  and  O_2
REMARK    2  A    between atoms: O_2  and  C_3
REMARK    3  A    between atoms: C_3  and  C_5
REMARK    4  A    between atoms: C_6  and  C_7
REMARK    5  A    between atoms: C_11  and  C_12
REMARK    6  A    between atoms: N_23  and  C_24
REMARK    7  A    between atoms: C_24  and  C_25
REMARK    8  A    between atoms: C_25  and  C_26
REMARK    9  A    between atoms: C_26  and  O_27
REMARK   10  A    between atoms: O_27  and  C_28
REMARK   11  A    between atoms: C_28  and  C_29
REMARK   12  A    between atoms: C_28  and  C_30
REMARK                            x       y       z     vdW  Elec       q    Type
REMARK                         _______ _______ _______ _____ _____    ______ ____
ROOT
ATOM      1  C   UNL     1       0.871  10.227  20.693  0.00  0.00    +0.000 C 
ATOM      2  C   UNL     1       1.236   9.519  19.592  0.00  0.00    +0.000 C 
ATOM      3  C   UNL     1       1.195  10.166  18.203  0.00  0.00    +0.000 C 
ATOM      4  C   UNL     1       0.867  11.676  18.267  0.00  0.00    +0.000 C 
ATOM      5  C   UNL     1       2.042  12.468  18.863  0.00  0.00    +0.000 C 
ATOM      6  C   UNL     1       1.751  12.531  20.374  0.00  0.00    +0.000 C 
ATOM      7  C   UNL     1       0.475  11.695  20.560  0.00  0.00    +0.000 C 
ATOM      8  N   UNL     1      -0.174  11.857  19.267  0.00  0.00    +0.000 N 
ATOM      9  C   UNL     1      -1.489  12.010  18.927  0.00  0.00    +0.000 C 
ATOM     10  O   UNL     1      -1.841  12.113  17.754  0.00  0.00    +0.000 OA
ATOM     11  N   UNL     1      -2.380  12.082  19.962  0.00  0.00    +0.000 N 
ATOM     12  H   UNL     1      -2.096  11.814  20.888  0.00  0.00    +0.000 HD
ENDROOT
BRANCH   2  13
ATOM     13  C   UNL     1       1.705   8.129  19.588  0.00  0.00    +0.000 A 
ATOM     14  C   UNL     1       1.346   7.255  20.626  0.00  0.00    +0.000 A 
ATOM     15  C   UNL     1       1.862   5.958  20.671  0.00  0.00    +0.000 A 
ATOM     16  C   UNL     1       2.733   5.522  19.672  0.00  0.00    +0.000 A 
ATOM     17  C   UNL     1       3.076   6.378  18.621  0.00  0.00    +0.000 A 
ATOM     18  C   UNL     1       2.560   7.678  18.578  0.00  0.00    +0.000 A 
BRANCH  17  19
ATOM     19  C   UNL     1       3.979   5.937  17.607  0.00  0.00    +0.000 C 
ATOM     20  N   UNL     1       4.704   5.568  16.773  0.00  0.00    +0.000 NA
ENDBRANCH  17  19
ENDBRANCH   2  13
BRANCH   1  21
ATOM     21  C   UNL     1       0.857   9.651  22.066  0.00  0.00    +0.000 C 
ATOM     22  O   UNL     1       1.840   9.467  22.766  0.00  0.00    +0.000 OA
BRANCH  21  24
ATOM     23  C   UNL     1      -1.052  10.310  23.245  0.00  0.00    +0.000 C 
ATOM     24  O   UNL     1      -0.418   9.334  22.416  0.00  0.00    +0.000 OA
ENDBRANCH  21  24
ENDBRANCH   1  21
BRANCH  11  25
ATOM     25  C   UNL     1      -3.796  12.328  19.728  0.00  0.00    +0.000 C 
BRANCH  25  26
ATOM     26  C   UNL     1      -4.368  13.420  20.633  0.00  0.00    +0.000 C 
BRANCH  26  27
ATOM     27  C   UNL     1      -4.935  12.831  21.924  0.00  0.00    +0.000 C 
BRANCH  27  28
ATOM     28  O   UNL     1      -3.889  12.304  22.740  0.00  0.00    +0.000 OA
BRANCH  28  29
ATOM     29  C   UNL     1      -4.052  12.559  24.142  0.00  0.00    +0.000 C 
ATOM     30  C   UNL     1      -3.453  13.905  24.541  0.00  0.00    +0.000 C 
ATOM     31  C   UNL     1      -5.550  12.566  24.449  0.00  0.00    +0.000 C 
ENDBRANCH  28  29
ENDBRANCH  27  28
ENDBRANCH  26  27
ENDBRANCH  25  26
ENDBRANCH  11  25
TORSDOF 9
ENDMDL
MODEL 5
REMARK VINA RESULT:      -6.3      2.410      8.407
REMARK  Name = 
REMARK  12 active torsions:
REMARK  status: ('A' for Active; 'I' for Inactive)
REMARK    1  A    between atoms: C_1  and  O_2
REMARK    2  A    between atoms: O_2  and  C_3
REMARK    3  A    between atoms: C_3  and  C_5
REMARK    4  A    between atoms: C_6  and  C_7
REMARK    5  A    between atoms: C_11  and  C_12
REMARK    6  A    between atoms: N_23  and  C_24
REMARK    7  A    between atoms: C_24  and  C_25
REMARK    8  A    between atoms: C_25  and  C_26
REMARK    9  A    between atoms: C_26  and  O_27
REMARK   10  A    between atoms: O_27  and  C_28
REMARK   11  A    between atoms: C_28  and  C_29
REMARK   12  A    between atoms: C_28  and  C_30
REMARK                            x       y       z     vdW  Elec       q    Type
REMARK                         _______ _______ _______ _____ _____    ______ ____
ROOT
ATOM      1  C   UNL     1       0.887  10.241  20.778  0.00  0.00    +0.000 C 
ATOM      2  C   UNL     1       1.203   9.530  19.665  0.00  0.00    +0.000 C 
ATOM      3  C   UNL     1       1.119  10.178  18.278  0.00  0.00    +0.000 C 
ATOM      4  C   UNL     1       0.808  11.692  18.355  0.00  0.00    +0.000 C 
ATOM      5  C   UNL     1       2.012  12.472  18.908  0.00  0.00    +0.000 C 
ATOM      6  C   UNL     1       1.778  12.536  20.428  0.00  0.00    +0.000 C 
ATOM      7  C   UNL     1       0.501  11.713  20.661  0.00  0.00    +0.000 C 
ATOM      8  N   UNL     1      -0.193  11.882  19.392  0.00  0.00    +0.000 N 
ATOM      9  C   UNL     1      -1.518  12.049  19.101  0.00  0.00    +0.000 C 
ATOM     10  O   UNL     1      -1.912  12.156  17.942  0.00  0.00    +0.000 OA
ATOM     11  N   UNL     1      -2.370  12.130  20.168  0.00  0.00    +0.000 N 
ATOM     12  H   UNL     1      -2.054  11.859  21.082  0.00  0.00    +0.000 HD
ENDROOT
BRANCH   2  13
ATOM     13  C   UNL     1       1.657   8.135  19.643  0.00  0.00    +0.000 A 
ATOM     14  C   UNL     1       1.283   7.251  20.666  0.00  0.00    +0.000 A 
ATOM     15  C   UNL     1       1.785   5.947  20.695  0.00  0.00    +0.000 A 
ATOM     16  C   UNL     1       2.658   5.516  19.696  0.00  0.00    +0.000 A 
ATOM     17  C   UNL     1       3.016   6.384  18.660  0.00  0.00    +0.000 A 
ATOM     18  C   UNL     1       2.515   7.690  18.632  0.00  0.00    +0.000 A 
BRANCH  17  19
ATOM     19  C   UNL     1       3.921   5.948  17.645  0.00  0.00    +0.000 C 
ATOM     20  N   UNL     1       4.661   5.578  16.825  0.00  0.00    +0.000 NA
ENDBRANCH  17  19
ENDBRANCH   2  13
BRANCH   1  21
ATOM     21  C   UNL     1       0.917   9.665  22.152  0.00  0.00    +0.000 C 
ATOM     22  O   UNL     1       1.919   9.505  22.830  0.00  0.00    +0.000 OA
BRANCH  21  24
ATOM     23  C   UNL     1      -1.028  10.328  23.267  0.00  0.00    +0.000 C 
ATOM     24  O   UNL     1      -0.341   9.315  22.529  0.00  0.00    +0.000 OA
ENDBRANCH  21  24
ENDBRANCH   1  21
BRANCH  11  25
ATOM     25  C   UNL     1      -3.791  12.390  19.986  0.00  0.00    +0.000 C 
BRANCH  25  26
ATOM     26  C   UNL     1      -4.454  12.970  21.236  0.00  0.00    +0.000 C 
BRANCH  26  27
ATOM     27  C   UNL     1      -5.976  12.853  21.162  0.00  0.00    +0.000 C 
BRANCH  27  28
ATOM     28  O   UNL     1      -6.369  11.491  20.989  0.00  0.00    +0.000 OA
BRANCH  28  29
ATOM     29  C   UNL     1      -7.315  11.281  19.932  0.00  0.00    +0.000 C 
ATOM     30  C   UNL     1      -7.520  12.548  19.104  0.00  0.00    +0.000 C 
ATOM     31  C   UNL     1      -6.775  10.174  19.028  0.00  0.00    +0.000 C 
ENDBRANCH  28  29
ENDBRANCH  27  28
ENDBRANCH  26  27
ENDBRANCH  25  26
ENDBRANCH  11  25
TORSDOF 9
ENDMDL
MODEL 6
REMARK VINA RESULT:      -6.3      3.490      6.662
REMARK  Name = 
REMARK  12 active torsions:
REMARK  status: ('A' for Active; 'I' for Inactive)
REMARK    1  A    between atoms: C_1  and  O_2
REMARK    2  A    between atoms: O_2  and  C_3
REMARK    3  A    between atoms: C_3  and  C_5
REMARK    4  A    between atoms: C_6  and  C_7
REMARK    5  A    between atoms: C_11  and  C_12
REMARK    6  A    between atoms: N_23  and  C_24
REMARK    7  A    between atoms: C_24  and  C_25
REMARK    8  A    between atoms: C_25  and  C_26
REMARK    9  A    between atoms: C_26  and  O_27
REMARK   10  A    between atoms: O_27  and  C_28
REMARK   11  A    between atoms: C_28  and  C_29
REMARK   12  A    between atoms: C_28  and  C_30
REMARK                            x       y       z     vdW  Elec       q    Type
REMARK                         _______ _______ _______ _____ _____    ______ ____
ROOT
ATOM      1  C   UNL     1      -0.238  12.380  20.646  0.00  0.00    +0.000 C 
ATOM      2  C   UNL     1      -0.732  12.551  19.392  0.00  0.00    +0.000 C 
ATOM      3  C   UNL     1      -0.357  13.790  18.571  0.00  0.00    +0.000 C 
ATOM      4  C   UNL     1       0.717  14.656  19.270  0.00  0.00    +0.000 C 
ATOM      5  C   UNL     1       2.082  13.947  19.266  0.00  0.00    +0.000 C 
ATOM      6  C   UNL     1       2.123  13.158  20.588  0.00  0.00    +0.000 C 
ATOM      7  C   UNL     1       0.744  13.395  21.225  0.00  0.00    +0.000 C 
ATOM      8  N   UNL     1       0.391  14.701  20.687  0.00  0.00    +0.000 N 
ATOM      9  C   UNL     1      -0.243  15.771  21.252  0.00  0.00    +0.000 C 
ATOM     10  O   UNL     1      -0.469  16.795  20.612  0.00  0.00    +0.000 OA
ATOM     11  N   UNL     1      -0.573  15.654  22.575  0.00  0.00    +0.000 N 
ATOM     12  H   UNL     1      -0.546  14.753  23.020  0.00  0.00    +0.000 HD
ENDROOT
BRANCH   2  13
ATOM     13  C   UNL     1      -1.624  11.620  18.691  0.00  0.00    +0.000 A 
ATOM     14  C   UNL     1      -1.095  10.582  17.910  0.00  0.00    +0.000 A 
ATOM     15  C   UNL     1      -1.939   9.749  17.172  0.00  0.00    +0.000 A 
ATOM     16  C   UNL     1      -3.320   9.942  17.219  0.00  0.00    +0.000 A 
ATOM     17  C   UNL     1      -3.856  10.959  18.014  0.00  0.00    +0.000 A 
ATOM     18  C   UNL     1      -3.010  11.794  18.751  0.00  0.00    +0.000 A 
BRANCH  17  19
ATOM     19  C   UNL     1      -5.268  11.166  18.050  0.00  0.00    +0.000 C 
ATOM     20  N   UNL     1      -6.423  11.321  18.073  0.00  0.00    +0.000 NA
ENDBRANCH  17  19
ENDBRANCH   2  13
BRANCH   1  21
ATOM     21  C   UNL     1      -0.587  11.218  21.510  0.00  0.00    +0.000 C 
ATOM     22  O   UNL     1      -1.422  11.223  22.400  0.00  0.00    +0.000 OA
BRANCH  21  24
ATOM     23  C   UNL     1       0.781   9.492  22.296  0.00  0.00    +0.000 C 
ATOM     24  O   UNL     1       0.188  10.152  21.176  0.00  0.00    +0.000 OA
ENDBRANCH  21  24
ENDBRANCH   1  21
BRANCH  11  25
ATOM     25  C   UNL     1      -1.176  16.758  23.308  0.00  0.00    +0.000 C 
BRANCH  25  26
ATOM     26  C   UNL     1      -2.691  16.618  23.457  0.00  0.00    +0.000 C 
BRANCH  26  27
ATOM     27  C   UNL     1      -3.057  15.343  24.217  0.00  0.00    +0.000 C 
BRANCH  27  28
ATOM     28  O   UNL     1      -3.070  14.218  23.338  0.00  0.00    +0.000 OA
BRANCH  28  29
ATOM     29  C   UNL     1      -4.302  13.485  23.340  0.00  0.00    +0.000 C 
ATOM     30  C   UNL     1      -4.521  12.752  22.018  0.00  0.00    +0.000 C 
ATOM     31  C   UNL     1      -4.242  12.463  24.475  0.00  0.00    +0.000 C 
ENDBRANCH  28  29
ENDBRANCH  27  28
ENDBRANCH  26  27
ENDBRANCH  25  26
ENDBRANCH  11  25
TORSDOF 9
ENDMDL
MODEL 7
REMARK VINA RESULT:      -6.2      3.298      5.316
REMARK  Name = 
REMARK  12 active torsions:
REMARK  status: ('A' for Active; 'I' for Inactive)
REMARK    1  A    between atoms: C_1  and  O_2
REMARK    2  A    between atoms: O_2  and  C_3
REMARK    3  A    between atoms: C_3  and  C_5
REMARK    4  A    between atoms: C_6  and  C_7
REMARK    5  A    between atoms: C_11  and  C_12
REMARK    6  A    between atoms: N_23  and  C_24
REMARK    7  A    between atoms: C_24  and  C_25
REMARK    8  A    between atoms: C_25  and  C_26
REMARK    9  A    between atoms: C_26  and  O_27
REMARK   10  A    between atoms: O_27  and  C_28
REMARK   11  A    between atoms: C_28  and  C_29
REMARK   12  A    between atoms: C_28  and  C_30
REMARK                            x       y       z     vdW  Elec       q    Type
REMARK                         _______ _______ _______ _____ _____    ______ ____
ROOT
ATOM      1  C   UNL     1       0.790  10.173  19.826  0.00  0.00    +0.000 C 
ATOM      2  C   UNL     1      -0.524   9.836  19.744  0.00  0.00    +0.000 C 
ATOM      3  C   UNL     1      -1.093   8.712  20.617  0.00  0.00    +0.000 C 
ATOM      4  C   UNL     1      -0.062   8.183  21.641  0.00  0.00    +0.000 C 
ATOM      5  C   UNL     1       0.204   9.224  22.741  0.00  0.00    +0.000 C 
ATOM      6  C   UNL     1       1.406  10.040  22.231  0.00  0.00    +0.000 C 
ATOM      7  C   UNL     1       1.698   9.473  20.833  0.00  0.00    +0.000 C 
ATOM      8  N   UNL     1       1.224   8.102  20.967  0.00  0.00    +0.000 N 
ATOM      9  C   UNL     1       1.719   6.923  20.486  0.00  0.00    +0.000 C 
ATOM     10  O   UNL     1       1.151   5.854  20.697  0.00  0.00    +0.000 OA
ATOM     11  N   UNL     1       2.897   6.994  19.794  0.00  0.00    +0.000 N 
ATOM     12  H   UNL     1       3.241   7.885  19.481  0.00  0.00    +0.000 HD
ENDROOT
BRANCH   2  13
ATOM     13  C   UNL     1      -1.516  10.477  18.874  0.00  0.00    +0.000 A 
ATOM     14  C   UNL     1      -2.433  11.399  19.402  0.00  0.00    +0.000 A 
ATOM     15  C   UNL     1      -3.434  11.944  18.594  0.00  0.00    +0.000 A 
ATOM     16  C   UNL     1      -3.521  11.576  17.251  0.00  0.00    +0.000 A 
ATOM     17  C   UNL     1      -2.597  10.676  16.713  0.00  0.00    +0.000 A 
ATOM     18  C   UNL     1      -1.595  10.130  17.522  0.00  0.00    +0.000 A 
BRANCH  17  19
ATOM     19  C   UNL     1      -2.694  10.288  15.342  0.00  0.00    +0.000 C 
ATOM     20  N   UNL     1      -2.758   9.966  14.224  0.00  0.00    +0.000 NA
ENDBRANCH  17  19
ENDBRANCH   2  13
BRANCH   1  21
ATOM     21  C   UNL     1       1.416  11.233  18.986  0.00  0.00    +0.000 C 
ATOM     22  O   UNL     1       2.075  11.038  17.977  0.00  0.00    +0.000 OA
BRANCH  21  24
ATOM     23  C   UNL     1       1.795  13.535  18.837  0.00  0.00    +0.000 C 
ATOM     24  O   UNL     1       1.164  12.454  19.527  0.00  0.00    +0.000 OA
ENDBRANCH  21  24
ENDBRANCH   1  21
BRANCH  11  25
ATOM     25  C   UNL     1       3.564   5.796  19.306  0.00  0.00    +0.000 C 
BRANCH  25  26
ATOM     26  C   UNL     1       3.638   5.736  17.780  0.00  0.00    +0.000 C 
BRANCH  26  27
ATOM     27  C   UNL     1       4.774   6.608  17.245  0.00  0.00    +0.000 C 
BRANCH  27  28
ATOM     28  O   UNL     1       5.662   5.839  16.434  0.00  0.00    +0.000 OA
BRANCH  28  29
ATOM     29  C   UNL     1       7.038   5.926  16.824  0.00  0.00    +0.000 C 
ATOM     30  C   UNL     1       7.333   7.236  17.552  0.00  0.00    +0.000 C 
ATOM     31  C   UNL     1       7.339   4.755  17.759  0.00  0.00    +0.000 C 
ENDBRANCH  28  29
ENDBRANCH  27  28
ENDBRANCH  26  27
ENDBRANCH  25  26
ENDBRANCH  11  25
TORSDOF 9
ENDMDL
MODEL 8
REMARK VINA RESULT:      -6.2      1.495      1.981
REMARK  Name = 
REMARK  12 active torsions:
REMARK  status: ('A' for Active; 'I' for Inactive)
REMARK    1  A    between atoms: C_1  and  O_2
REMARK    2  A    between atoms: O_2  and  C_3
REMARK    3  A    between atoms: C_3  and  C_5
REMARK    4  A    between atoms: C_6  and  C_7
REMARK    5  A    between atoms: C_11  and  C_12
REMARK    6  A    between atoms: N_23  and  C_24
REMARK    7  A    between atoms: C_24  and  C_25
REMARK    8  A    between atoms: C_25  and  C_26
REMARK    9  A    between atoms: C_26  and  O_27
REMARK   10  A    between atoms: O_27  and  C_28
REMARK   11  A    between atoms: C_28  and  C_29
REMARK   12  A    between atoms: C_28  and  C_30
REMARK                            x       y       z     vdW  Elec       q    Type
REMARK                         _______ _______ _______ _____ _____    ______ ____
ROOT
ATOM      1  C   UNL     1      -1.511  11.399  19.126  0.00  0.00    +0.000 C 
ATOM      2  C   UNL     1      -2.011  12.078  20.192  0.00  0.00    +0.000 C 
ATOM      3  C   UNL     1      -1.078  12.595  21.292  0.00  0.00    +0.000 C 
ATOM      4  C   UNL     1       0.415  12.388  20.941  0.00  0.00    +0.000 C 
ATOM      5  C   UNL     1       0.847  13.328  19.804  0.00  0.00    +0.000 C 
ATOM      6  C   UNL     1       0.623  12.517  18.514  0.00  0.00    +0.000 C 
ATOM      7  C   UNL     1      -0.005  11.197  18.988  0.00  0.00    +0.000 C 
ATOM      8  N   UNL     1       0.544  11.074  20.331  0.00  0.00    +0.000 N 
ATOM      9  C   UNL     1       0.988   9.989  21.032  0.00  0.00    +0.000 C 
ATOM     10  O   UNL     1       1.404  10.093  22.183  0.00  0.00    +0.000 OA
ATOM     11  N   UNL     1       0.980   8.792  20.368  0.00  0.00    +0.000 N 
ATOM     12  H   UNL     1       0.472   8.700  19.507  0.00  0.00    +0.000 HD
ENDROOT
BRANCH   2  13
ATOM     13  C   UNL     1      -3.426  12.403  20.409  0.00  0.00    +0.000 A 
ATOM     14  C   UNL     1      -3.914  12.614  21.707  0.00  0.00    +0.000 A 
ATOM     15  C   UNL     1      -5.276  12.837  21.924  0.00  0.00    +0.000 A 
ATOM     16  C   UNL     1      -6.158  12.859  20.843  0.00  0.00    +0.000 A 
ATOM     17  C   UNL     1      -5.675  12.673  19.544  0.00  0.00    +0.000 A 
ATOM     18  C   UNL     1      -4.311  12.449  19.328  0.00  0.00    +0.000 A 
BRANCH  17  19
ATOM     19  C   UNL     1      -6.579  12.681  18.440  0.00  0.00    +0.000 C 
ATOM     20  N   UNL     1      -7.329  12.683  17.548  0.00  0.00    +0.000 NA
ENDBRANCH  17  19
ENDBRANCH   2  13
BRANCH   1  21
ATOM     21  C   UNL     1      -2.364  10.842  18.039  0.00  0.00    +0.000 C 
ATOM     22  O   UNL     1      -3.011   9.809  18.106  0.00  0.00    +0.000 OA
BRANCH  21  24
ATOM     23  C   UNL     1      -2.780  11.038  15.747  0.00  0.00    +0.000 C 
ATOM     24  O   UNL     1      -2.293  11.645  16.945  0.00  0.00    +0.000 OA
ENDBRANCH  21  24
ENDBRANCH   1  21
BRANCH  11  25
ATOM     25  C   UNL     1       1.507   7.581  20.982  0.00  0.00    +0.000 C 
BRANCH  25  26
ATOM     26  C   UNL     1       2.312   6.722  20.006  0.00  0.00    +0.000 C 
BRANCH  26  27
ATOM     27  C   UNL     1       2.347   5.260  20.453  0.00  0.00    +0.000 C 
BRANCH  27  28
ATOM     28  O   UNL     1       1.026   4.726  20.533  0.00  0.00    +0.000 OA
BRANCH  28  29
ATOM     29  C   UNL     1       0.977   3.300  20.676  0.00  0.00    +0.000 C 
ATOM     30  C   UNL     1       1.020   2.598  19.321  0.00  0.00    +0.000 C 
ATOM     31  C   UNL     1       2.186   2.866  21.504  0.00  0.00    +0.000 C 
ENDBRANCH  28  29
ENDBRANCH  27  28
ENDBRANCH  26  27
ENDBRANCH  25  26
ENDBRANCH  11  25
TORSDOF 9
ENDMDL
MODEL 9
REMARK VINA RESULT:      -6.1      1.703      2.027
REMARK  Name = 
REMARK  12 active torsions:
REMARK  status: ('A' for Active; 'I' for Inactive)
REMARK    1  A    between atoms: C_1  and  O_2
REMARK    2  A    between atoms: O_2  and  C_3
REMARK    3  A    between atoms: C_3  and  C_5
REMARK    4  A    between atoms: C_6  and  C_7
REMARK    5  A    between atoms: C_11  and  C_12
REMARK    6  A    between atoms: N_23  and  C_24
REMARK    7  A    between atoms: C_24  and  C_25
REMARK    8  A    between atoms: C_25  and  C_26
REMARK    9  A    between atoms: C_26  and  O_27
REMARK   10  A    between atoms: O_27  and  C_28
REMARK   11  A    between atoms: C_28  and  C_29
REMARK   12  A    between atoms: C_28  and  C_30
REMARK                            x       y       z     vdW  Elec       q    Type
REMARK                         _______ _______ _______ _____ _____    ______ ____
ROOT
ATOM      1  C   UNL     1      -2.064  11.450  18.316  0.00  0.00    +0.000 C 
ATOM      2  C   UNL     1      -3.063  11.978  19.072  0.00  0.00    +0.000 C 
ATOM      3  C   UNL     1      -2.739  12.781  20.336  0.00  0.00    +0.000 C 
ATOM      4  C   UNL     1      -1.221  13.021  20.508  0.00  0.00    +0.000 C 
ATOM      5  C   UNL     1      -0.701  14.016  19.457  0.00  0.00    +0.000 C 
ATOM      6  C   UNL     1      -0.240  13.140  18.277  0.00  0.00    +0.000 C 
ATOM      7  C   UNL     1      -0.607  11.706  18.690  0.00  0.00    +0.000 C 
ATOM      8  N   UNL     1      -0.537  11.791  20.142  0.00  0.00    +0.000 N 
ATOM      9  C   UNL     1      -0.081  10.907  21.079  0.00  0.00    +0.000 C 
ATOM     10  O   UNL     1      -0.128  11.164  22.280  0.00  0.00    +0.000 OA
ATOM     11  N   UNL     1       0.465   9.746  20.606  0.00  0.00    +0.000 N 
ATOM     12  H   UNL     1       0.327   9.482  19.646  0.00  0.00    +0.000 HD
ENDROOT
BRANCH   2  13
ATOM     13  C   UNL     1      -4.498  11.870  18.786  0.00  0.00    +0.000 A 
ATOM     14  C   UNL     1      -5.172  10.656  18.986  0.00  0.00    +0.000 A 
ATOM     15  C   UNL     1      -6.517  10.526  18.632  0.00  0.00    +0.000 A 
ATOM     16  C   UNL     1      -7.200  11.612  18.083  0.00  0.00    +0.000 A 
ATOM     17  C   UNL     1      -6.541  12.832  17.903  0.00  0.00    +0.000 A 
ATOM     18  C   UNL     1      -5.193  12.961  18.256  0.00  0.00    +0.000 A 
BRANCH  17  19
ATOM     19  C   UNL     1      -7.235  13.939  17.327  0.00  0.00    +0.000 C 
ATOM     20  N   UNL     1      -7.793  14.852  16.868  0.00  0.00    +0.000 NA
ENDBRANCH  17  19
ENDBRANCH   2  13
BRANCH   1  21
ATOM     21  C   UNL     1      -2.308  10.634  17.094  0.00  0.00    +0.000 C 
ATOM     22  O   UNL     1      -2.161   9.425  17.010  0.00  0.00    +0.000 OA
BRANCH  21  24
ATOM     23  C   UNL     1      -3.359  10.758  15.009  0.00  0.00    +0.000 C 
ATOM     24  O   UNL     1      -2.695  11.443  16.073  0.00  0.00    +0.000 OA
ENDBRANCH  21  24
ENDBRANCH   1  21
BRANCH  11  25
ATOM     25  C   UNL     1       1.061   8.766  21.503  0.00  0.00    +0.000 C 
BRANCH  25  26
ATOM     26  C   UNL     1       1.670   7.574  20.764  0.00  0.00    +0.000 C 
BRANCH  26  27
ATOM     27  C   UNL     1       2.064   7.951  19.336  0.00  0.00    +0.000 C 
BRANCH  27  28
ATOM     28  O   UNL     1       2.451   6.792  18.597  0.00  0.00    +0.000 OA
BRANCH  28  29
ATOM     29  C   UNL     1       2.637   5.618  19.399  0.00  0.00    +0.000 C 
ATOM     30  C   UNL     1       1.905   4.414  18.811  0.00  0.00    +0.000 C 
ATOM     31  C   UNL     1       4.134   5.317  19.454  0.00  0.00    +0.000 C 
ENDBRANCH  28  29
ENDBRANCH  27  28
ENDBRANCH  26  27
ENDBRANCH  25  26
ENDBRANCH  11  25
TORSDOF 9
ENDMDL
