MODEL 1
REMARK VINA RESULT:      -7.5      0.000      0.000
REMARK  Name = 
REMARK  8 active torsions:
REMARK  status: ('A' for Active; 'I' for Inactive)
REMARK    1  A    between atoms: P_2  and  O_3
REMARK    2  A    between atoms: P_2  and  O_4
REMARK    3  A    between atoms: P_2  and  C_5
REMARK    4  A    between atoms: C_5  and  O_6
REMARK    5  A    between atoms: O_6  and  C_7
REMARK    6  A    between atoms: C_12  and  P_13
REMARK    7  A    between atoms: P_13  and  C_15
REMARK    8  A    between atoms: P_13  and  C_21
REMARK                            x       y       z     vdW  Elec       q    Type
REMARK                         _______ _______ _______ _____ _____    ______ ____
ROOT
ATOM      1  C   UNL     1       3.262   4.889  17.592  0.00  0.00    +0.000 A 
ATOM      2  C   UNL     1       2.445   5.199  18.688  0.00  0.00    +0.000 A 
ATOM      3  C   UNL     1       2.444   6.486  19.225  0.00  0.00    +0.000 A 
ATOM      4  C   UNL     1       3.250   7.478  18.673  0.00  0.00    +0.000 A 
ATOM      5  C   UNL     1       4.077   7.172  17.589  0.00  0.00    +0.000 A 
ATOM      6  C   UNL     1       4.136   5.868  17.060  0.00  0.00    +0.000 A 
ENDROOT
BRANCH   6   7
ATOM      7  P   UNL     1       5.188   5.345  15.658  0.00  0.00    +0.000 P 
ATOM      8  O   UNL     1       4.883   6.679  14.920  0.00  0.00    +0.000 OA
BRANCH   7   9
ATOM      9  C   UNL     1       6.720   5.572  16.910  0.00  0.00    +0.000 A 
ATOM     10  C   UNL     1       6.901   4.625  17.940  0.00  0.00    +0.000 A 
ATOM     11  C   UNL     1       7.582   5.001  19.104  0.00  0.00    +0.000 A 
ATOM     12  C   UNL     1       8.065   6.302  19.257  0.00  0.00    +0.000 A 
ATOM     13  C   UNL     1       7.960   7.212  18.204  0.00  0.00    +0.000 A 
ATOM     14  C   UNL     1       7.323   6.839  17.018  0.00  0.00    +0.000 A 
ENDBRANCH   7   9
BRANCH   7  15
ATOM     15  C   UNL     1       6.241   4.821  14.256  0.00  0.00    +0.000 A 
ATOM     16  C   UNL     1       7.417   5.489  13.882  0.00  0.00    +0.000 A 
ATOM     17  C   UNL     1       8.072   5.158  12.694  0.00  0.00    +0.000 A 
ATOM     18  C   UNL     1       7.566   4.151  11.874  0.00  0.00    +0.000 A 
ATOM     19  C   UNL     1       6.405   3.471  12.239  0.00  0.00    +0.000 A 
ATOM     20  C   UNL     1       5.744   3.805  13.422  0.00  0.00    +0.000 A 
ENDBRANCH   7  15
ENDBRANCH   6   7
BRANCH   1  21
ATOM     21  O   UNL     1       3.295   3.632  17.026  0.00  0.00    +0.000 OA
BRANCH  21  22
ATOM     22  C   UNL     1       2.771   2.571  17.864  0.00  0.00    +0.000 C 
BRANCH  22  24
ATOM     23  O   UNL     1       5.069   2.055  20.287  0.00  0.00    +0.000 OA
ATOM     24  P   UNL     1       4.015   2.292  19.176  0.00  0.00    +0.000 P 
BRANCH  24  25
ATOM     25  O   UNL     1       4.152   0.736  18.655  0.00  0.00    +0.000 OA
ATOM     26  H   UNL     1       4.365   0.182  19.434  0.00  0.00    +0.000 HD
ENDBRANCH  24  25
BRANCH  24  27
ATOM     27  O   UNL     1       2.774   2.033  20.222  0.00  0.00    +0.000 OA
ATOM     28  H   UNL     1       2.022   2.589  19.932  0.00  0.00    +0.000 HD
ENDBRANCH  24  27
ENDBRANCH  22  24
ENDBRANCH  21  22
ENDBRANCH   1  21
TORSDOF 8
ENDMDL
MODEL 2
REMARK VINA RESULT:      -7.1      1.042      1.416
REMARK  Name = 
REMARK  8 active torsions:
REMARK  status: ('A' for Active; 'I' for Inactive)
REMARK    1  A    between atoms: P_2  and  O_3
REMARK    2  A    between atoms: P_2  and  O_4
REMARK    3  A    between atoms: P_2  and  C_5
REMARK    4  A    between atoms: C_5  and  O_6
REMARK    5  A    between atoms: O_6  and  C_7
REMARK    6  A    between atoms: C_12  and  P_13
REMARK    7  A    between atoms: P_13  and  C_15
REMARK    8  A    between atoms: P_13  and  C_21
REMARK                            x       y       z     vdW  Elec       q    Type
REMARK                         _______ _______ _______ _____ _____    ______ ____
ROOT
ATOM      1  C   UNL     1       3.753   5.110  18.142  0.00  0.00    +0.000 A 
ATOM      2  C   UNL     1       3.031   5.512  19.274  0.00  0.00    +0.000 A 
ATOM      3  C   UNL     1       2.697   6.853  19.457  0.00  0.00    +0.000 A 
ATOM      4  C   UNL     1       3.072   7.806  18.514  0.00  0.00    +0.000 A 
ATOM      5  C   UNL     1       3.804   7.414  17.390  0.00  0.00    +0.000 A 
ATOM      6  C   UNL     1       4.198   6.075  17.206  0.00  0.00    +0.000 A 
ENDROOT
BRANCH   6   7
ATOM      7  P   UNL     1       5.169   5.446  15.788  0.00  0.00    +0.000 P 
ATOM      8  O   UNL     1       4.831   6.729  14.978  0.00  0.00    +0.000 OA
BRANCH   7   9
ATOM      9  C   UNL     1       6.769   5.744  16.936  0.00  0.00    +0.000 A 
ATOM     10  C   UNL     1       7.147   4.736  17.847  0.00  0.00    +0.000 A 
ATOM     11  C   UNL     1       7.881   5.084  18.988  0.00  0.00    +0.000 A 
ATOM     12  C   UNL     1       8.222   6.415  19.235  0.00  0.00    +0.000 A 
ATOM     13  C   UNL     1       7.920   7.398  18.292  0.00  0.00    +0.000 A 
ATOM     14  C   UNL     1       7.228   7.060  17.127  0.00  0.00    +0.000 A 
ENDBRANCH   7   9
BRANCH   7  15
ATOM     15  C   UNL     1       6.140   4.818  14.370  0.00  0.00    +0.000 A 
ATOM     16  C   UNL     1       7.342   5.399  13.940  0.00  0.00    +0.000 A 
ATOM     17  C   UNL     1       7.935   4.994  12.743  0.00  0.00    +0.000 A 
ATOM     18  C   UNL     1       7.340   3.997  11.969  0.00  0.00    +0.000 A 
ATOM     19  C   UNL     1       6.152   3.404  12.391  0.00  0.00    +0.000 A 
ATOM     20  C   UNL     1       5.552   3.812  13.584  0.00  0.00    +0.000 A 
ENDBRANCH   7  15
ENDBRANCH   6   7
BRANCH   1  21
ATOM     21  O   UNL     1       4.103   3.795  17.917  0.00  0.00    +0.000 OA
BRANCH  21  22
ATOM     22  C   UNL     1       3.661   2.862  18.934  0.00  0.00    +0.000 C 
BRANCH  22  24
ATOM     23  O   UNL     1       0.354   2.397  18.421  0.00  0.00    +0.000 OA
ATOM     24  P   UNL     1       1.870   2.611  18.657  0.00  0.00    +0.000 P 
BRANCH  24  25
ATOM     25  O   UNL     1       2.067   1.037  19.099  0.00  0.00    +0.000 OA
ATOM     26  H   UNL     1       3.026   0.841  19.069  0.00  0.00    +0.000 HD
ENDBRANCH  24  25
BRANCH  24  27
ATOM     27  O   UNL     1       2.203   2.402  17.061  0.00  0.00    +0.000 OA
ATOM     28  H   UNL     1       3.125   2.696  16.909  0.00  0.00    +0.000 HD
ENDBRANCH  24  27
ENDBRANCH  22  24
ENDBRANCH  21  22
ENDBRANCH   1  21
TORSDOF 8
ENDMDL
MODEL 3
REMARK VINA RESULT:      -6.9      3.172      6.883
REMARK  Name = 
REMARK  8 active torsions:
REMARK  status: ('A' for Active; 'I' for Inactive)
REMARK    1  A    between atoms: P_2  and  O_3
REMARK    2  A    between atoms: P_2  and  O_4
REMARK    3  A    between atoms: P_2  and  C_5
REMARK    4  A    between atoms: C_5  and  O_6
REMARK    5  A    between atoms: O_6  and  C_7
REMARK    6  A    between atoms: C_12  and  P_13
REMARK    7  A    between atoms: P_13  and  C_15
REMARK    8  A    between atoms: P_13  and  C_21
REMARK                            x       y       z     vdW  Elec       q    Type
REMARK                         _______ _______ _______ _____ _____    ______ ____
ROOT
ATOM      1  C   UNL     1       4.723   5.371  17.219  0.00  0.00    +0.000 A 
ATOM      2  C   UNL     1       5.360   4.362  16.483  0.00  0.00    +0.000 A 
ATOM      3  C   UNL     1       4.708   3.157  16.227  0.00  0.00    +0.000 A 
ATOM      4  C   UNL     1       3.413   2.946  16.694  0.00  0.00    +0.000 A 
ATOM      5  C   UNL     1       2.777   3.942  17.439  0.00  0.00    +0.000 A 
ATOM      6  C   UNL     1       3.432   5.147  17.756  0.00  0.00    +0.000 A 
ENDROOT
BRANCH   6   7
ATOM      7  P   UNL     1       2.710   6.514  18.736  0.00  0.00    +0.000 P 
ATOM      8  O   UNL     1       1.601   6.708  17.663  0.00  0.00    +0.000 OA
BRANCH   7   9
ATOM      9  C   UNL     1       2.182   5.107  20.042  0.00  0.00    +0.000 A 
ATOM     10  C   UNL     1       3.194   4.369  20.691  0.00  0.00    +0.000 A 
ATOM     11  C   UNL     1       2.905   3.086  21.172  0.00  0.00    +0.000 A 
ATOM     12  C   UNL     1       1.635   2.532  21.000  0.00  0.00    +0.000 A 
ATOM     13  C   UNL     1       0.613   3.295  20.435  0.00  0.00    +0.000 A 
ATOM     14  C   UNL     1       0.873   4.593  19.990  0.00  0.00    +0.000 A 
ENDBRANCH   7   9
BRANCH   7  15
ATOM     15  C   UNL     1       1.989   7.881  19.715  0.00  0.00    +0.000 A 
ATOM     16  C   UNL     1       1.688   7.776  21.082  0.00  0.00    +0.000 A 
ATOM     17  C   UNL     1       0.967   8.782  21.727  0.00  0.00    +0.000 A 
ATOM     18  C   UNL     1       0.549   9.908  21.018  0.00  0.00    +0.000 A 
ATOM     19  C   UNL     1       0.852  10.031  19.663  0.00  0.00    +0.000 A 
ATOM     20  C   UNL     1       1.566   9.022  19.013  0.00  0.00    +0.000 A 
ENDBRANCH   7  15
ENDBRANCH   6   7
BRANCH   1  21
ATOM     21  O   UNL     1       5.327   6.579  17.494  0.00  0.00    +0.000 OA
BRANCH  21  22
ATOM     22  C   UNL     1       6.777   6.556  17.478  0.00  0.00    +0.000 C 
BRANCH  22  24
ATOM     23  O   UNL     1       7.737   5.280  20.455  0.00  0.00    +0.000 OA
ATOM     24  P   UNL     1       7.297   5.865  19.090  0.00  0.00    +0.000 P 
BRANCH  24  25
ATOM     25  O   UNL     1       8.539   6.946  19.103  0.00  0.00    +0.000 OA
ATOM     26  H   UNL     1       9.258   6.560  19.645  0.00  0.00    +0.000 HD
ENDBRANCH  24  25
BRANCH  24  27
ATOM     27  O   UNL     1       8.085   4.681  18.266  0.00  0.00    +0.000 OA
ATOM     28  H   UNL     1       7.468   4.325  17.595  0.00  0.00    +0.000 HD
ENDBRANCH  24  27
ENDBRANCH  22  24
ENDBRANCH  21  22
ENDBRANCH   1  21
TORSDOF 8
ENDMDL
MODEL 4
REMARK VINA RESULT:      -6.8      9.343     11.037
REMARK  Name = 
REMARK  8 active torsions:
REMARK  status: ('A' for Active; 'I' for Inactive)
REMARK    1  A    between atoms: P_2  and  O_3
REMARK    2  A    between atoms: P_2  and  O_4
REMARK    3  A    between atoms: P_2  and  C_5
REMARK    4  A    between atoms: C_5  and  O_6
REMARK    5  A    between atoms: O_6  and  C_7
REMARK    6  A    between atoms: C_12  and  P_13
REMARK    7  A    between atoms: P_13  and  C_15
REMARK    8  A    between atoms: P_13  and  C_21
REMARK                            x       y       z     vdW  Elec       q    Type
REMARK                         _______ _______ _______ _____ _____    ______ ____
ROOT
ATOM      1  C   UNL     1      -3.687  11.909  18.933  0.00  0.00    +0.000 A 
ATOM      2  C   UNL     1      -5.058  11.620  18.967  0.00  0.00    +0.000 A 
ATOM      3  C   UNL     1      -5.849  12.076  20.021  0.00  0.00    +0.000 A 
ATOM      4  C   UNL     1      -5.286  12.829  21.048  0.00  0.00    +0.000 A 
ATOM      5  C   UNL     1      -3.917  13.108  21.027  0.00  0.00    +0.000 A 
ATOM      6  C   UNL     1      -3.086  12.617  20.002  0.00  0.00    +0.000 A 
ENDROOT
BRANCH   6   7
ATOM      7  P   UNL     1      -1.283  12.903  19.877  0.00  0.00    +0.000 P 
ATOM      8  O   UNL     1      -1.404  14.134  20.818  0.00  0.00    +0.000 OA
BRANCH   7   9
ATOM      9  C   UNL     1      -1.090  11.228  20.936  0.00  0.00    +0.000 A 
ATOM     10  C   UNL     1      -1.215  11.294  22.340  0.00  0.00    +0.000 A 
ATOM     11  C   UNL     1      -0.591  10.321  23.130  0.00  0.00    +0.000 A 
ATOM     12  C   UNL     1       0.164   9.305  22.541  0.00  0.00    +0.000 A 
ATOM     13  C   UNL     1       0.217   9.192  21.152  0.00  0.00    +0.000 A 
ATOM     14  C   UNL     1      -0.438  10.128  20.348  0.00  0.00    +0.000 A 
ENDBRANCH   7   9
BRANCH   7  15
ATOM     15  C   UNL     1       0.520  13.189  19.751  0.00  0.00    +0.000 A 
ATOM     16  C   UNL     1       1.341  13.439  20.862  0.00  0.00    +0.000 A 
ATOM     17  C   UNL     1       2.668  13.835  20.686  0.00  0.00    +0.000 A 
ATOM     18  C   UNL     1       3.192  13.975  19.401  0.00  0.00    +0.000 A 
ATOM     19  C   UNL     1       2.391  13.718  18.289  0.00  0.00    +0.000 A 
ATOM     20  C   UNL     1       1.061  13.329  18.462  0.00  0.00    +0.000 A 
ENDBRANCH   7  15
ENDBRANCH   6   7
BRANCH   1  21
ATOM     21  O   UNL     1      -2.867  11.482  17.911  0.00  0.00    +0.000 OA
BRANCH  21  22
ATOM     22  C   UNL     1      -3.092  10.117  17.475  0.00  0.00    +0.000 C 
BRANCH  22  24
ATOM     23  O   UNL     1      -2.753  10.129  14.114  0.00  0.00    +0.000 OA
ATOM     24  P   UNL     1      -2.908  10.123  15.655  0.00  0.00    +0.000 P 
BRANCH  24  25
ATOM     25  O   UNL     1      -2.176  11.593  15.777  0.00  0.00    +0.000 OA
ATOM     26  H   UNL     1      -2.700  12.131  16.405  0.00  0.00    +0.000 HD
ENDBRANCH  24  25
BRANCH  24  27
ATOM     27  O   UNL     1      -4.449  10.687  15.556  0.00  0.00    +0.000 OA
ATOM     28  H   UNL     1      -4.890  10.495  16.409  0.00  0.00    +0.000 HD
ENDBRANCH  24  27
ENDBRANCH  22  24
ENDBRANCH  21  22
ENDBRANCH   1  21
TORSDOF 8
ENDMDL
MODEL 5
REMARK VINA RESULT:      -6.5      3.212      5.692
REMARK  Name = 
REMARK  8 active torsions:
REMARK  status: ('A' for Active; 'I' for Inactive)
REMARK    1  A    between atoms: P_2  and  O_3
REMARK    2  A    between atoms: P_2  and  O_4
REMARK    3  A    between atoms: P_2  and  C_5
REMARK    4  A    between atoms: C_5  and  O_6
REMARK    5  A    between atoms: O_6  and  C_7
REMARK    6  A    between atoms: C_12  and  P_13
REMARK    7  A    between atoms: P_13  and  C_15
REMARK    8  A    between atoms: P_13  and  C_21
REMARK                            x       y       z     vdW  Elec       q    Type
REMARK                         _______ _______ _______ _____ _____    ______ ____
ROOT
ATOM      1  C   UNL     1       2.456   7.501  19.160  0.00  0.00    +0.000 A 
ATOM      2  C   UNL     1       1.573   7.877  20.181  0.00  0.00    +0.000 A 
ATOM      3  C   UNL     1       1.245   6.980  21.197  0.00  0.00    +0.000 A 
ATOM      4  C   UNL     1       1.798   5.702  21.211  0.00  0.00    +0.000 A 
ATOM      5  C   UNL     1       2.668   5.316  20.188  0.00  0.00    +0.000 A 
ATOM      6  C   UNL     1       2.975   6.184  19.123  0.00  0.00    +0.000 A 
ENDROOT
BRANCH   6   7
ATOM      7  P   UNL     1       4.085   5.785  17.724  0.00  0.00    +0.000 P 
ATOM      8  O   UNL     1       5.304   5.754  18.688  0.00  0.00    +0.000 OA
BRANCH   7   9
ATOM      9  C   UNL     1       3.171   4.016  17.692  0.00  0.00    +0.000 A 
ATOM     10  C   UNL     1       1.761   3.980  17.697  0.00  0.00    +0.000 A 
ATOM     11  C   UNL     1       1.107   2.846  18.195  0.00  0.00    +0.000 A 
ATOM     12  C   UNL     1       1.837   1.768  18.698  0.00  0.00    +0.000 A 
ATOM     13  C   UNL     1       3.229   1.770  18.614  0.00  0.00    +0.000 A 
ATOM     14  C   UNL     1       3.897   2.874  18.078  0.00  0.00    +0.000 A 
ENDBRANCH   7   9
BRANCH   7  15
ATOM     15  C   UNL     1       5.194   5.386  16.324  0.00  0.00    +0.000 A 
ATOM     16  C   UNL     1       4.772   4.695  15.178  0.00  0.00    +0.000 A 
ATOM     17  C   UNL     1       5.703   4.256  14.234  0.00  0.00    +0.000 A 
ATOM     18  C   UNL     1       7.061   4.512  14.419  0.00  0.00    +0.000 A 
ATOM     19  C   UNL     1       7.492   5.208  15.547  0.00  0.00    +0.000 A 
ATOM     20  C   UNL     1       6.565   5.642  16.497  0.00  0.00    +0.000 A 
ENDBRANCH   7  15
ENDBRANCH   6   7
BRANCH   1  21
ATOM     21  O   UNL     1       2.811   8.354  18.137  0.00  0.00    +0.000 OA
BRANCH  21  22
ATOM     22  C   UNL     1       1.727   9.157  17.606  0.00  0.00    +0.000 C 
BRANCH  22  24
ATOM     23  O   UNL     1       1.833  12.104  19.254  0.00  0.00    +0.000 OA
ATOM     24  P   UNL     1       1.784  10.753  18.499  0.00  0.00    +0.000 P 
BRANCH  24  25
ATOM     25  O   UNL     1       0.257  11.057  17.963  0.00  0.00    +0.000 OA
ATOM     26  H   UNL     1      -0.103  11.789  18.504  0.00  0.00    +0.000 HD
ENDBRANCH  24  25
BRANCH  24  27
ATOM     27  O   UNL     1       2.570  11.387  17.202  0.00  0.00    +0.000 OA
ATOM     28  H   UNL     1       1.964  11.335  16.434  0.00  0.00    +0.000 HD
ENDBRANCH  24  27
ENDBRANCH  22  24
ENDBRANCH  21  22
ENDBRANCH   1  21
TORSDOF 8
ENDMDL
MODEL 6
REMARK VINA RESULT:      -6.5      9.471     11.430
REMARK  Name = 
REMARK  8 active torsions:
REMARK  status: ('A' for Active; 'I' for Inactive)
REMARK    1  A    between atoms: P_2  and  O_3
REMARK    2  A    between atoms: P_2  and  O_4
REMARK    3  A    between atoms: P_2  and  C_5
REMARK    4  A    between atoms: C_5  and  O_6
REMARK    5  A    between atoms: O_6  and  C_7
REMARK    6  A    between atoms: C_12  and  P_13
REMARK    7  A    between atoms: P_13  and  C_15
REMARK    8  A    between atoms: P_13  and  C_21
REMARK                            x       y       z     vdW  Elec       q    Type
REMARK                         _______ _______ _______ _____ _____    ______ ____
ROOT
ATOM      1  C   UNL     1      -4.094  12.429  19.824  0.00  0.00    +0.000 A 
ATOM      2  C   UNL     1      -5.439  12.128  20.079  0.00  0.00    +0.000 A 
ATOM      3  C   UNL     1      -6.002  12.413  21.322  0.00  0.00    +0.000 A 
ATOM      4  C   UNL     1      -5.235  13.006  22.322  0.00  0.00    +0.000 A 
ATOM      5  C   UNL     1      -3.890  13.296  22.079  0.00  0.00    +0.000 A 
ATOM      6  C   UNL     1      -3.283  12.972  20.850  0.00  0.00    +0.000 A 
ENDROOT
BRANCH   6   7
ATOM      7  P   UNL     1      -1.531  13.287  20.422  0.00  0.00    +0.000 P 
ATOM      8  O   UNL     1      -1.432  14.335  21.566  0.00  0.00    +0.000 OA
BRANCH   7   9
ATOM      9  C   UNL     1      -1.182  11.455  21.120  0.00  0.00    +0.000 A 
ATOM     10  C   UNL     1      -1.177  11.249  22.515  0.00  0.00    +0.000 A 
ATOM     11  C   UNL     1      -0.448  10.178  23.047  0.00  0.00    +0.000 A 
ATOM     12  C   UNL     1       0.283   9.331  22.212  0.00  0.00    +0.000 A 
ATOM     13  C   UNL     1       0.208   9.485  20.827  0.00  0.00    +0.000 A 
ATOM     14  C   UNL     1      -0.551  10.520  20.278  0.00  0.00    +0.000 A 
ENDBRANCH   7   9
BRANCH   7  15
ATOM     15  C   UNL     1       0.219  13.602  19.995  0.00  0.00    +0.000 A 
ATOM     16  C   UNL     1       0.705  13.598  18.678  0.00  0.00    +0.000 A 
ATOM     17  C   UNL     1       2.077  13.656  18.430  0.00  0.00    +0.000 A 
ATOM     18  C   UNL     1       2.978  13.730  19.492  0.00  0.00    +0.000 A 
ATOM     19  C   UNL     1       2.509  13.747  20.805  0.00  0.00    +0.000 A 
ATOM     20  C   UNL     1       1.137  13.681  21.056  0.00  0.00    +0.000 A 
ENDBRANCH   7  15
ENDBRANCH   6   7
BRANCH   1  21
ATOM     21  O   UNL     1      -3.495  12.168  18.609  0.00  0.00    +0.000 OA
BRANCH  21  22
ATOM     22  C   UNL     1      -3.634  10.804  18.140  0.00  0.00    +0.000 C 
BRANCH  22  24
ATOM     23  O   UNL     1      -3.181  10.904  14.793  0.00  0.00    +0.000 OA
ATOM     24  P   UNL     1      -3.389  10.857  16.327  0.00  0.00    +0.000 P 
BRANCH  24  25
ATOM     25  O   UNL     1      -2.020  11.736  16.583  0.00  0.00    +0.000 OA
ATOM     26  H   UNL     1      -1.493  11.268  17.262  0.00  0.00    +0.000 HD
ENDBRANCH  24  25
BRANCH  24  27
ATOM     27  O   UNL     1      -4.426  12.132  16.280  0.00  0.00    +0.000 OA
ATOM     28  H   UNL     1      -5.209  11.897  16.820  0.00  0.00    +0.000 HD
ENDBRANCH  24  27
ENDBRANCH  22  24
ENDBRANCH  21  22
ENDBRANCH   1  21
TORSDOF 8
ENDMDL
MODEL 7
REMARK VINA RESULT:      -6.3      2.195      6.285
REMARK  Name = 
REMARK  8 active torsions:
REMARK  status: ('A' for Active; 'I' for Inactive)
REMARK    1  A    between atoms: P_2  and  O_3
REMARK    2  A    between atoms: P_2  and  O_4
REMARK    3  A    between atoms: P_2  and  C_5
REMARK    4  A    between atoms: C_5  and  O_6
REMARK    5  A    between atoms: O_6  and  C_7
REMARK    6  A    between atoms: C_12  and  P_13
REMARK    7  A    between atoms: P_13  and  C_15
REMARK    8  A    between atoms: P_13  and  C_21
REMARK                            x       y       z     vdW  Elec       q    Type
REMARK                         _______ _______ _______ _____ _____    ______ ____
ROOT
ATOM      1  C   UNL     1       6.476   6.140  16.318  0.00  0.00    +0.000 A 
ATOM      2  C   UNL     1       7.448   5.606  15.461  0.00  0.00    +0.000 A 
ATOM      3  C   UNL     1       7.096   4.664  14.495  0.00  0.00    +0.000 A 
ATOM      4  C   UNL     1       5.773   4.250  14.367  0.00  0.00    +0.000 A 
ATOM      5  C   UNL     1       4.801   4.768  15.227  0.00  0.00    +0.000 A 
ATOM      6  C   UNL     1       5.138   5.682  16.244  0.00  0.00    +0.000 A 
ENDROOT
BRANCH   6   7
ATOM      7  P   UNL     1       3.959   6.415  17.436  0.00  0.00    +0.000 P 
ATOM      8  O   UNL     1       3.339   7.280  16.303  0.00  0.00    +0.000 OA
BRANCH   7   9
ATOM      9  C   UNL     1       3.112   4.613  17.486  0.00  0.00    +0.000 A 
ATOM     10  C   UNL     1       1.708   4.526  17.585  0.00  0.00    +0.000 A 
ATOM     11  C   UNL     1       1.130   3.377  18.138  0.00  0.00    +0.000 A 
ATOM     12  C   UNL     1       1.931   2.333  18.606  0.00  0.00    +0.000 A 
ATOM     13  C   UNL     1       3.314   2.385  18.430  0.00  0.00    +0.000 A 
ATOM     14  C   UNL     1       3.904   3.504  17.838  0.00  0.00    +0.000 A 
ENDBRANCH   7   9
BRANCH   7  15
ATOM     15  C   UNL     1       2.781   7.148  18.629  0.00  0.00    +0.000 A 
ATOM     16  C   UNL     1       2.175   8.400  18.444  0.00  0.00    +0.000 A 
ATOM     17  C   UNL     1       1.436   8.987  19.473  0.00  0.00    +0.000 A 
ATOM     18  C   UNL     1       1.286   8.326  20.692  0.00  0.00    +0.000 A 
ATOM     19  C   UNL     1       1.873   7.076  20.884  0.00  0.00    +0.000 A 
ATOM     20  C   UNL     1       2.618   6.490  19.860  0.00  0.00    +0.000 A 
ENDBRANCH   7  15
ENDBRANCH   6   7
BRANCH   1  21
ATOM     21  O   UNL     1       6.776   7.076  17.285  0.00  0.00    +0.000 OA
BRANCH  21  22
ATOM     22  C   UNL     1       7.735   6.639  18.281  0.00  0.00    +0.000 C 
BRANCH  22  24
ATOM     23  O   UNL     1       6.142   4.351  20.190  0.00  0.00    +0.000 OA
ATOM     24  P   UNL     1       6.872   5.400  19.315  0.00  0.00    +0.000 P 
BRANCH  24  25
ATOM     25  O   UNL     1       8.060   5.577  20.441  0.00  0.00    +0.000 OA
ATOM     26  H   UNL     1       8.132   6.532  20.645  0.00  0.00    +0.000 HD
ENDBRANCH  24  25
BRANCH  24  27
ATOM     27  O   UNL     1       7.618   4.228  18.436  0.00  0.00    +0.000 OA
ATOM     28  H   UNL     1       8.322   4.657  17.908  0.00  0.00    +0.000 HD
ENDBRANCH  24  27
ENDBRANCH  22  24
ENDBRANCH  21  22
ENDBRANCH   1  21
TORSDOF 8
ENDMDL
MODEL 8
REMARK VINA RESULT:      -6.2      0.989      1.674
REMARK  Name = 
REMARK  8 active torsions:
REMARK  status: ('A' for Active; 'I' for Inactive)
REMARK    1  A    between atoms: P_2  and  O_3
REMARK    2  A    between atoms: P_2  and  O_4
REMARK    3  A    between atoms: P_2  and  C_5
REMARK    4  A    between atoms: C_5  and  O_6
REMARK    5  A    between atoms: O_6  and  C_7
REMARK    6  A    between atoms: C_12  and  P_13
REMARK    7  A    between atoms: P_13  and  C_15
REMARK    8  A    between atoms: P_13  and  C_21
REMARK                            x       y       z     vdW  Elec       q    Type
REMARK                         _______ _______ _______ _____ _____    ______ ____
ROOT
ATOM      1  C   UNL     1       3.784   5.332  18.113  0.00  0.00    +0.000 A 
ATOM      2  C   UNL     1       3.131   5.744  19.283  0.00  0.00    +0.000 A 
ATOM      3  C   UNL     1       2.770   7.079  19.457  0.00  0.00    +0.000 A 
ATOM      4  C   UNL     1       3.049   8.017  18.466  0.00  0.00    +0.000 A 
ATOM      5  C   UNL     1       3.712   7.616  17.303  0.00  0.00    +0.000 A 
ATOM      6  C   UNL     1       4.133   6.284  17.125  0.00  0.00    +0.000 A 
ENDROOT
BRANCH   6   7
ATOM      7  P   UNL     1       5.021   5.645  15.657  0.00  0.00    +0.000 P 
ATOM      8  O   UNL     1       4.756   6.980  14.906  0.00  0.00    +0.000 OA
BRANCH   7   9
ATOM      9  C   UNL     1       6.666   5.784  16.771  0.00  0.00    +0.000 A 
ATOM     10  C   UNL     1       7.163   4.620  17.395  0.00  0.00    +0.000 A 
ATOM     11  C   UNL     1       7.941   4.743  18.553  0.00  0.00    +0.000 A 
ATOM     12  C   UNL     1       8.211   6.000  19.097  0.00  0.00    +0.000 A 
ATOM     13  C   UNL     1       7.791   7.152  18.432  0.00  0.00    +0.000 A 
ATOM     14  C   UNL     1       7.052   7.048  17.252  0.00  0.00    +0.000 A 
ENDBRANCH   7   9
BRANCH   7  15
ATOM     15  C   UNL     1       5.908   5.007  14.190  0.00  0.00    +0.000 A 
ATOM     16  C   UNL     1       5.444   3.934  13.414  0.00  0.00    +0.000 A 
ATOM     17  C   UNL     1       6.254   3.373  12.426  0.00  0.00    +0.000 A 
ATOM     18  C   UNL     1       7.532   3.883  12.195  0.00  0.00    +0.000 A 
ATOM     19  C   UNL     1       8.001   4.956  12.952  0.00  0.00    +0.000 A 
ATOM     20  C   UNL     1       7.195   5.514  13.945  0.00  0.00    +0.000 A 
ENDBRANCH   7  15
ENDBRANCH   6   7
BRANCH   1  21
ATOM     21  O   UNL     1       4.157   4.022  17.897  0.00  0.00    +0.000 OA
BRANCH  21  22
ATOM     22  C   UNL     1       3.898   3.122  19.003  0.00  0.00    +0.000 C 
BRANCH  22  24
ATOM     23  O   UNL     1       0.709   2.067  18.639  0.00  0.00    +0.000 OA
ATOM     24  P   UNL     1       2.171   2.551  18.806  0.00  0.00    +0.000 P 
BRANCH  24  25
ATOM     25  O   UNL     1       2.083   2.390  20.442  0.00  0.00    +0.000 OA
ATOM     26  H   UNL     1       1.640   3.189  20.793  0.00  0.00    +0.000 HD
ENDBRANCH  24  25
BRANCH  24  27
ATOM     27  O   UNL     1       2.761   1.048  18.499  0.00  0.00    +0.000 OA
ATOM     28  H   UNL     1       3.342   0.799  19.247  0.00  0.00    +0.000 HD
ENDBRANCH  24  27
ENDBRANCH  22  24
ENDBRANCH  21  22
ENDBRANCH   1  21
TORSDOF 8
ENDMDL
MODEL 9
REMARK VINA RESULT:      -6.2      2.899      6.811
REMARK  Name = 
REMARK  8 active torsions:
REMARK  status: ('A' for Active; 'I' for Inactive)
REMARK    1  A    between atoms: P_2  and  O_3
REMARK    2  A    between atoms: P_2  and  O_4
REMARK    3  A    between atoms: P_2  and  C_5
REMARK    4  A    between atoms: C_5  and  O_6
REMARK    5  A    between atoms: O_6  and  C_7
REMARK    6  A    between atoms: C_12  and  P_13
REMARK    7  A    between atoms: P_13  and  C_15
REMARK    8  A    between atoms: P_13  and  C_21
REMARK                            x       y       z     vdW  Elec       q    Type
REMARK                         _______ _______ _______ _____ _____    ______ ____
ROOT
ATOM      1  C   UNL     1       5.279   5.579  16.724  0.00  0.00    +0.000 A 
ATOM      2  C   UNL     1       6.051   4.777  15.873  0.00  0.00    +0.000 A 
ATOM      3  C   UNL     1       5.622   3.495  15.530  0.00  0.00    +0.000 A 
ATOM      4  C   UNL     1       4.418   3.001  16.024  0.00  0.00    +0.000 A 
ATOM      5  C   UNL     1       3.650   3.791  16.884  0.00  0.00    +0.000 A 
ATOM      6  C   UNL     1       4.084   5.068  17.288  0.00  0.00    +0.000 A 
ENDROOT
BRANCH   6   7
ATOM      7  P   UNL     1       3.175   6.183  18.418  0.00  0.00    +0.000 P 
ATOM      8  O   UNL     1       2.210   6.578  17.266  0.00  0.00    +0.000 OA
BRANCH   7   9
ATOM      9  C   UNL     1       2.548   4.522  19.319  0.00  0.00    +0.000 A 
ATOM     10  C   UNL     1       1.219   4.096  19.109  0.00  0.00    +0.000 A 
ATOM     11  C   UNL     1       0.594   3.299  20.076  0.00  0.00    +0.000 A 
ATOM     12  C   UNL     1       1.267   2.942  21.246  0.00  0.00    +0.000 A 
ATOM     13  C   UNL     1       2.607   3.292  21.413  0.00  0.00    +0.000 A 
ATOM     14  C   UNL     1       3.260   4.049  20.437  0.00  0.00    +0.000 A 
ENDBRANCH   7   9
BRANCH   7  15
ATOM     15  C   UNL     1       2.267   7.298  19.549  0.00  0.00    +0.000 A 
ATOM     16  C   UNL     1       1.804   6.904  20.814  0.00  0.00    +0.000 A 
ATOM     17  C   UNL     1       0.957   7.737  21.548  0.00  0.00    +0.000 A 
ATOM     18  C   UNL     1       0.573   8.974  21.032  0.00  0.00    +0.000 A 
ATOM     19  C   UNL     1       1.035   9.383  19.782  0.00  0.00    +0.000 A 
ATOM     20  C   UNL     1       1.877   8.549  19.043  0.00  0.00    +0.000 A 
ENDBRANCH   7  15
ENDBRANCH   6   7
BRANCH   1  21
ATOM     21  O   UNL     1       5.661   6.853  17.089  0.00  0.00    +0.000 OA
BRANCH  21  22
ATOM     22  C   UNL     1       7.078   7.014  17.350  0.00  0.00    +0.000 C 
BRANCH  22  24
ATOM     23  O   UNL     1       7.692   5.422  20.266  0.00  0.00    +0.000 OA
ATOM     24  P   UNL     1       7.410   6.152  18.929  0.00  0.00    +0.000 P 
BRANCH  24  25
ATOM     25  O   UNL     1       8.667   7.186  19.178  0.00  0.00    +0.000 OA
ATOM     26  H   UNL     1       8.377   7.848  19.839  0.00  0.00    +0.000 HD
ENDBRANCH  24  25
BRANCH  24  27
ATOM     27  O   UNL     1       8.255   5.030  18.075  0.00  0.00    +0.000 OA
ATOM     28  H   UNL     1       7.729   4.804  17.281  0.00  0.00    +0.000 HD
ENDBRANCH  24  27
ENDBRANCH  22  24
ENDBRANCH  21  22
ENDBRANCH   1  21
TORSDOF 8
ENDMDL
