MODEL 1
REMARK VINA RESULT:      -7.7      0.000      0.000
REMARK  Name = 
REMARK  9 active torsions:
REMARK  status: ('A' for Active; 'I' for Inactive)
REMARK    1  A    between atoms: C_1  and  C_2
REMARK    2  A    between atoms: C_2  and  C_3
REMARK    3  A    between atoms: C_2  and  N_4
REMARK    4  A    between atoms: N_4  and  C_5
REMARK    5  A    between atoms: C_10  and  N_11
REMARK    6  A    between atoms: C_14  and  O_15
REMARK    7  A    between atoms: O_15  and  C_16
REMARK    8  A    between atoms: C_26  and  C_27
REMARK    9  A    between atoms: C_29  and  C_31
REMARK                            x       y       z     vdW  Elec       q    Type
REMARK                         _______ _______ _______ _____ _____    ______ ____
ROOT
ATOM      1  C   UNL     1      -1.669  11.584  18.832  0.00  0.00    +0.000 A 
ATOM      2  N   UNL     1      -2.461  12.634  19.157  0.00  0.00    +0.000 NA
ATOM      3  C   UNL     1      -2.469  13.021  20.452  0.00  0.00    +0.000 A 
ATOM      4  C   UNL     1      -1.715  12.367  21.422  0.00  0.00    +0.000 A 
ATOM      5  N   UNL     1      -0.892  11.336  21.097  0.00  0.00    +0.000 NA
ATOM      6  C   UNL     1      -0.844  10.939  19.797  0.00  0.00    +0.000 A 
ATOM      7  C   UNL     1      -1.811  12.768  22.890  0.00  0.00    +0.000 C 
ATOM      8  C   UNL     1      -2.526  11.672  23.692  0.00  0.00    +0.000 C 
ATOM      9  N   UNL     1      -2.500  14.064  23.074  0.00  0.00    +0.000 N 
ATOM     10  C   UNL     1      -1.898  15.033  23.870  0.00  0.00    +0.000 C 
ATOM     11  O   UNL     1      -0.846  14.836  24.471  0.00  0.00    +0.000 OA
ATOM     12  C   UNL     1      -3.686  14.253  22.239  0.00  0.00    +0.000 C 
ATOM     13  C   UNL     1      -3.284  14.239  20.775  0.00  0.00    +0.000 C 
ENDROOT
BRANCH   6  14
ATOM     14  N   UNL     1       0.087   9.967  19.448  0.00  0.00    +0.000 N 
ATOM     15  C   UNL     1       0.227   8.826  20.336  0.00  0.00    +0.000 C 
ATOM     16  C   UNL     1       1.716   8.511  20.382  0.00  0.00    +0.000 C 
ATOM     17  C   UNL     1       2.281   8.202  18.987  0.00  0.00    +0.000 C 
ATOM     18  C   UNL     1       1.896   9.309  17.983  0.00  0.00    +0.000 C 
ATOM     19  C   UNL     1       0.404   9.661  18.051  0.00  0.00    +0.000 C 
BRANCH  17  20
ATOM     20  O   UNL     1       1.784   6.950  18.482  0.00  0.00    +0.000 OA
BRANCH  20  21
ATOM     21  C   UNL     1       2.702   6.103  17.921  0.00  0.00    +0.000 A 
ATOM     22  C   UNL     1       3.996   6.469  17.543  0.00  0.00    +0.000 A 
ATOM     23  C   UNL     1       4.886   5.517  17.046  0.00  0.00    +0.000 A 
ATOM     24  C   UNL     1       4.478   4.199  16.901  0.00  0.00    +0.000 A 
ATOM     25  F   UNL     1       5.336   3.295  16.415  0.00  0.00    +0.000 F 
ATOM     26  C   UNL     1       3.198   3.809  17.259  0.00  0.00    +0.000 A 
ATOM     27  C   UNL     1       2.321   4.760  17.772  0.00  0.00    +0.000 A 
ATOM     28  F   UNL     1       1.081   4.372  18.117  0.00  0.00    +0.000 F 
ENDBRANCH  20  21
ENDBRANCH  17  20
ENDBRANCH   6  14
BRANCH  10  29
ATOM     29  C   UNL     1      -2.542  16.381  23.964  0.00  0.00    +0.000 C 
ATOM     30  C   UNL     1      -3.603  16.667  25.004  0.00  0.00    +0.000 C 
ATOM     31  C   UNL     1      -2.235  17.262  25.155  0.00  0.00    +0.000 C 
ENDBRANCH  10  29
BRANCH   1  32
ATOM     32  N   UNL     1      -1.625  11.196  17.480  0.00  0.00    +0.000 N 
ATOM     33  H   UNL     1      -1.082  11.888  16.972  0.00  0.00    +0.000 HD
BRANCH  32  35
ATOM     34  C   UNL     1      -2.592  10.401  15.415  0.00  0.00    +0.000 C 
ATOM     35  C   UNL     1      -2.883  10.798  16.863  0.00  0.00    +0.000 C 
ATOM     36  C   UNL     1      -3.467   9.583  17.599  0.00  0.00    +0.000 C 
ENDBRANCH  32  35
ENDBRANCH   1  32
TORSDOF 6
ENDMDL
MODEL 2
REMARK VINA RESULT:      -7.7      3.586      4.248
REMARK  Name = 
REMARK  9 active torsions:
REMARK  status: ('A' for Active; 'I' for Inactive)
REMARK    1  A    between atoms: C_1  and  C_2
REMARK    2  A    between atoms: C_2  and  C_3
REMARK    3  A    between atoms: C_2  and  N_4
REMARK    4  A    between atoms: N_4  and  C_5
REMARK    5  A    between atoms: C_10  and  N_11
REMARK    6  A    between atoms: C_14  and  O_15
REMARK    7  A    between atoms: O_15  and  C_16
REMARK    8  A    between atoms: C_26  and  C_27
REMARK    9  A    between atoms: C_29  and  C_31
REMARK                            x       y       z     vdW  Elec       q    Type
REMARK                         _______ _______ _______ _____ _____    ______ ____
ROOT
ATOM      1  C   UNL     1      -0.602  11.488  18.977  0.00  0.00    +0.000 A 
ATOM      2  N   UNL     1      -1.019  12.775  18.919  0.00  0.00    +0.000 NA
ATOM      3  C   UNL     1      -0.069  13.734  18.993  0.00  0.00    +0.000 A 
ATOM      4  C   UNL     1       1.280  13.426  19.143  0.00  0.00    +0.000 A 
ATOM      5  N   UNL     1       1.709  12.138  19.167  0.00  0.00    +0.000 NA
ATOM      6  C   UNL     1       0.779  11.150  19.069  0.00  0.00    +0.000 A 
ATOM      7  C   UNL     1       2.321  14.528  19.314  0.00  0.00    +0.000 C 
ATOM      8  C   UNL     1       2.868  14.520  20.748  0.00  0.00    +0.000 C 
ATOM      9  N   UNL     1       1.781  15.865  18.985  0.00  0.00    +0.000 N 
ATOM     10  C   UNL     1       2.503  16.680  18.118  0.00  0.00    +0.000 C 
ATOM     11  O   UNL     1       3.595  16.357  17.660  0.00  0.00    +0.000 OA
ATOM     12  C   UNL     1       0.430  16.122  19.482  0.00  0.00    +0.000 C 
ATOM     13  C   UNL     1      -0.542  15.150  18.839  0.00  0.00    +0.000 C 
ENDROOT
BRANCH   6  14
ATOM     14  N   UNL     1       1.230   9.838  18.972  0.00  0.00    +0.000 N 
ATOM     15  C   UNL     1       0.758   8.894  19.971  0.00  0.00    +0.000 C 
ATOM     16  C   UNL     1       1.947   8.000  20.298  0.00  0.00    +0.000 C 
ATOM     17  C   UNL     1       2.479   7.273  19.053  0.00  0.00    +0.000 C 
ATOM     18  C   UNL     1       2.731   8.271  17.903  0.00  0.00    +0.000 C 
ATOM     19  C   UNL     1       1.543   9.217  17.683  0.00  0.00    +0.000 C 
BRANCH  17  20
ATOM     20  O   UNL     1       1.551   6.280  18.585  0.00  0.00    +0.000 OA
BRANCH  20  21
ATOM     21  C   UNL     1       2.025   5.001  18.466  0.00  0.00    +0.000 A 
ATOM     22  C   UNL     1       2.971   4.587  17.526  0.00  0.00    +0.000 A 
ATOM     23  C   UNL     1       3.449   3.276  17.529  0.00  0.00    +0.000 A 
ATOM     24  C   UNL     1       2.962   2.366  18.456  0.00  0.00    +0.000 A 
ATOM     25  F   UNL     1       3.419   1.109  18.445  0.00  0.00    +0.000 F 
ATOM     26  C   UNL     1       2.016   2.745  19.393  0.00  0.00    +0.000 A 
ATOM     27  C   UNL     1       1.558   4.060  19.398  0.00  0.00    +0.000 A 
ATOM     28  F   UNL     1       0.640   4.418  20.312  0.00  0.00    +0.000 F 
ENDBRANCH  20  21
ENDBRANCH  17  20
ENDBRANCH   6  14
BRANCH  10  29
ATOM     29  C   UNL     1       1.901  17.985  17.698  0.00  0.00    +0.000 C 
ATOM     30  C   UNL     1       1.571  18.259  16.247  0.00  0.00    +0.000 C 
ATOM     31  C   UNL     1       0.464  18.016  17.227  0.00  0.00    +0.000 C 
ENDBRANCH  10  29
BRANCH   1  32
ATOM     32  N   UNL     1      -1.578  10.482  18.863  0.00  0.00    +0.000 N 
ATOM     33  H   UNL     1      -1.100   9.591  18.760  0.00  0.00    +0.000 HD
BRANCH  32  35
ATOM     34  C   UNL     1      -3.163   9.371  17.420  0.00  0.00    +0.000 C 
ATOM     35  C   UNL     1      -2.677  10.724  17.939  0.00  0.00    +0.000 C 
ATOM     36  C   UNL     1      -3.836  11.416  18.672  0.00  0.00    +0.000 C 
ENDBRANCH  32  35
ENDBRANCH   1  32
TORSDOF 6
ENDMDL
MODEL 3
REMARK VINA RESULT:      -7.6      1.055      1.108
REMARK  Name = 
REMARK  9 active torsions:
REMARK  status: ('A' for Active; 'I' for Inactive)
REMARK    1  A    between atoms: C_1  and  C_2
REMARK    2  A    between atoms: C_2  and  C_3
REMARK    3  A    between atoms: C_2  and  N_4
REMARK    4  A    between atoms: N_4  and  C_5
REMARK    5  A    between atoms: C_10  and  N_11
REMARK    6  A    between atoms: C_14  and  O_15
REMARK    7  A    between atoms: O_15  and  C_16
REMARK    8  A    between atoms: C_26  and  C_27
REMARK    9  A    between atoms: C_29  and  C_31
REMARK                            x       y       z     vdW  Elec       q    Type
REMARK                         _______ _______ _______ _____ _____    ______ ____
ROOT
ATOM      1  C   UNL     1      -1.602  11.572  18.830  0.00  0.00    +0.000 A 
ATOM      2  N   UNL     1      -2.371  12.645  19.135  0.00  0.00    +0.000 NA
ATOM      3  C   UNL     1      -2.365  13.061  20.421  0.00  0.00    +0.000 A 
ATOM      4  C   UNL     1      -1.620  12.415  21.403  0.00  0.00    +0.000 A 
ATOM      5  N   UNL     1      -0.820  11.360  21.098  0.00  0.00    +0.000 NA
ATOM      6  C   UNL     1      -0.786  10.932  19.807  0.00  0.00    +0.000 A 
ATOM      7  C   UNL     1      -1.701  12.851  22.861  0.00  0.00    +0.000 C 
ATOM      8  C   UNL     1      -2.435  11.788  23.691  0.00  0.00    +0.000 C 
ATOM      9  N   UNL     1      -2.363  14.164  23.018  0.00  0.00    +0.000 N 
ATOM     10  C   UNL     1      -1.737  15.138  23.789  0.00  0.00    +0.000 C 
ATOM     11  O   UNL     1      -0.687  14.934  24.390  0.00  0.00    +0.000 OA
ATOM     12  C   UNL     1      -3.549  14.358  22.184  0.00  0.00    +0.000 C 
ATOM     13  C   UNL     1      -3.153  14.303  20.719  0.00  0.00    +0.000 C 
ENDROOT
BRANCH   6  14
ATOM     14  N   UNL     1       0.124   9.933  19.476  0.00  0.00    +0.000 N 
ATOM     15  C   UNL     1       0.223   8.796  20.374  0.00  0.00    +0.000 C 
ATOM     16  C   UNL     1       1.703   8.443  20.441  0.00  0.00    +0.000 C 
ATOM     17  C   UNL     1       2.276   8.108  19.054  0.00  0.00    +0.000 C 
ATOM     18  C   UNL     1       1.932   9.217  18.037  0.00  0.00    +0.000 C 
ATOM     19  C   UNL     1       0.449   9.609  18.085  0.00  0.00    +0.000 C 
BRANCH  17  20
ATOM     20  O   UNL     1       1.753   6.867  18.553  0.00  0.00    +0.000 OA
BRANCH  20  21
ATOM     21  C   UNL     1       2.533   5.754  18.725  0.00  0.00    +0.000 A 
ATOM     22  C   UNL     1       3.640   5.430  17.938  0.00  0.00    +0.000 A 
ATOM     23  C   UNL     1       4.419   4.311  18.236  0.00  0.00    +0.000 A 
ATOM     24  C   UNL     1       4.078   3.498  19.307  0.00  0.00    +0.000 A 
ATOM     25  F   UNL     1       4.826   2.423  19.580  0.00  0.00    +0.000 F 
ATOM     26  C   UNL     1       2.981   3.790  20.099  0.00  0.00    +0.000 A 
ATOM     27  C   UNL     1       2.219   4.918  19.808  0.00  0.00    +0.000 A 
ATOM     28  F   UNL     1       1.155   5.194  20.583  0.00  0.00    +0.000 F 
ENDBRANCH  20  21
ENDBRANCH  17  20
ENDBRANCH   6  14
BRANCH  10  29
ATOM     29  C   UNL     1      -2.353  16.501  23.855  0.00  0.00    +0.000 C 
ATOM     30  C   UNL     1      -3.108  16.956  25.085  0.00  0.00    +0.000 C 
ATOM     31  C   UNL     1      -1.757  17.535  24.786  0.00  0.00    +0.000 C 
ENDBRANCH  10  29
BRANCH   1  32
ATOM     32  N   UNL     1      -1.573  11.152  17.488  0.00  0.00    +0.000 N 
ATOM     33  H   UNL     1      -0.997  11.808  16.967  0.00  0.00    +0.000 HD
BRANCH  32  35
ATOM     34  C   UNL     1      -2.583  10.459  15.408  0.00  0.00    +0.000 C 
ATOM     35  C   UNL     1      -2.845  10.797  16.876  0.00  0.00    +0.000 C 
ATOM     36  C   UNL     1      -3.433   9.559  17.568  0.00  0.00    +0.000 C 
ENDBRANCH  32  35
ENDBRANCH   1  32
TORSDOF 6
ENDMDL
MODEL 4
REMARK VINA RESULT:      -7.5      6.878     10.440
REMARK  Name = 
REMARK  9 active torsions:
REMARK  status: ('A' for Active; 'I' for Inactive)
REMARK    1  A    between atoms: C_1  and  C_2
REMARK    2  A    between atoms: C_2  and  C_3
REMARK    3  A    between atoms: C_2  and  N_4
REMARK    4  A    between atoms: N_4  and  C_5
REMARK    5  A    between atoms: C_10  and  N_11
REMARK    6  A    between atoms: C_14  and  O_15
REMARK    7  A    between atoms: O_15  and  C_16
REMARK    8  A    between atoms: C_26  and  C_27
REMARK    9  A    between atoms: C_29  and  C_31
REMARK                            x       y       z     vdW  Elec       q    Type
REMARK                         _______ _______ _______ _____ _____    ______ ____
ROOT
ATOM      1  C   UNL     1       3.971  15.343  18.662  0.00  0.00    +0.000 A 
ATOM      2  N   UNL     1       5.149  15.305  17.995  0.00  0.00    +0.000 NA
ATOM      3  C   UNL     1       6.257  15.032  18.718  0.00  0.00    +0.000 A 
ATOM      4  C   UNL     1       6.207  14.817  20.093  0.00  0.00    +0.000 A 
ATOM      5  N   UNL     1       5.025  14.819  20.762  0.00  0.00    +0.000 NA
ATOM      6  C   UNL     1       3.889  15.067  20.057  0.00  0.00    +0.000 A 
ATOM      7  C   UNL     1       7.483  14.599  20.898  0.00  0.00    +0.000 C 
ATOM      8  C   UNL     1       7.757  15.815  21.794  0.00  0.00    +0.000 C 
ATOM      9  N   UNL     1       8.653  14.332  20.034  0.00  0.00    +0.000 N 
ATOM     10  C   UNL     1       9.459  13.235  20.323  0.00  0.00    +0.000 C 
ATOM     11  O   UNL     1       9.271  12.514  21.298  0.00  0.00    +0.000 OA
ATOM     12  C   UNL     1       8.739  15.170  18.838  0.00  0.00    +0.000 C 
ATOM     13  C   UNL     1       7.538  14.907  17.946  0.00  0.00    +0.000 C 
ENDROOT
BRANCH   6  14
ATOM     14  N   UNL     1       2.672  14.949  20.721  0.00  0.00    +0.000 N 
ATOM     15  C   UNL     1       2.035  13.644  20.720  0.00  0.00    +0.000 C 
ATOM     16  C   UNL     1       0.544  13.905  20.559  0.00  0.00    +0.000 C 
ATOM     17  C   UNL     1      -0.009  14.793  21.685  0.00  0.00    +0.000 C 
ATOM     18  C   UNL     1       0.846  16.068  21.846  0.00  0.00    +0.000 C 
ATOM     19  C   UNL     1       2.348  15.757  21.898  0.00  0.00    +0.000 C 
BRANCH  17  20
ATOM     20  O   UNL     1      -0.019  14.102  22.945  0.00  0.00    +0.000 OA
BRANCH  20  21
ATOM     21  C   UNL     1      -1.242  13.726  23.433  0.00  0.00    +0.000 A 
ATOM     22  C   UNL     1      -2.105  14.561  24.146  0.00  0.00    +0.000 A 
ATOM     23  C   UNL     1      -3.366  14.110  24.540  0.00  0.00    +0.000 A 
ATOM     24  C   UNL     1      -3.758  12.813  24.243  0.00  0.00    +0.000 A 
ATOM     25  F   UNL     1      -4.965  12.386  24.632  0.00  0.00    +0.000 F 
ATOM     26  C   UNL     1      -2.920  11.960  23.545  0.00  0.00    +0.000 A 
ATOM     27  C   UNL     1      -1.672  12.422  23.139  0.00  0.00    +0.000 A 
ATOM     28  F   UNL     1      -0.865  11.586  22.461  0.00  0.00    +0.000 F 
ENDBRANCH  20  21
ENDBRANCH  17  20
ENDBRANCH   6  14
BRANCH  10  29
ATOM     29  C   UNL     1      10.576  12.902  19.383  0.00  0.00    +0.000 C 
ATOM     30  C   UNL     1      11.966  13.459  19.597  0.00  0.00    +0.000 C 
ATOM     31  C   UNL     1      11.699  12.008  19.861  0.00  0.00    +0.000 C 
ENDBRANCH  10  29
BRANCH   1  32
ATOM     32  N   UNL     1       2.806  15.590  17.912  0.00  0.00    +0.000 N 
ATOM     33  H   UNL     1       2.910  15.134  17.011  0.00  0.00    +0.000 HD
BRANCH  32  35
ATOM     34  C   UNL     1       2.472  17.481  16.448  0.00  0.00    +0.000 C 
ATOM     35  C   UNL     1       2.317  16.962  17.878  0.00  0.00    +0.000 C 
ATOM     36  C   UNL     1       0.830  16.998  18.256  0.00  0.00    +0.000 C 
ENDBRANCH  32  35
ENDBRANCH   1  32
TORSDOF 6
ENDMDL
MODEL 5
REMARK VINA RESULT:      -7.5      3.198      6.031
REMARK  Name = 
REMARK  9 active torsions:
REMARK  status: ('A' for Active; 'I' for Inactive)
REMARK    1  A    between atoms: C_1  and  C_2
REMARK    2  A    between atoms: C_2  and  C_3
REMARK    3  A    between atoms: C_2  and  N_4
REMARK    4  A    between atoms: N_4  and  C_5
REMARK    5  A    between atoms: C_10  and  N_11
REMARK    6  A    between atoms: C_14  and  O_15
REMARK    7  A    between atoms: O_15  and  C_16
REMARK    8  A    between atoms: C_26  and  C_27
REMARK    9  A    between atoms: C_29  and  C_31
REMARK                            x       y       z     vdW  Elec       q    Type
REMARK                         _______ _______ _______ _____ _____    ______ ____
ROOT
ATOM      1  C   UNL     1       2.177   6.677  20.293  0.00  0.00    +0.000 A 
ATOM      2  N   UNL     1       1.271   7.233  21.132  0.00  0.00    +0.000 NA
ATOM      3  C   UNL     1       0.798   8.456  20.804  0.00  0.00    +0.000 A 
ATOM      4  C   UNL     1       1.229   9.134  19.668  0.00  0.00    +0.000 A 
ATOM      5  N   UNL     1       2.112   8.568  18.804  0.00  0.00    +0.000 NA
ATOM      6  C   UNL     1       2.588   7.327  19.094  0.00  0.00    +0.000 A 
ATOM      7  C   UNL     1       0.746  10.549  19.370  0.00  0.00    +0.000 C 
ATOM      8  C   UNL     1       1.894  11.551  19.562  0.00  0.00    +0.000 C 
ATOM      9  N   UNL     1      -0.410  10.935  20.207  0.00  0.00    +0.000 N 
ATOM     10  C   UNL     1      -1.529  11.483  19.587  0.00  0.00    +0.000 C 
ATOM     11  O   UNL     1      -1.574  11.710  18.382  0.00  0.00    +0.000 OA
ATOM     12  C   UNL     1      -0.316  10.530  21.609  0.00  0.00    +0.000 C 
ATOM     13  C   UNL     1      -0.270   9.015  21.698  0.00  0.00    +0.000 C 
ENDROOT
BRANCH   6  14
ATOM     14  N   UNL     1       3.395   6.702  18.149  0.00  0.00    +0.000 N 
ATOM     15  C   UNL     1       2.755   5.769  17.237  0.00  0.00    +0.000 C 
ATOM     16  C   UNL     1       3.735   4.617  17.061  0.00  0.00    +0.000 C 
ATOM     17  C   UNL     1       5.089   5.093  16.511  0.00  0.00    +0.000 C 
ATOM     18  C   UNL     1       5.636   6.270  17.347  0.00  0.00    +0.000 C 
ATOM     19  C   UNL     1       4.577   7.355  17.582  0.00  0.00    +0.000 C 
BRANCH  17  20
ATOM     20  O   UNL     1       4.980   5.528  15.146  0.00  0.00    +0.000 OA
BRANCH  20  21
ATOM     21  C   UNL     1       5.561   4.731  14.196  0.00  0.00    +0.000 A 
ATOM     22  C   UNL     1       4.869   3.831  13.382  0.00  0.00    +0.000 A 
ATOM     23  C   UNL     1       5.538   3.113  12.389  0.00  0.00    +0.000 A 
ATOM     24  C   UNL     1       6.906   3.275  12.224  0.00  0.00    +0.000 A 
ATOM     25  F   UNL     1       7.540   2.576  11.275  0.00  0.00    +0.000 F 
ATOM     26  C   UNL     1       7.619   4.154  13.021  0.00  0.00    +0.000 A 
ATOM     27  C   UNL     1       6.943   4.881  13.997  0.00  0.00    +0.000 A 
ATOM     28  F   UNL     1       7.644   5.732  14.767  0.00  0.00    +0.000 F 
ENDBRANCH  20  21
ENDBRANCH  17  20
ENDBRANCH   6  14
BRANCH  10  29
ATOM     29  C   UNL     1      -2.739  11.768  20.421  0.00  0.00    +0.000 C 
ATOM     30  C   UNL     1      -2.979  13.147  20.997  0.00  0.00    +0.000 C 
ATOM     31  C   UNL     1      -3.826  12.658  19.860  0.00  0.00    +0.000 C 
ENDBRANCH  10  29
BRANCH   1  32
ATOM     32  N   UNL     1       2.649   5.389  20.605  0.00  0.00    +0.000 N 
ATOM     33  H   UNL     1       3.316   5.117  19.888  0.00  0.00    +0.000 HD
BRANCH  32  35
ATOM     34  C   UNL     1       1.077   3.815  19.666  0.00  0.00    +0.000 C 
ATOM     35  C   UNL     1       1.655   4.386  20.962  0.00  0.00    +0.000 C 
ATOM     36  C   UNL     1       2.318   3.247  21.750  0.00  0.00    +0.000 C 
ENDBRANCH  32  35
ENDBRANCH   1  32
TORSDOF 6
ENDMDL
MODEL 6
REMARK VINA RESULT:      -7.5      3.230      3.888
REMARK  Name = 
REMARK  9 active torsions:
REMARK  status: ('A' for Active; 'I' for Inactive)
REMARK    1  A    between atoms: C_1  and  C_2
REMARK    2  A    between atoms: C_2  and  C_3
REMARK    3  A    between atoms: C_2  and  N_4
REMARK    4  A    between atoms: N_4  and  C_5
REMARK    5  A    between atoms: C_10  and  N_11
REMARK    6  A    between atoms: C_14  and  O_15
REMARK    7  A    between atoms: O_15  and  C_16
REMARK    8  A    between atoms: C_26  and  C_27
REMARK    9  A    between atoms: C_29  and  C_31
REMARK                            x       y       z     vdW  Elec       q    Type
REMARK                         _______ _______ _______ _____ _____    ______ ____
ROOT
ATOM      1  C   UNL     1      -0.725  11.263  19.101  0.00  0.00    +0.000 A 
ATOM      2  N   UNL     1      -1.269  12.503  19.077  0.00  0.00    +0.000 NA
ATOM      3  C   UNL     1      -0.429  13.547  19.250  0.00  0.00    +0.000 A 
ATOM      4  C   UNL     1       0.935  13.370  19.464  0.00  0.00    +0.000 A 
ATOM      5  N   UNL     1       1.493  12.132  19.455  0.00  0.00    +0.000 NA
ATOM      6  C   UNL     1       0.677  11.061  19.259  0.00  0.00    +0.000 A 
ATOM      7  C   UNL     1       1.844  14.561  19.746  0.00  0.00    +0.000 C 
ATOM      8  C   UNL     1       2.313  14.535  21.208  0.00  0.00    +0.000 C 
ATOM      9  N   UNL     1       1.188  15.852  19.446  0.00  0.00    +0.000 N 
ATOM     10  C   UNL     1       1.867  16.778  18.661  0.00  0.00    +0.000 C 
ATOM     11  O   UNL     1       3.009  16.592  18.254  0.00  0.00    +0.000 OA
ATOM     12  C   UNL     1      -0.207  15.946  19.875  0.00  0.00    +0.000 C 
ATOM     13  C   UNL     1      -1.038  14.914  19.132  0.00  0.00    +0.000 C 
ENDROOT
BRANCH   6  14
ATOM     14  N   UNL     1       1.266   9.808  19.129  0.00  0.00    +0.000 N 
ATOM     15  C   UNL     1       1.950   9.518  17.881  0.00  0.00    +0.000 C 
ATOM     16  C   UNL     1       1.633   8.065  17.556  0.00  0.00    +0.000 C 
ATOM     17  C   UNL     1       2.090   7.114  18.675  0.00  0.00    +0.000 C 
ATOM     18  C   UNL     1       1.563   7.589  20.046  0.00  0.00    +0.000 C 
ATOM     19  C   UNL     1       1.816   9.085  20.278  0.00  0.00    +0.000 C 
BRANCH  17  20
ATOM     20  O   UNL     1       3.523   7.038  18.750  0.00  0.00    +0.000 OA
BRANCH  20  21
ATOM     21  C   UNL     1       4.146   6.218  17.848  0.00  0.00    +0.000 A 
ATOM     22  C   UNL     1       4.828   6.658  16.712  0.00  0.00    +0.000 A 
ATOM     23  C   UNL     1       5.496   5.750  15.889  0.00  0.00    +0.000 A 
ATOM     24  C   UNL     1       5.462   4.395  16.185  0.00  0.00    +0.000 A 
ATOM     25  F   UNL     1       6.098   3.531  15.386  0.00  0.00    +0.000 F 
ATOM     26  C   UNL     1       4.786   3.929  17.300  0.00  0.00    +0.000 A 
ATOM     27  C   UNL     1       4.138   4.842  18.128  0.00  0.00    +0.000 A 
ATOM     28  F   UNL     1       3.484   4.380  19.208  0.00  0.00    +0.000 F 
ENDBRANCH  20  21
ENDBRANCH  17  20
ENDBRANCH   6  14
BRANCH  10  29
ATOM     29  C   UNL     1       1.156  18.036  18.266  0.00  0.00    +0.000 C 
ATOM     30  C   UNL     1       1.172  18.522  16.833  0.00  0.00    +0.000 C 
ATOM     31  C   UNL     1      -0.086  17.941  17.407  0.00  0.00    +0.000 C 
ENDBRANCH  10  29
BRANCH   1  32
ATOM     32  N   UNL     1      -1.584  10.170  18.885  0.00  0.00    +0.000 N 
ATOM     33  H   UNL     1      -1.013   9.333  18.804  0.00  0.00    +0.000 HD
BRANCH  32  35
ATOM     34  C   UNL     1      -2.023   9.958  16.520  0.00  0.00    +0.000 C 
ATOM     35  C   UNL     1      -2.622  10.331  17.877  0.00  0.00    +0.000 C 
ATOM     36  C   UNL     1      -3.794   9.384  18.175  0.00  0.00    +0.000 C 
ENDBRANCH  32  35
ENDBRANCH   1  32
TORSDOF 6
ENDMDL
MODEL 7
REMARK VINA RESULT:      -7.4      1.566      1.727
REMARK  Name = 
REMARK  9 active torsions:
REMARK  status: ('A' for Active; 'I' for Inactive)
REMARK    1  A    between atoms: C_1  and  C_2
REMARK    2  A    between atoms: C_2  and  C_3
REMARK    3  A    between atoms: C_2  and  N_4
REMARK    4  A    between atoms: N_4  and  C_5
REMARK    5  A    between atoms: C_10  and  N_11
REMARK    6  A    between atoms: C_14  and  O_15
REMARK    7  A    between atoms: O_15  and  C_16
REMARK    8  A    between atoms: C_26  and  C_27
REMARK    9  A    between atoms: C_29  and  C_31
REMARK                            x       y       z     vdW  Elec       q    Type
REMARK                         _______ _______ _______ _____ _____    ______ ____
ROOT
ATOM      1  C   UNL     1      -1.073  11.477  18.534  0.00  0.00    +0.000 A 
ATOM      2  N   UNL     1      -1.684  12.669  18.736  0.00  0.00    +0.000 NA
ATOM      3  C   UNL     1      -1.450  13.289  19.914  0.00  0.00    +0.000 A 
ATOM      4  C   UNL     1      -0.635  12.730  20.894  0.00  0.00    +0.000 A 
ATOM      5  N   UNL     1       0.009  11.552  20.685  0.00  0.00    +0.000 NA
ATOM      6  C   UNL     1      -0.187  10.915  19.499  0.00  0.00    +0.000 A 
ATOM      7  C   UNL     1      -0.460  13.408  22.248  0.00  0.00    +0.000 C 
ATOM      8  C   UNL     1      -1.163  12.593  23.342  0.00  0.00    +0.000 C 
ATOM      9  N   UNL     1      -0.965  14.798  22.248  0.00  0.00    +0.000 N 
ATOM     10  C   UNL     1      -0.143  15.806  22.745  0.00  0.00    +0.000 C 
ATOM     11  O   UNL     1       0.959  15.581  23.234  0.00  0.00    +0.000 OA
ATOM     12  C   UNL     1      -2.236  14.991  21.550  0.00  0.00    +0.000 C 
ATOM     13  C   UNL     1      -2.066  14.648  20.081  0.00  0.00    +0.000 C 
ENDROOT
BRANCH   6  14
ATOM     14  N   UNL     1       0.565   9.774  19.240  0.00  0.00    +0.000 N 
ATOM     15  C   UNL     1       0.409   8.651  20.148  0.00  0.00    +0.000 C 
ATOM     16  C   UNL     1       1.800   8.059  20.326  0.00  0.00    +0.000 C 
ATOM     17  C   UNL     1       2.409   7.612  18.988  0.00  0.00    +0.000 C 
ATOM     18  C   UNL     1       2.330   8.746  17.944  0.00  0.00    +0.000 C 
ATOM     19  C   UNL     1       0.933   9.378  17.879  0.00  0.00    +0.000 C 
BRANCH  17  20
ATOM     20  O   UNL     1       1.725   6.466  18.454  0.00  0.00    +0.000 OA
BRANCH  20  21
ATOM     21  C   UNL     1       2.343   5.253  18.603  0.00  0.00    +0.000 A 
ATOM     22  C   UNL     1       3.393   4.792  17.806  0.00  0.00    +0.000 A 
ATOM     23  C   UNL     1       4.010   3.571  18.082  0.00  0.00    +0.000 A 
ATOM     24  C   UNL     1       3.561   2.794  19.139  0.00  0.00    +0.000 A 
ATOM     25  F   UNL     1       4.152   1.620  19.390  0.00  0.00    +0.000 F 
ATOM     26  C   UNL     1       2.515   3.221  19.940  0.00  0.00    +0.000 A 
ATOM     27  C   UNL     1       1.917   4.449  19.672  0.00  0.00    +0.000 A 
ATOM     28  F   UNL     1       0.903   4.855  20.456  0.00  0.00    +0.000 F 
ENDBRANCH  20  21
ENDBRANCH  17  20
ENDBRANCH   6  14
BRANCH  10  29
ATOM     29  C   UNL     1      -0.611  17.224  22.641  0.00  0.00    +0.000 C 
ATOM     30  C   UNL     1      -1.391  17.871  23.765  0.00  0.00    +0.000 C 
ATOM     31  C   UNL     1       0.031  18.277  23.518  0.00  0.00    +0.000 C 
ENDBRANCH  10  29
BRANCH   1  32
ATOM     32  N   UNL     1      -1.279  10.840  17.297  0.00  0.00    +0.000 N 
ATOM     33  H   UNL     1      -0.636  11.246  16.624  0.00  0.00    +0.000 HD
BRANCH  32  35
ATOM     34  C   UNL     1      -2.631  10.281  15.376  0.00  0.00    +0.000 C 
ATOM     35  C   UNL     1      -2.657  10.691  16.849  0.00  0.00    +0.000 C 
ATOM     36  C   UNL     1      -3.354   9.586  17.656  0.00  0.00    +0.000 C 
ENDBRANCH  32  35
ENDBRANCH   1  32
TORSDOF 6
ENDMDL
MODEL 8
REMARK VINA RESULT:      -7.4      4.149      6.981
REMARK  Name = 
REMARK  9 active torsions:
REMARK  status: ('A' for Active; 'I' for Inactive)
REMARK    1  A    between atoms: C_1  and  C_2
REMARK    2  A    between atoms: C_2  and  C_3
REMARK    3  A    between atoms: C_2  and  N_4
REMARK    4  A    between atoms: N_4  and  C_5
REMARK    5  A    between atoms: C_10  and  N_11
REMARK    6  A    between atoms: C_14  and  O_15
REMARK    7  A    between atoms: O_15  and  C_16
REMARK    8  A    between atoms: C_26  and  C_27
REMARK    9  A    between atoms: C_29  and  C_31
REMARK                            x       y       z     vdW  Elec       q    Type
REMARK                         _______ _______ _______ _____ _____    ______ ____
ROOT
ATOM      1  C   UNL     1       3.007   6.603  19.675  0.00  0.00    +0.000 A 
ATOM      2  N   UNL     1       1.924   7.038  20.363  0.00  0.00    +0.000 NA
ATOM      3  C   UNL     1       1.273   8.114  19.869  0.00  0.00    +0.000 A 
ATOM      4  C   UNL     1       1.697   8.768  18.716  0.00  0.00    +0.000 A 
ATOM      5  N   UNL     1       2.761   8.317  18.002  0.00  0.00    +0.000 NA
ATOM      6  C   UNL     1       3.422   7.220  18.460  0.00  0.00    +0.000 A 
ATOM      7  C   UNL     1       0.997  10.033  18.231  0.00  0.00    +0.000 C 
ATOM      8  C   UNL     1       1.910  11.252  18.428  0.00  0.00    +0.000 C 
ATOM      9  N   UNL     1      -0.297  10.254  18.911  0.00  0.00    +0.000 N 
ATOM     10  C   UNL     1      -1.421  10.520  18.135  0.00  0.00    +0.000 C 
ATOM     11  O   UNL     1      -1.371  10.635  16.915  0.00  0.00    +0.000 OA
ATOM     12  C   UNL     1      -0.288   9.991  20.350  0.00  0.00    +0.000 C 
ATOM     13  C   UNL     1       0.027   8.526  20.597  0.00  0.00    +0.000 C 
ENDROOT
BRANCH   6  14
ATOM     14  N   UNL     1       4.432   6.689  17.665  0.00  0.00    +0.000 N 
ATOM     15  C   UNL     1       4.043   5.739  16.637  0.00  0.00    +0.000 C 
ATOM     16  C   UNL     1       5.129   4.671  16.620  0.00  0.00    +0.000 C 
ATOM     17  C   UNL     1       6.515   5.268  16.330  0.00  0.00    +0.000 C 
ATOM     18  C   UNL     1       6.807   6.457  17.270  0.00  0.00    +0.000 C 
ATOM     19  C   UNL     1       5.639   7.449  17.330  0.00  0.00    +0.000 C 
BRANCH  17  20
ATOM     20  O   UNL     1       6.615   5.736  14.975  0.00  0.00    +0.000 OA
BRANCH  20  21
ATOM     21  C   UNL     1       6.534   4.790  13.988  0.00  0.00    +0.000 A 
ATOM     22  C   UNL     1       5.502   3.858  13.861  0.00  0.00    +0.000 A 
ATOM     23  C   UNL     1       5.468   2.979  12.778  0.00  0.00    +0.000 A 
ATOM     24  C   UNL     1       6.480   3.013  11.830  0.00  0.00    +0.000 A 
ATOM     25  F   UNL     1       6.443   2.160  10.799  0.00  0.00    +0.000 F 
ATOM     26  C   UNL     1       7.521   3.920  11.934  0.00  0.00    +0.000 A 
ATOM     27  C   UNL     1       7.539   4.807  13.007  0.00  0.00    +0.000 A 
ATOM     28  F   UNL     1       8.554   5.684  13.099  0.00  0.00    +0.000 F 
ENDBRANCH  20  21
ENDBRANCH  17  20
ENDBRANCH   6  14
BRANCH  10  29
ATOM     29  C   UNL     1      -2.749  10.632  18.817  0.00  0.00    +0.000 C 
ATOM     30  C   UNL     1      -3.567  11.902  18.726  0.00  0.00    +0.000 C 
ATOM     31  C   UNL     1      -4.007  10.680  17.977  0.00  0.00    +0.000 C 
ENDBRANCH  10  29
BRANCH   1  32
ATOM     32  N   UNL     1       3.671   5.461  20.160  0.00  0.00    +0.000 N 
ATOM     33  H   UNL     1       4.643   5.517  19.870  0.00  0.00    +0.000 HD
BRANCH  32  35
ATOM     34  C   UNL     1       4.106   3.134  19.681  0.00  0.00    +0.000 C 
ATOM     35  C   UNL     1       3.019   4.175  19.951  0.00  0.00    +0.000 C 
ATOM     36  C   UNL     1       2.248   3.766  21.214  0.00  0.00    +0.000 C 
ENDBRANCH  32  35
ENDBRANCH   1  32
TORSDOF 6
ENDMDL
MODEL 9
REMARK VINA RESULT:      -7.4      2.559      3.551
REMARK  Name = 
REMARK  9 active torsions:
REMARK  status: ('A' for Active; 'I' for Inactive)
REMARK    1  A    between atoms: C_1  and  C_2
REMARK    2  A    between atoms: C_2  and  C_3
REMARK    3  A    between atoms: C_2  and  N_4
REMARK    4  A    between atoms: N_4  and  C_5
REMARK    5  A    between atoms: C_10  and  N_11
REMARK    6  A    between atoms: C_14  and  O_15
REMARK    7  A    between atoms: O_15  and  C_16
REMARK    8  A    between atoms: C_26  and  C_27
REMARK    9  A    between atoms: C_29  and  C_31
REMARK                            x       y       z     vdW  Elec       q    Type
REMARK                         _______ _______ _______ _____ _____    ______ ____
ROOT
ATOM      1  C   UNL     1       0.297  12.826  19.829  0.00  0.00    +0.000 A 
ATOM      2  N   UNL     1      -0.397  13.917  20.229  0.00  0.00    +0.000 NA
ATOM      3  C   UNL     1      -1.714  13.752  20.481  0.00  0.00    +0.000 A 
ATOM      4  C   UNL     1      -2.347  12.522  20.321  0.00  0.00    +0.000 A 
ATOM      5  N   UNL     1      -1.651  11.416  19.953  0.00  0.00    +0.000 NA
ATOM      6  C   UNL     1      -0.318  11.545  19.716  0.00  0.00    +0.000 A 
ATOM      7  C   UNL     1      -3.852  12.384  20.526  0.00  0.00    +0.000 C 
ATOM      8  C   UNL     1      -4.549  12.140  19.180  0.00  0.00    +0.000 C 
ATOM      9  N   UNL     1      -4.438  13.566  21.194  0.00  0.00    +0.000 N 
ATOM     10  C   UNL     1      -5.267  13.367  22.294  0.00  0.00    +0.000 C 
ATOM     11  O   UNL     1      -5.576  12.250  22.697  0.00  0.00    +0.000 OA
ATOM     12  C   UNL     1      -3.932  14.854  20.720  0.00  0.00    +0.000 C 
ATOM     13  C   UNL     1      -2.445  14.952  21.008  0.00  0.00    +0.000 C 
ENDROOT
BRANCH   6  14
ATOM     14  N   UNL     1       0.413  10.390  19.458  0.00  0.00    +0.000 N 
ATOM     15  C   UNL     1       0.317   9.310  20.425  0.00  0.00    +0.000 C 
ATOM     16  C   UNL     1       1.717   8.720  20.534  0.00  0.00    +0.000 C 
ATOM     17  C   UNL     1       2.231   8.210  19.178  0.00  0.00    +0.000 C 
ATOM     18  C   UNL     1       2.082   9.295  18.092  0.00  0.00    +0.000 C 
ATOM     19  C   UNL     1       0.685   9.931  18.095  0.00  0.00    +0.000 C 
BRANCH  17  20
ATOM     20  O   UNL     1       1.510   7.044  18.745  0.00  0.00    +0.000 OA
BRANCH  20  21
ATOM     21  C   UNL     1       2.191   5.856  18.761  0.00  0.00    +0.000 A 
ATOM     22  C   UNL     1       3.064   5.426  17.759  0.00  0.00    +0.000 A 
ATOM     23  C   UNL     1       3.770   4.230  17.899  0.00  0.00    +0.000 A 
ATOM     24  C   UNL     1       3.586   3.448  19.029  0.00  0.00    +0.000 A 
ATOM     25  F   UNL     1       4.261   2.299  19.149  0.00  0.00    +0.000 F 
ATOM     26  C   UNL     1       2.720   3.844  20.033  0.00  0.00    +0.000 A 
ATOM     27  C   UNL     1       2.033   5.047  19.898  0.00  0.00    +0.000 A 
ATOM     28  F   UNL     1       1.194   5.423  20.879  0.00  0.00    +0.000 F 
ENDBRANCH  20  21
ENDBRANCH  17  20
ENDBRANCH   6  14
BRANCH  10  29
ATOM     29  C   UNL     1      -5.768  14.566  23.036  0.00  0.00    +0.000 C 
ATOM     30  C   UNL     1      -7.069  15.235  22.647  0.00  0.00    +0.000 C 
ATOM     31  C   UNL     1      -6.995  14.431  23.911  0.00  0.00    +0.000 C 
ENDBRANCH  10  29
BRANCH   1  32
ATOM     32  N   UNL     1       1.676  12.978  19.599  0.00  0.00    +0.000 N 
ATOM     33  H   UNL     1       2.146  12.148  19.949  0.00  0.00    +0.000 HD
BRANCH  32  35
ATOM     34  C   UNL     1       3.363  13.975  21.010  0.00  0.00    +0.000 C 
ATOM     35  C   UNL     1       2.274  14.252  19.973  0.00  0.00    +0.000 C 
ATOM     36  C   UNL     1       2.920  14.909  18.745  0.00  0.00    +0.000 C 
ENDBRANCH  32  35
ENDBRANCH   1  32
TORSDOF 6
ENDMDL
