MODEL 1
REMARK VINA RESULT:      -9.1      0.000      0.000
REMARK  Name = 
REMARK  11 active torsions:
REMARK  status: ('A' for Active; 'I' for Inactive)
REMARK    1  A    between atoms: C_1  and  C_2
REMARK    2  A    between atoms: C_2  and  C_3
REMARK    3  A    between atoms: C_3  and  N_4
REMARK    4  A    between atoms: N_4  and  C_5
REMARK    5  A    between atoms: C_9  and  C_10
REMARK    6  A    between atoms: C_14  and  O_15
REMARK    7  A    between atoms: C_18  and  C_19
REMARK    8  A    between atoms: N_21  and  C_22
REMARK    9  A    between atoms: C_22  and  C_23
REMARK   10  A    between atoms: C_23  and  C_24
REMARK   11  A    between atoms: C_24  and  C_25
REMARK                            x       y       z     vdW  Elec       q    Type
REMARK                         _______ _______ _______ _____ _____    ______ ____
ROOT
ATOM      1  C   UNL     1       6.592   4.106  14.805  0.00  0.00    +0.000 C 
ATOM      2  C   UNL     1       6.621   5.613  14.521  0.00  0.00    +0.000 C 
ATOM      3  C   UNL     1       6.307   6.521  15.755  0.00  0.00    +0.000 C 
ATOM      4  C   UNL     1       4.969   6.110  16.356  0.00  0.00    +0.000 C 
ATOM      5  C   UNL     1       5.043   4.678  16.929  0.00  0.00    +0.000 C 
ATOM      6  C   UNL     1       5.441   3.742  15.747  0.00  0.00    +0.000 C 
ATOM      7  C   UNL     1       6.171   4.551  17.999  0.00  0.00    +0.000 C 
ATOM      8  C   UNL     1       5.748   4.734  19.461  0.00  0.00    +0.000 C 
ATOM      9  C   UNL     1       7.442   5.370  17.641  0.00  0.00    +0.000 C 
ATOM     10  N   UNL     1       7.330   6.587  16.823  0.00  0.00    +0.000 NA
ENDROOT
BRANCH   5  11
ATOM     11  C   UNL     1       3.635   4.190  17.385  0.00  0.00    +0.000 A 
ATOM     12  C   UNL     1       2.627   5.129  17.695  0.00  0.00    +0.000 A 
ATOM     13  C   UNL     1       1.490   4.778  18.432  0.00  0.00    +0.000 A 
ATOM     14  C   UNL     1       1.296   3.455  18.820  0.00  0.00    +0.000 A 
ATOM     15  C   UNL     1       2.223   2.504  18.429  0.00  0.00    +0.000 A 
ATOM     16  C   UNL     1       3.363   2.846  17.697  0.00  0.00    +0.000 A 
BRANCH  15  17
ATOM     17  O   UNL     1       2.076   1.199  18.806  0.00  0.00    +0.000 OA
ATOM     18  H   UNL     1       1.342   1.148  19.441  0.00  0.00    +0.000 HD
ENDBRANCH  15  17
ENDBRANCH   5  11
BRANCH   1  19
ATOM     19  N   UNL     1       6.316   3.160  13.708  0.00  0.00    +0.000 NA
ATOM     20  H   UNL     1       7.112   2.528  13.599  0.00  0.00    +0.000 HD
BRANCH  19  21
ATOM     21  C   UNL     1       5.842   3.578  12.413  0.00  0.00    +0.000 C 
BRANCH  21  23
ATOM     22  C   UNL     1       3.932   3.555  10.679  0.00  0.00    +0.000 C 
ATOM     23  C   UNL     1       4.361   3.345  12.128  0.00  0.00    +0.000 C 
ENDBRANCH  21  23
ENDBRANCH  19  21
ENDBRANCH   1  19
BRANCH  10  24
ATOM     24  C   UNL     1       7.180   7.808  17.648  0.00  0.00    +0.000 C 
BRANCH  24  25
ATOM     25  C   UNL     1       8.428   8.694  17.714  0.00  0.00    +0.000 C 
BRANCH  25  26
ATOM     26  C   UNL     1       8.135  10.138  18.129  0.00  0.00    +0.000 C 
BRANCH  26  27
ATOM     27  C   UNL     1       9.411  10.730  18.684  0.00  0.00    +0.000 A 
ATOM     28  C   UNL     1       9.527  10.983  20.053  0.00  0.00    +0.000 A 
ATOM     29  C   UNL     1      10.640  11.662  20.548  0.00  0.00    +0.000 A 
ATOM     30  C   UNL     1      11.645  12.079  19.677  0.00  0.00    +0.000 A 
ATOM     31  C   UNL     1      11.558  11.801  18.316  0.00  0.00    +0.000 A 
ATOM     32  C   UNL     1      10.442  11.116  17.819  0.00  0.00    +0.000 A 
ENDBRANCH  26  27
ENDBRANCH  25  26
ENDBRANCH  24  25
ENDBRANCH  10  24
TORSDOF 9
ENDMDL
MODEL 2
REMARK VINA RESULT:      -8.7      0.857      1.193
REMARK  Name = 
REMARK  11 active torsions:
REMARK  status: ('A' for Active; 'I' for Inactive)
REMARK    1  A    between atoms: C_1  and  C_2
REMARK    2  A    between atoms: C_2  and  C_3
REMARK    3  A    between atoms: C_3  and  N_4
REMARK    4  A    between atoms: N_4  and  C_5
REMARK    5  A    between atoms: C_9  and  C_10
REMARK    6  A    between atoms: C_14  and  O_15
REMARK    7  A    between atoms: C_18  and  C_19
REMARK    8  A    between atoms: N_21  and  C_22
REMARK    9  A    between atoms: C_22  and  C_23
REMARK   10  A    between atoms: C_23  and  C_24
REMARK   11  A    between atoms: C_24  and  C_25
REMARK                            x       y       z     vdW  Elec       q    Type
REMARK                         _______ _______ _______ _____ _____    ______ ____
ROOT
ATOM      1  C   UNL     1       6.566   4.179  14.808  0.00  0.00    +0.000 C 
ATOM      2  C   UNL     1       6.630   5.690  14.558  0.00  0.00    +0.000 C 
ATOM      3  C   UNL     1       6.347   6.576  15.816  0.00  0.00    +0.000 C 
ATOM      4  C   UNL     1       5.005   6.184  16.419  0.00  0.00    +0.000 C 
ATOM      5  C   UNL     1       5.048   4.738  16.957  0.00  0.00    +0.000 C 
ATOM      6  C   UNL     1       5.414   3.820  15.751  0.00  0.00    +0.000 C 
ATOM      7  C   UNL     1       6.181   4.559  18.014  0.00  0.00    +0.000 C 
ATOM      8  C   UNL     1       5.774   4.718  19.484  0.00  0.00    +0.000 C 
ATOM      9  C   UNL     1       7.468   5.355  17.665  0.00  0.00    +0.000 C 
ATOM     10  N   UNL     1       7.380   6.593  16.876  0.00  0.00    +0.000 NA
ENDROOT
BRANCH   5  11
ATOM     11  C   UNL     1       3.632   4.273  17.414  0.00  0.00    +0.000 A 
ATOM     12  C   UNL     1       2.658   5.227  17.778  0.00  0.00    +0.000 A 
ATOM     13  C   UNL     1       1.522   4.880  18.517  0.00  0.00    +0.000 A 
ATOM     14  C   UNL     1       1.292   3.547  18.851  0.00  0.00    +0.000 A 
ATOM     15  C   UNL     1       2.185   2.587  18.407  0.00  0.00    +0.000 A 
ATOM     16  C   UNL     1       3.324   2.926  17.673  0.00  0.00    +0.000 A 
BRANCH  15  17
ATOM     17  O   UNL     1       2.003   1.272  18.730  0.00  0.00    +0.000 OA
ATOM     18  H   UNL     1       2.026   1.192  19.698  0.00  0.00    +0.000 HD
ENDBRANCH  15  17
ENDBRANCH   5  11
BRANCH   1  19
ATOM     19  N   UNL     1       6.259   3.265  13.692  0.00  0.00    +0.000 NA
ATOM     20  H   UNL     1       7.131   2.983  13.237  0.00  0.00    +0.000 HD
BRANCH  19  21
ATOM     21  C   UNL     1       5.258   3.554  12.695  0.00  0.00    +0.000 C 
BRANCH  21  23
ATOM     22  C   UNL     1       6.371   1.636  11.377  0.00  0.00    +0.000 C 
ATOM     23  C   UNL     1       5.195   2.599  11.507  0.00  0.00    +0.000 C 
ENDBRANCH  21  23
ENDBRANCH  19  21
ENDBRANCH   1  19
BRANCH  10  24
ATOM     24  C   UNL     1       7.265   7.798  17.730  0.00  0.00    +0.000 C 
BRANCH  24  25
ATOM     25  C   UNL     1       8.340   8.862  17.484  0.00  0.00    +0.000 C 
BRANCH  25  26
ATOM     26  C   UNL     1       8.805   9.572  18.758  0.00  0.00    +0.000 C 
BRANCH  26  27
ATOM     27  C   UNL     1       9.421  10.893  18.356  0.00  0.00    +0.000 A 
ATOM     28  C   UNL     1       8.605  11.950  17.946  0.00  0.00    +0.000 A 
ATOM     29  C   UNL     1       9.174  13.117  17.436  0.00  0.00    +0.000 A 
ATOM     30  C   UNL     1      10.560  13.234  17.347  0.00  0.00    +0.000 A 
ATOM     31  C   UNL     1      11.384  12.202  17.786  0.00  0.00    +0.000 A 
ATOM     32  C   UNL     1      10.813  11.032  18.302  0.00  0.00    +0.000 A 
ENDBRANCH  26  27
ENDBRANCH  25  26
ENDBRANCH  24  25
ENDBRANCH  10  24
TORSDOF 9
ENDMDL
MODEL 3
REMARK VINA RESULT:      -8.6      0.976      1.529
REMARK  Name = 
REMARK  11 active torsions:
REMARK  status: ('A' for Active; 'I' for Inactive)
REMARK    1  A    between atoms: C_1  and  C_2
REMARK    2  A    between atoms: C_2  and  C_3
REMARK    3  A    between atoms: C_3  and  N_4
REMARK    4  A    between atoms: N_4  and  C_5
REMARK    5  A    between atoms: C_9  and  C_10
REMARK    6  A    between atoms: C_14  and  O_15
REMARK    7  A    between atoms: C_18  and  C_19
REMARK    8  A    between atoms: N_21  and  C_22
REMARK    9  A    between atoms: C_22  and  C_23
REMARK   10  A    between atoms: C_23  and  C_24
REMARK   11  A    between atoms: C_24  and  C_25
REMARK                            x       y       z     vdW  Elec       q    Type
REMARK                         _______ _______ _______ _____ _____    ______ ____
ROOT
ATOM      1  C   UNL     1       6.206   4.251  14.926  0.00  0.00    +0.000 C 
ATOM      2  C   UNL     1       5.934   5.737  14.663  0.00  0.00    +0.000 C 
ATOM      3  C   UNL     1       5.769   6.611  15.950  0.00  0.00    +0.000 C 
ATOM      4  C   UNL     1       4.684   6.010  16.834  0.00  0.00    +0.000 C 
ATOM      5  C   UNL     1       5.109   4.620  17.354  0.00  0.00    +0.000 C 
ATOM      6  C   UNL     1       5.371   3.732  16.099  0.00  0.00    +0.000 C 
ATOM      7  C   UNL     1       6.456   4.694  18.137  0.00  0.00    +0.000 C 
ATOM      8  C   UNL     1       6.352   4.841  19.660  0.00  0.00    +0.000 C 
ATOM      9  C   UNL     1       7.468   5.693  17.512  0.00  0.00    +0.000 C 
ATOM     10  N   UNL     1       6.984   6.860  16.758  0.00  0.00    +0.000 NA
ENDROOT
BRANCH   5  11
ATOM     11  C   UNL     1       3.936   3.928  18.111  0.00  0.00    +0.000 A 
ATOM     12  C   UNL     1       3.509   2.638  17.727  0.00  0.00    +0.000 A 
ATOM     13  C   UNL     1       2.267   2.123  18.116  0.00  0.00    +0.000 A 
ATOM     14  C   UNL     1       1.444   2.862  18.963  0.00  0.00    +0.000 A 
ATOM     15  C   UNL     1       1.898   4.082  19.433  0.00  0.00    +0.000 A 
ATOM     16  C   UNL     1       3.134   4.605  19.047  0.00  0.00    +0.000 A 
BRANCH  15  17
ATOM     17  O   UNL     1       1.112   4.843  20.252  0.00  0.00    +0.000 OA
ATOM     18  H   UNL     1       1.416   5.764  20.194  0.00  0.00    +0.000 HD
ENDBRANCH  15  17
ENDBRANCH   5  11
BRANCH   1  19
ATOM     19  N   UNL     1       5.840   3.250  13.906  0.00  0.00    +0.000 NA
ATOM     20  H   UNL     1       6.098   2.318  14.240  0.00  0.00    +0.000 HD
BRANCH  19  21
ATOM     21  C   UNL     1       6.189   3.384  12.514  0.00  0.00    +0.000 C 
BRANCH  21  23
ATOM     22  C   UNL     1       3.935   3.285  11.264  0.00  0.00    +0.000 C 
ATOM     23  C   UNL     1       5.297   2.646  11.521  0.00  0.00    +0.000 C 
ENDBRANCH  21  23
ENDBRANCH  19  21
ENDBRANCH   1  19
BRANCH  10  24
ATOM     24  C   UNL     1       6.835   8.060  17.613  0.00  0.00    +0.000 C 
BRANCH  24  25
ATOM     25  C   UNL     1       8.156   8.685  18.074  0.00  0.00    +0.000 C 
BRANCH  25  26
ATOM     26  C   UNL     1       8.427  10.064  17.467  0.00  0.00    +0.000 C 
BRANCH  26  27
ATOM     27  C   UNL     1       9.386  10.794  18.381  0.00  0.00    +0.000 A 
ATOM     28  C   UNL     1      10.466  11.498  17.844  0.00  0.00    +0.000 A 
ATOM     29  C   UNL     1      11.432  12.048  18.686  0.00  0.00    +0.000 A 
ATOM     30  C   UNL     1      11.314  11.905  20.067  0.00  0.00    +0.000 A 
ATOM     31  C   UNL     1      10.223  11.237  20.616  0.00  0.00    +0.000 A 
ATOM     32  C   UNL     1       9.250  10.688  19.770  0.00  0.00    +0.000 A 
ENDBRANCH  26  27
ENDBRANCH  25  26
ENDBRANCH  24  25
ENDBRANCH  10  24
TORSDOF 9
ENDMDL
MODEL 4
REMARK VINA RESULT:      -8.4      3.726      7.564
REMARK  Name = 
REMARK  11 active torsions:
REMARK  status: ('A' for Active; 'I' for Inactive)
REMARK    1  A    between atoms: C_1  and  C_2
REMARK    2  A    between atoms: C_2  and  C_3
REMARK    3  A    between atoms: C_3  and  N_4
REMARK    4  A    between atoms: N_4  and  C_5
REMARK    5  A    between atoms: C_9  and  C_10
REMARK    6  A    between atoms: C_14  and  O_15
REMARK    7  A    between atoms: C_18  and  C_19
REMARK    8  A    between atoms: N_21  and  C_22
REMARK    9  A    between atoms: C_22  and  C_23
REMARK   10  A    between atoms: C_23  and  C_24
REMARK   11  A    between atoms: C_24  and  C_25
REMARK                            x       y       z     vdW  Elec       q    Type
REMARK                         _______ _______ _______ _____ _____    ______ ____
ROOT
ATOM      1  C   UNL     1       4.296   2.998  19.363  0.00  0.00    +0.000 C 
ATOM      2  C   UNL     1       3.833   2.476  17.998  0.00  0.00    +0.000 C 
ATOM      3  C   UNL     1       4.057   3.465  16.806  0.00  0.00    +0.000 C 
ATOM      4  C   UNL     1       3.398   4.799  17.126  0.00  0.00    +0.000 C 
ATOM      5  C   UNL     1       4.086   5.474  18.333  0.00  0.00    +0.000 C 
ATOM      6  C   UNL     1       3.964   4.484  19.531  0.00  0.00    +0.000 C 
ATOM      7  C   UNL     1       5.610   5.679  18.076  0.00  0.00    +0.000 C 
ATOM      8  C   UNL     1       6.031   7.046  17.523  0.00  0.00    +0.000 C 
ATOM      9  C   UNL     1       6.260   4.500  17.301  0.00  0.00    +0.000 C 
ATOM     10  N   UNL     1       5.454   3.694  16.372  0.00  0.00    +0.000 NA
ENDROOT
BRANCH   5  11
ATOM     11  C   UNL     1       3.307   6.750  18.774  0.00  0.00    +0.000 A 
ATOM     12  C   UNL     1       2.630   6.773  20.012  0.00  0.00    +0.000 A 
ATOM     13  C   UNL     1       1.645   7.724  20.299  0.00  0.00    +0.000 A 
ATOM     14  C   UNL     1       1.359   8.728  19.377  0.00  0.00    +0.000 A 
ATOM     15  C   UNL     1       2.091   8.780  18.203  0.00  0.00    +0.000 A 
ATOM     16  C   UNL     1       3.073   7.832  17.906  0.00  0.00    +0.000 A 
BRANCH  15  17
ATOM     17  O   UNL     1       1.827   9.739  17.266  0.00  0.00    +0.000 OA
ATOM     18  H   UNL     1       2.095   9.395  16.397  0.00  0.00    +0.000 HD
ENDBRANCH  15  17
ENDBRANCH   5  11
BRANCH   1  19
ATOM     19  N   UNL     1       3.680   2.471  20.594  0.00  0.00    +0.000 NA
ATOM     20  H   UNL     1       3.352   1.517  20.426  0.00  0.00    +0.000 HD
BRANCH  19  21
ATOM     21  C   UNL     1       2.695   3.201  21.353  0.00  0.00    +0.000 C 
BRANCH  21  23
ATOM     22  C   UNL     1       0.636   3.126  19.801  0.00  0.00    +0.000 C 
ATOM     23  C   UNL     1       1.242   2.777  21.157  0.00  0.00    +0.000 C 
ENDBRANCH  21  23
ENDBRANCH  19  21
ENDBRANCH   1  19
BRANCH  10  24
ATOM     24  C   UNL     1       5.516   4.205  14.983  0.00  0.00    +0.000 C 
BRANCH  24  25
ATOM     25  C   UNL     1       6.925   4.558  14.494  0.00  0.00    +0.000 C 
BRANCH  25  26
ATOM     26  C   UNL     1       6.983   4.937  13.012  0.00  0.00    +0.000 C 
BRANCH  26  27
ATOM     27  C   UNL     1       6.582   3.723  12.205  0.00  0.00    +0.000 A 
ATOM     28  C   UNL     1       5.231   3.437  11.995  0.00  0.00    +0.000 A 
ATOM     29  C   UNL     1       4.855   2.244  11.379  0.00  0.00    +0.000 A 
ATOM     30  C   UNL     1       5.829   1.338  10.962  0.00  0.00    +0.000 A 
ATOM     31  C   UNL     1       7.180   1.628  11.133  0.00  0.00    +0.000 A 
ATOM     32  C   UNL     1       7.558   2.829  11.748  0.00  0.00    +0.000 A 
ENDBRANCH  26  27
ENDBRANCH  25  26
ENDBRANCH  24  25
ENDBRANCH  10  24
TORSDOF 9
ENDMDL
MODEL 5
REMARK VINA RESULT:      -8.3      0.829      1.196
REMARK  Name = 
REMARK  11 active torsions:
REMARK  status: ('A' for Active; 'I' for Inactive)
REMARK    1  A    between atoms: C_1  and  C_2
REMARK    2  A    between atoms: C_2  and  C_3
REMARK    3  A    between atoms: C_3  and  N_4
REMARK    4  A    between atoms: N_4  and  C_5
REMARK    5  A    between atoms: C_9  and  C_10
REMARK    6  A    between atoms: C_14  and  O_15
REMARK    7  A    between atoms: C_18  and  C_19
REMARK    8  A    between atoms: N_21  and  C_22
REMARK    9  A    between atoms: C_22  and  C_23
REMARK   10  A    between atoms: C_23  and  C_24
REMARK   11  A    between atoms: C_24  and  C_25
REMARK                            x       y       z     vdW  Elec       q    Type
REMARK                         _______ _______ _______ _____ _____    ______ ____
ROOT
ATOM      1  C   UNL     1       6.448   4.106  14.878  0.00  0.00    +0.000 C 
ATOM      2  C   UNL     1       6.554   5.592  14.516  0.00  0.00    +0.000 C 
ATOM      3  C   UNL     1       6.319   6.576  15.708  0.00  0.00    +0.000 C 
ATOM      4  C   UNL     1       4.975   6.272  16.357  0.00  0.00    +0.000 C 
ATOM      5  C   UNL     1       4.983   4.869  17.000  0.00  0.00    +0.000 C 
ATOM      6  C   UNL     1       5.301   3.853  15.860  0.00  0.00    +0.000 C 
ATOM      7  C   UNL     1       6.126   4.732  18.052  0.00  0.00    +0.000 C 
ATOM      8  C   UNL     1       5.748   5.011  19.512  0.00  0.00    +0.000 C 
ATOM      9  C   UNL     1       7.432   5.459  17.628  0.00  0.00    +0.000 C 
ATOM     10  N   UNL     1       7.369   6.638  16.751  0.00  0.00    +0.000 NA
ENDROOT
BRANCH   5  11
ATOM     11  C   UNL     1       3.561   4.484  17.509  0.00  0.00    +0.000 A 
ATOM     12  C   UNL     1       2.716   5.471  18.062  0.00  0.00    +0.000 A 
ATOM     13  C   UNL     1       1.603   5.140  18.842  0.00  0.00    +0.000 A 
ATOM     14  C   UNL     1       1.261   3.803  19.032  0.00  0.00    +0.000 A 
ATOM     15  C   UNL     1       2.019   2.828  18.405  0.00  0.00    +0.000 A 
ATOM     16  C   UNL     1       3.134   3.149  17.629  0.00  0.00    +0.000 A 
BRANCH  15  17
ATOM     17  O   UNL     1       1.725   1.505  18.583  0.00  0.00    +0.000 OA
ATOM     18  H   UNL     1       1.232   1.197  17.804  0.00  0.00    +0.000 HD
ENDBRANCH  15  17
ENDBRANCH   5  11
BRANCH   1  19
ATOM     19  N   UNL     1       6.095   3.123  13.836  0.00  0.00    +0.000 NA
ATOM     20  H   UNL     1       6.327   2.183  14.166  0.00  0.00    +0.000 HD
BRANCH  19  21
ATOM     21  C   UNL     1       6.487   3.268  12.457  0.00  0.00    +0.000 C 
BRANCH  21  23
ATOM     22  C   UNL     1       4.048   3.194  11.619  0.00  0.00    +0.000 C 
ATOM     23  C   UNL     1       5.495   2.755  11.416  0.00  0.00    +0.000 C 
ENDBRANCH  21  23
ENDBRANCH  19  21
ENDBRANCH   1  19
BRANCH  10  24
ATOM     24  C   UNL     1       7.305   7.905  17.515  0.00  0.00    +0.000 C 
BRANCH  24  25
ATOM     25  C   UNL     1       8.662   8.569  17.770  0.00  0.00    +0.000 C 
BRANCH  25  26
ATOM     26  C   UNL     1       8.617   9.674  18.828  0.00  0.00    +0.000 C 
BRANCH  26  27
ATOM     27  C   UNL     1       9.251  10.912  18.236  0.00  0.00    +0.000 A 
ATOM     28  C   UNL     1      10.629  10.953  18.009  0.00  0.00    +0.000 A 
ATOM     29  C   UNL     1      11.237  12.140  17.602  0.00  0.00    +0.000 A 
ATOM     30  C   UNL     1      10.467  13.285  17.409  0.00  0.00    +0.000 A 
ATOM     31  C   UNL     1       9.088  13.248  17.596  0.00  0.00    +0.000 A 
ATOM     32  C   UNL     1       8.477  12.054  18.001  0.00  0.00    +0.000 A 
ENDBRANCH  26  27
ENDBRANCH  25  26
ENDBRANCH  24  25
ENDBRANCH  10  24
TORSDOF 9
ENDMDL
MODEL 6
REMARK VINA RESULT:      -8.3      3.801      7.572
REMARK  Name = 
REMARK  11 active torsions:
REMARK  status: ('A' for Active; 'I' for Inactive)
REMARK    1  A    between atoms: C_1  and  C_2
REMARK    2  A    between atoms: C_2  and  C_3
REMARK    3  A    between atoms: C_3  and  N_4
REMARK    4  A    between atoms: N_4  and  C_5
REMARK    5  A    between atoms: C_9  and  C_10
REMARK    6  A    between atoms: C_14  and  O_15
REMARK    7  A    between atoms: C_18  and  C_19
REMARK    8  A    between atoms: N_21  and  C_22
REMARK    9  A    between atoms: C_22  and  C_23
REMARK   10  A    between atoms: C_23  and  C_24
REMARK   11  A    between atoms: C_24  and  C_25
REMARK                            x       y       z     vdW  Elec       q    Type
REMARK                         _______ _______ _______ _____ _____    ______ ____
ROOT
ATOM      1  C   UNL     1       4.212   2.996  19.521  0.00  0.00    +0.000 C 
ATOM      2  C   UNL     1       3.894   2.360  18.162  0.00  0.00    +0.000 C 
ATOM      3  C   UNL     1       4.033   3.323  16.938  0.00  0.00    +0.000 C 
ATOM      4  C   UNL     1       3.177   4.561  17.169  0.00  0.00    +0.000 C 
ATOM      5  C   UNL     1       3.704   5.374  18.372  0.00  0.00    +0.000 C 
ATOM      6  C   UNL     1       3.666   4.424  19.607  0.00  0.00    +0.000 C 
ATOM      7  C   UNL     1       5.194   5.786  18.171  0.00  0.00    +0.000 C 
ATOM      8  C   UNL     1       5.443   7.176  17.574  0.00  0.00    +0.000 C 
ATOM      9  C   UNL     1       6.041   4.682  17.478  0.00  0.00    +0.000 C 
ATOM     10  N   UNL     1       5.403   3.733  16.553  0.00  0.00    +0.000 NA
ENDROOT
BRANCH   5  11
ATOM     11  C   UNL     1       2.731   6.541  18.720  0.00  0.00    +0.000 A 
ATOM     12  C   UNL     1       2.384   7.490  17.734  0.00  0.00    +0.000 A 
ATOM     13  C   UNL     1       1.820   8.728  18.065  0.00  0.00    +0.000 A 
ATOM     14  C   UNL     1       1.520   9.022  19.393  0.00  0.00    +0.000 A 
ATOM     15  C   UNL     1       1.757   8.056  20.357  0.00  0.00    +0.000 A 
ATOM     16  C   UNL     1       2.323   6.821  20.036  0.00  0.00    +0.000 A 
BRANCH  15  17
ATOM     17  O   UNL     1       1.492   8.314  21.672  0.00  0.00    +0.000 OA
ATOM     18  H   UNL     1       0.627   7.930  21.888  0.00  0.00    +0.000 HD
ENDBRANCH  15  17
ENDBRANCH   5  11
BRANCH   1  19
ATOM     19  N   UNL     1       3.618   2.434  20.748  0.00  0.00    +0.000 NA
ATOM     20  H   UNL     1       3.304   1.478  20.564  0.00  0.00    +0.000 HD
BRANCH  19  21
ATOM     21  C   UNL     1       2.629   3.132  21.531  0.00  0.00    +0.000 C 
BRANCH  21  23
ATOM     22  C   UNL     1       0.634   2.969  19.903  0.00  0.00    +0.000 C 
ATOM     23  C   UNL     1       1.177   2.719  21.307  0.00  0.00    +0.000 C 
ENDBRANCH  21  23
ENDBRANCH  19  21
ENDBRANCH   1  19
BRANCH  10  24
ATOM     24  C   UNL     1       5.460   4.194  15.147  0.00  0.00    +0.000 C 
BRANCH  24  25
ATOM     25  C   UNL     1       6.876   4.402  14.598  0.00  0.00    +0.000 C 
BRANCH  25  26
ATOM     26  C   UNL     1       6.907   4.863  13.138  0.00  0.00    +0.000 C 
BRANCH  26  27
ATOM     27  C   UNL     1       6.545   3.679  12.269  0.00  0.00    +0.000 A 
ATOM     28  C   UNL     1       5.205   3.378  12.019  0.00  0.00    +0.000 A 
ATOM     29  C   UNL     1       4.865   2.207  11.342  0.00  0.00    +0.000 A 
ATOM     30  C   UNL     1       5.865   1.340  10.904  0.00  0.00    +0.000 A 
ATOM     31  C   UNL     1       7.206   1.648  11.115  0.00  0.00    +0.000 A 
ATOM     32  C   UNL     1       7.548   2.826  11.792  0.00  0.00    +0.000 A 
ENDBRANCH  26  27
ENDBRANCH  25  26
ENDBRANCH  24  25
ENDBRANCH  10  24
TORSDOF 9
ENDMDL
MODEL 7
REMARK VINA RESULT:      -8.0      0.814      1.330
REMARK  Name = 
REMARK  11 active torsions:
REMARK  status: ('A' for Active; 'I' for Inactive)
REMARK    1  A    between atoms: C_1  and  C_2
REMARK    2  A    between atoms: C_2  and  C_3
REMARK    3  A    between atoms: C_3  and  N_4
REMARK    4  A    between atoms: N_4  and  C_5
REMARK    5  A    between atoms: C_9  and  C_10
REMARK    6  A    between atoms: C_14  and  O_15
REMARK    7  A    between atoms: C_18  and  C_19
REMARK    8  A    between atoms: N_21  and  C_22
REMARK    9  A    between atoms: C_22  and  C_23
REMARK   10  A    between atoms: C_23  and  C_24
REMARK   11  A    between atoms: C_24  and  C_25
REMARK                            x       y       z     vdW  Elec       q    Type
REMARK                         _______ _______ _______ _____ _____    ______ ____
ROOT
ATOM      1  C   UNL     1       6.490   4.151  15.025  0.00  0.00    +0.000 C 
ATOM      2  C   UNL     1       6.482   5.645  14.678  0.00  0.00    +0.000 C 
ATOM      3  C   UNL     1       6.132   6.594  15.871  0.00  0.00    +0.000 C 
ATOM      4  C   UNL     1       4.802   6.173  16.479  0.00  0.00    +0.000 C 
ATOM      5  C   UNL     1       4.909   4.768  17.111  0.00  0.00    +0.000 C 
ATOM      6  C   UNL     1       5.341   3.795  15.973  0.00  0.00    +0.000 C 
ATOM      7  C   UNL     1       6.030   4.716  18.194  0.00  0.00    +0.000 C 
ATOM      8  C   UNL     1       5.590   4.948  19.644  0.00  0.00    +0.000 C 
ATOM      9  C   UNL     1       7.282   5.554  17.812  0.00  0.00    +0.000 C 
ATOM     10  N   UNL     1       7.145   6.732  16.943  0.00  0.00    +0.000 NA
ENDROOT
BRANCH   5  11
ATOM     11  C   UNL     1       3.510   4.262  17.577  0.00  0.00    +0.000 A 
ATOM     12  C   UNL     1       2.521   5.185  17.980  0.00  0.00    +0.000 A 
ATOM     13  C   UNL     1       1.404   4.795  18.726  0.00  0.00    +0.000 A 
ATOM     14  C   UNL     1       1.208   3.449  19.030  0.00  0.00    +0.000 A 
ATOM     15  C   UNL     1       2.114   2.520  18.548  0.00  0.00    +0.000 A 
ATOM     16  C   UNL     1       3.234   2.902  17.806  0.00  0.00    +0.000 A 
BRANCH  15  17
ATOM     17  O   UNL     1       1.965   1.194  18.841  0.00  0.00    +0.000 OA
ATOM     18  H   UNL     1       2.562   0.688  18.265  0.00  0.00    +0.000 HD
ENDBRANCH  15  17
ENDBRANCH   5  11
BRANCH   1  19
ATOM     19  N   UNL     1       6.249   3.153  13.966  0.00  0.00    +0.000 NA
ATOM     20  H   UNL     1       7.044   2.512  13.919  0.00  0.00    +0.000 HD
BRANCH  19  21
ATOM     21  C   UNL     1       5.828   3.509  12.634  0.00  0.00    +0.000 C 
BRANCH  21  23
ATOM     22  C   UNL     1       7.651   5.090  11.722  0.00  0.00    +0.000 C 
ATOM     23  C   UNL     1       6.940   3.744  11.616  0.00  0.00    +0.000 C 
ENDBRANCH  21  23
ENDBRANCH  19  21
ENDBRANCH   1  19
BRANCH  10  24
ATOM     24  C   UNL     1       6.954   7.982  17.715  0.00  0.00    +0.000 C 
BRANCH  24  25
ATOM     25  C   UNL     1       8.120   8.973  17.626  0.00  0.00    +0.000 C 
BRANCH  25  26
ATOM     26  C   UNL     1       8.870   9.159  18.947  0.00  0.00    +0.000 C 
BRANCH  26  27
ATOM     27  C   UNL     1       9.393  10.577  18.990  0.00  0.00    +0.000 A 
ATOM     28  C   UNL     1       9.111  11.459  17.944  0.00  0.00    +0.000 A 
ATOM     29  C   UNL     1       9.711  12.717  17.908  0.00  0.00    +0.000 A 
ATOM     30  C   UNL     1      10.585  13.101  18.924  0.00  0.00    +0.000 A 
ATOM     31  C   UNL     1      10.845  12.245  19.990  0.00  0.00    +0.000 A 
ATOM     32  C   UNL     1      10.240  10.983  20.029  0.00  0.00    +0.000 A 
ENDBRANCH  26  27
ENDBRANCH  25  26
ENDBRANCH  24  25
ENDBRANCH  10  24
TORSDOF 9
ENDMDL
MODEL 8
REMARK VINA RESULT:      -8.0      1.080      1.109
REMARK  Name = 
REMARK  11 active torsions:
REMARK  status: ('A' for Active; 'I' for Inactive)
REMARK    1  A    between atoms: C_1  and  C_2
REMARK    2  A    between atoms: C_2  and  C_3
REMARK    3  A    between atoms: C_3  and  N_4
REMARK    4  A    between atoms: N_4  and  C_5
REMARK    5  A    between atoms: C_9  and  C_10
REMARK    6  A    between atoms: C_14  and  O_15
REMARK    7  A    between atoms: C_18  and  C_19
REMARK    8  A    between atoms: N_21  and  C_22
REMARK    9  A    between atoms: C_22  and  C_23
REMARK   10  A    between atoms: C_23  and  C_24
REMARK   11  A    between atoms: C_24  and  C_25
REMARK                            x       y       z     vdW  Elec       q    Type
REMARK                         _______ _______ _______ _____ _____    ______ ____
ROOT
ATOM      1  C   UNL     1       6.401   4.255  15.051  0.00  0.00    +0.000 C 
ATOM      2  C   UNL     1       6.242   5.739  14.702  0.00  0.00    +0.000 C 
ATOM      3  C   UNL     1       6.016   6.682  15.930  0.00  0.00    +0.000 C 
ATOM      4  C   UNL     1       4.823   6.185  16.736  0.00  0.00    +0.000 C 
ATOM      5  C   UNL     1       5.117   4.799  17.351  0.00  0.00    +0.000 C 
ATOM      6  C   UNL     1       5.435   3.839  16.164  0.00  0.00    +0.000 C 
ATOM      7  C   UNL     1       6.390   4.835  18.250  0.00  0.00    +0.000 C 
ATOM      8  C   UNL     1       6.161   5.059  19.750  0.00  0.00    +0.000 C 
ATOM      9  C   UNL     1       7.512   5.745  17.679  0.00  0.00    +0.000 C 
ATOM     10  N   UNL     1       7.168   6.900  16.835  0.00  0.00    +0.000 NA
ENDROOT
BRANCH   5  11
ATOM     11  C   UNL     1       3.841   4.211  18.026  0.00  0.00    +0.000 A 
ATOM     12  C   UNL     1       2.649   4.069  17.283  0.00  0.00    +0.000 A 
ATOM     13  C   UNL     1       1.408   3.890  17.902  0.00  0.00    +0.000 A 
ATOM     14  C   UNL     1       1.334   3.776  19.289  0.00  0.00    +0.000 A 
ATOM     15  C   UNL     1       2.508   3.806  20.021  0.00  0.00    +0.000 A 
ATOM     16  C   UNL     1       3.751   3.989  19.411  0.00  0.00    +0.000 A 
BRANCH  15  17
ATOM     17  O   UNL     1       2.474   3.716  21.385  0.00  0.00    +0.000 OA
ATOM     18  H   UNL     1       3.322   3.347  21.685  0.00  0.00    +0.000 HD
ENDBRANCH  15  17
ENDBRANCH   5  11
BRANCH   1  19
ATOM     19  N   UNL     1       6.068   3.228  14.046  0.00  0.00    +0.000 NA
ATOM     20  H   UNL     1       6.503   2.342  14.311  0.00  0.00    +0.000 HD
BRANCH  19  21
ATOM     21  C   UNL     1       6.218   3.442  12.628  0.00  0.00    +0.000 C 
BRANCH  21  23
ATOM     22  C   UNL     1       4.051   3.258  11.240  0.00  0.00    +0.000 C 
ATOM     23  C   UNL     1       5.336   2.589  11.720  0.00  0.00    +0.000 C 
ENDBRANCH  21  23
ENDBRANCH  19  21
ENDBRANCH   1  19
BRANCH  10  24
ATOM     24  C   UNL     1       7.016   8.146  17.621  0.00  0.00    +0.000 C 
BRANCH  24  25
ATOM     25  C   UNL     1       8.268   9.028  17.672  0.00  0.00    +0.000 C 
BRANCH  25  26
ATOM     26  C   UNL     1       8.754   9.322  19.093  0.00  0.00    +0.000 C 
BRANCH  26  27
ATOM     27  C   UNL     1       9.619  10.561  19.042  0.00  0.00    +0.000 A 
ATOM     28  C   UNL     1      10.172  11.079  20.215  0.00  0.00    +0.000 A 
ATOM     29  C   UNL     1      10.846  12.300  20.193  0.00  0.00    +0.000 A 
ATOM     30  C   UNL     1      10.980  12.999  18.995  0.00  0.00    +0.000 A 
ATOM     31  C   UNL     1      10.465  12.476  17.813  0.00  0.00    +0.000 A 
ATOM     32  C   UNL     1       9.791  11.248  17.834  0.00  0.00    +0.000 A 
ENDBRANCH  26  27
ENDBRANCH  25  26
ENDBRANCH  24  25
ENDBRANCH  10  24
TORSDOF 9
ENDMDL
MODEL 9
REMARK VINA RESULT:      -7.7      2.829      7.699
REMARK  Name = 
REMARK  11 active torsions:
REMARK  status: ('A' for Active; 'I' for Inactive)
REMARK    1  A    between atoms: C_1  and  C_2
REMARK    2  A    between atoms: C_2  and  C_3
REMARK    3  A    between atoms: C_3  and  N_4
REMARK    4  A    between atoms: N_4  and  C_5
REMARK    5  A    between atoms: C_9  and  C_10
REMARK    6  A    between atoms: C_14  and  O_15
REMARK    7  A    between atoms: C_18  and  C_19
REMARK    8  A    between atoms: N_21  and  C_22
REMARK    9  A    between atoms: C_22  and  C_23
REMARK   10  A    between atoms: C_23  and  C_24
REMARK   11  A    between atoms: C_24  and  C_25
REMARK                            x       y       z     vdW  Elec       q    Type
REMARK                         _______ _______ _______ _____ _____    ______ ____
ROOT
ATOM      1  C   UNL     1       6.603   6.526  17.447  0.00  0.00    +0.000 C 
ATOM      2  C   UNL     1       6.974   5.658  18.655  0.00  0.00    +0.000 C 
ATOM      3  C   UNL     1       5.831   4.719  19.165  0.00  0.00    +0.000 C 
ATOM      4  C   UNL     1       4.588   5.549  19.457  0.00  0.00    +0.000 C 
ATOM      5  C   UNL     1       4.033   6.178  18.160  0.00  0.00    +0.000 C 
ATOM      6  C   UNL     1       5.172   7.060  17.565  0.00  0.00    +0.000 C 
ATOM      7  C   UNL     1       3.708   5.088  17.094  0.00  0.00    +0.000 C 
ATOM      8  C   UNL     1       2.260   4.585  17.051  0.00  0.00    +0.000 C 
ATOM      9  C   UNL     1       4.740   3.927  17.079  0.00  0.00    +0.000 C 
ATOM     10  N   UNL     1       5.468   3.569  18.306  0.00  0.00    +0.000 NA
ENDROOT
BRANCH   5  11
ATOM     11  C   UNL     1       2.870   7.167  18.477  0.00  0.00    +0.000 A 
ATOM     12  C   UNL     1       2.521   8.169  17.547  0.00  0.00    +0.000 A 
ATOM     13  C   UNL     1       1.751   9.280  17.910  0.00  0.00    +0.000 A 
ATOM     14  C   UNL     1       1.247   9.382  19.204  0.00  0.00    +0.000 A 
ATOM     15  C   UNL     1       1.493   8.352  20.096  0.00  0.00    +0.000 A 
ATOM     16  C   UNL     1       2.264   7.242  19.743  0.00  0.00    +0.000 A 
BRANCH  15  17
ATOM     17  O   UNL     1       1.030   8.425  21.380  0.00  0.00    +0.000 OA
ATOM     18  H   UNL     1       1.659   8.953  21.899  0.00  0.00    +0.000 HD
ENDBRANCH  15  17
ENDBRANCH   5  11
BRANCH   1  19
ATOM     19  N   UNL     1       7.317   7.795  17.212  0.00  0.00    +0.000 NA
ATOM     20  H   UNL     1       7.703   7.794  16.265  0.00  0.00    +0.000 HD
BRANCH  19  21
ATOM     21  C   UNL     1       8.284   8.333  18.135  0.00  0.00    +0.000 C 
BRANCH  21  23
ATOM     22  C   UNL     1       9.334  10.434  19.202  0.00  0.00    +0.000 C 
ATOM     23  C   UNL     1       8.538   9.835  18.046  0.00  0.00    +0.000 C 
ENDBRANCH  21  23
ENDBRANCH  19  21
ENDBRANCH   1  19
BRANCH  10  24
ATOM     24  C   UNL     1       4.782   2.507  19.078  0.00  0.00    +0.000 C 
BRANCH  24  25
ATOM     25  C   UNL     1       3.872   1.597  18.246  0.00  0.00    +0.000 C 
BRANCH  25  26
ATOM     26  C   UNL     1       2.659   1.070  19.017  0.00  0.00    +0.000 C 
BRANCH  26  27
ATOM     27  C   UNL     1       2.104   2.208  19.845  0.00  0.00    +0.000 A 
ATOM     28  C   UNL     1       1.015   2.947  19.378  0.00  0.00    +0.000 A 
ATOM     29  C   UNL     1       0.595   4.085  20.067  0.00  0.00    +0.000 A 
ATOM     30  C   UNL     1       1.255   4.479  21.229  0.00  0.00    +0.000 A 
ATOM     31  C   UNL     1       2.319   3.730  21.723  0.00  0.00    +0.000 A 
ATOM     32  C   UNL     1       2.739   2.585  21.035  0.00  0.00    +0.000 A 
ENDBRANCH  26  27
ENDBRANCH  25  26
ENDBRANCH  24  25
ENDBRANCH  10  24
TORSDOF 9
ENDMDL
