MODEL 1
REMARK VINA RESULT:      -7.6      0.000      0.000
REMARK  Name = 
REMARK  5 active torsions:
REMARK  status: ('A' for Active; 'I' for Inactive)
REMARK    1  A    between atoms: C_1  and  O_2
REMARK    2  A    between atoms: O_2  and  C_3
REMARK    3  A    between atoms: C_3  and  C_4
REMARK    4  A    between atoms: C_4  and  N_5
REMARK    5  A    between atoms: C_16  and  N_17
REMARK                            x       y       z     vdW  Elec       q    Type
REMARK                         _______ _______ _______ _____ _____    ______ ____
ROOT
ATOM      1  N   UNL     1       6.422   5.008  15.890  0.00  0.00    +0.000 N 
ATOM      2  C   UNL     1       5.437   6.086  15.784  0.00  0.00    +0.000 C 
ATOM      3  C   UNL     1       4.660   6.307  17.089  0.00  0.00    +0.000 C 
ATOM      4  C   UNL     1       3.716   7.534  16.972  0.00  0.00    +0.000 C 
ATOM      5  C   UNL     1       2.783   7.679  18.187  0.00  0.00    +0.000 C 
ATOM      6  C   UNL     1       2.045   6.376  18.525  0.00  0.00    +0.000 C 
ATOM      7  N   UNL     1       3.003   5.288  18.555  0.00  0.00    +0.000 N 
ATOM      8  C   UNL     1       2.970   4.313  19.524  0.00  0.00    +0.000 A 
ATOM      9  N   UNL     1       2.110   4.425  20.543  0.00  0.00    +0.000 NA
ATOM     10  C   UNL     1       2.160   3.477  21.499  0.00  0.00    +0.000 A 
ATOM     11  C   UNL     1       3.038   2.428  21.479  0.00  0.00    +0.000 A 
ATOM     12  C   UNL     1       3.888   2.395  20.409  0.00  0.00    +0.000 A 
ATOM     13  N   UNL     1       3.857   3.304  19.437  0.00  0.00    +0.000 NA
ATOM     14  C   UNL     1       3.782   5.065  17.352  0.00  0.00    +0.000 C 
ATOM     15  C   UNL     1       5.713   6.559  18.191  0.00  0.00    +0.000 C 
ATOM     16  C   UNL     1       6.733   5.442  18.301  0.00  0.00    +0.000 C 
ATOM     17  C   UNL     1       7.266   4.902  16.991  0.00  0.00    +0.000 C 
ATOM     18  O   UNL     1       8.300   4.235  16.984  0.00  0.00    +0.000 OA
ENDROOT
BRANCH  12  19
ATOM     19  N   UNL     1       4.820   1.365  20.265  0.00  0.00    +0.000 N 
ATOM     20  H   UNL     1       5.267   1.385  19.356  0.00  0.00    +0.000 HD
ATOM     21  H   UNL     1       4.323   0.488  20.414  0.00  0.00    +0.000 HD
ENDBRANCH  12  19
BRANCH   1  22
ATOM     22  C   UNL     1       6.487   3.918  14.909  0.00  0.00    +0.000 C 
BRANCH  22  23
ATOM     23  C   UNL     1       5.651   4.021  13.636  0.00  0.00    +0.000 C 
BRANCH  23  25
ATOM     24  C   UNL     1       5.418   2.663  11.731  0.00  0.00    +0.000 C 
ATOM     25  O   UNL     1       6.323   3.388  12.550  0.00  0.00    +0.000 OA
ENDBRANCH  23  25
ENDBRANCH  22  23
ENDBRANCH   1  22
TORSDOF 4
ENDMDL
MODEL 2
REMARK VINA RESULT:      -7.6      1.173      1.180
REMARK  Name = 
REMARK  5 active torsions:
REMARK  status: ('A' for Active; 'I' for Inactive)
REMARK    1  A    between atoms: C_1  and  O_2
REMARK    2  A    between atoms: O_2  and  C_3
REMARK    3  A    between atoms: C_3  and  C_4
REMARK    4  A    between atoms: C_4  and  N_5
REMARK    5  A    between atoms: C_16  and  N_17
REMARK                            x       y       z     vdW  Elec       q    Type
REMARK                         _______ _______ _______ _____ _____    ______ ____
ROOT
ATOM      1  N   UNL     1       6.835   5.421  16.236  0.00  0.00    +0.000 N 
ATOM      2  C   UNL     1       5.945   6.582  16.277  0.00  0.00    +0.000 C 
ATOM      3  C   UNL     1       4.840   6.441  17.334  0.00  0.00    +0.000 C 
ATOM      4  C   UNL     1       3.995   7.740  17.429  0.00  0.00    +0.000 C 
ATOM      5  C   UNL     1       2.764   7.578  18.338  0.00  0.00    +0.000 C 
ATOM      6  C   UNL     1       1.931   6.336  17.990  0.00  0.00    +0.000 C 
ATOM      7  N   UNL     1       2.817   5.194  17.870  0.00  0.00    +0.000 N 
ATOM      8  C   UNL     1       2.494   3.961  18.385  0.00  0.00    +0.000 A 
ATOM      9  N   UNL     1       1.387   3.826  19.125  0.00  0.00    +0.000 NA
ATOM     10  C   UNL     1       1.147   2.612  19.658  0.00  0.00    +0.000 A 
ATOM     11  C   UNL     1       1.971   1.533  19.487  0.00  0.00    +0.000 A 
ATOM     12  C   UNL     1       3.084   1.761  18.727  0.00  0.00    +0.000 A 
ATOM     13  N   UNL     1       3.346   2.942  18.170  0.00  0.00    +0.000 NA
ATOM     14  C   UNL     1       3.895   5.299  16.904  0.00  0.00    +0.000 C 
ATOM     15  C   UNL     1       5.550   6.178  18.680  0.00  0.00    +0.000 C 
ATOM     16  C   UNL     1       6.473   4.976  18.637  0.00  0.00    +0.000 C 
ATOM     17  C   UNL     1       7.337   4.849  17.401  0.00  0.00    +0.000 C 
ATOM     18  O   UNL     1       8.317   4.104  17.416  0.00  0.00    +0.000 OA
ENDROOT
BRANCH  12  19
ATOM     19  N   UNL     1       3.995   0.736  18.465  0.00  0.00    +0.000 N 
ATOM     20  H   UNL     1       4.147   0.612  17.471  0.00  0.00    +0.000 HD
ATOM     21  H   UNL     1       3.624  -0.111  18.891  0.00  0.00    +0.000 HD
ENDBRANCH  12  19
BRANCH   1  22
ATOM     22  C   UNL     1       7.146   4.726  14.980  0.00  0.00    +0.000 C 
BRANCH  22  23
ATOM     23  C   UNL     1       6.013   4.049  14.212  0.00  0.00    +0.000 C 
BRANCH  23  25
ATOM     24  C   UNL     1       5.364   3.221  12.110  0.00  0.00    +0.000 C 
ATOM     25  O   UNL     1       6.439   3.717  12.893  0.00  0.00    +0.000 OA
ENDBRANCH  23  25
ENDBRANCH  22  23
ENDBRANCH   1  22
TORSDOF 4
ENDMDL
MODEL 3
REMARK VINA RESULT:      -7.3      0.982      1.128
REMARK  Name = 
REMARK  5 active torsions:
REMARK  status: ('A' for Active; 'I' for Inactive)
REMARK    1  A    between atoms: C_1  and  O_2
REMARK    2  A    between atoms: O_2  and  C_3
REMARK    3  A    between atoms: C_3  and  C_4
REMARK    4  A    between atoms: C_4  and  N_5
REMARK    5  A    between atoms: C_16  and  N_17
REMARK                            x       y       z     vdW  Elec       q    Type
REMARK                         _______ _______ _______ _____ _____    ______ ____
ROOT
ATOM      1  N   UNL     1       6.312   5.101  15.963  0.00  0.00    +0.000 N 
ATOM      2  C   UNL     1       5.327   6.183  15.910  0.00  0.00    +0.000 C 
ATOM      3  C   UNL     1       4.573   6.361  17.235  0.00  0.00    +0.000 C 
ATOM      4  C   UNL     1       3.629   7.592  17.175  0.00  0.00    +0.000 C 
ATOM      5  C   UNL     1       2.718   7.698  18.411  0.00  0.00    +0.000 C 
ATOM      6  C   UNL     1       1.985   6.385  18.720  0.00  0.00    +0.000 C 
ATOM      7  N   UNL     1       2.942   5.296  18.697  0.00  0.00    +0.000 N 
ATOM      8  C   UNL     1       2.926   4.290  19.635  0.00  0.00    +0.000 A 
ATOM      9  N   UNL     1       2.084   4.369  20.672  0.00  0.00    +0.000 NA
ATOM     10  C   UNL     1       2.151   3.390  21.595  0.00  0.00    +0.000 A 
ATOM     11  C   UNL     1       3.027   2.342  21.526  0.00  0.00    +0.000 A 
ATOM     12  C   UNL     1       3.858   2.343  20.440  0.00  0.00    +0.000 A 
ATOM     13  N   UNL     1       3.810   3.284  19.499  0.00  0.00    +0.000 NA
ATOM     14  C   UNL     1       3.699   5.112  17.473  0.00  0.00    +0.000 C 
ATOM     15  C   UNL     1       5.646   6.576  18.326  0.00  0.00    +0.000 C 
ATOM     16  C   UNL     1       6.667   5.457  18.380  0.00  0.00    +0.000 C 
ATOM     17  C   UNL     1       7.176   4.959  17.044  0.00  0.00    +0.000 C 
ATOM     18  O   UNL     1       8.209   4.292  16.997  0.00  0.00    +0.000 OA
ENDROOT
BRANCH  12  19
ATOM     19  N   UNL     1       4.785   1.318  20.245  0.00  0.00    +0.000 N 
ATOM     20  H   UNL     1       4.823   0.688  21.038  0.00  0.00    +0.000 HD
ATOM     21  H   UNL     1       5.689   1.758  20.080  0.00  0.00    +0.000 HD
ENDBRANCH  12  19
BRANCH   1  22
ATOM     22  C   UNL     1       6.358   4.044  14.946  0.00  0.00    +0.000 C 
BRANCH  22  23
ATOM     23  C   UNL     1       6.943   4.366  13.573  0.00  0.00    +0.000 C 
BRANCH  23  25
ATOM     24  C   UNL     1       8.312   5.875  12.400  0.00  0.00    +0.000 C 
ATOM     25  O   UNL     1       7.907   5.411  13.679  0.00  0.00    +0.000 OA
ENDBRANCH  23  25
ENDBRANCH  22  23
ENDBRANCH   1  22
TORSDOF 4
ENDMDL
MODEL 4
REMARK VINA RESULT:      -6.3      2.762      6.473
REMARK  Name = 
REMARK  5 active torsions:
REMARK  status: ('A' for Active; 'I' for Inactive)
REMARK    1  A    between atoms: C_1  and  O_2
REMARK    2  A    between atoms: O_2  and  C_3
REMARK    3  A    between atoms: C_3  and  C_4
REMARK    4  A    between atoms: C_4  and  N_5
REMARK    5  A    between atoms: C_16  and  N_17
REMARK                            x       y       z     vdW  Elec       q    Type
REMARK                         _______ _______ _______ _____ _____    ______ ____
ROOT
ATOM      1  N   UNL     1       2.971   3.576  18.592  0.00  0.00    +0.000 N 
ATOM      2  C   UNL     1       4.112   4.013  19.399  0.00  0.00    +0.000 C 
ATOM      3  C   UNL     1       5.130   4.827  18.589  0.00  0.00    +0.000 C 
ATOM      4  C   UNL     1       6.259   5.374  19.505  0.00  0.00    +0.000 C 
ATOM      5  C   UNL     1       7.397   6.035  18.708  0.00  0.00    +0.000 C 
ATOM      6  C   UNL     1       7.917   5.145  17.570  0.00  0.00    +0.000 C 
ATOM      7  N   UNL     1       6.787   4.643  16.812  0.00  0.00    +0.000 N 
ATOM      8  C   UNL     1       6.798   4.583  15.439  0.00  0.00    +0.000 A 
ATOM      9  N   UNL     1       7.827   5.111  14.764  0.00  0.00    +0.000 NA
ATOM     10  C   UNL     1       7.760   5.082  13.419  0.00  0.00    +0.000 A 
ATOM     11  C   UNL     1       6.707   4.554  12.724  0.00  0.00    +0.000 A 
ATOM     12  C   UNL     1       5.695   4.047  13.490  0.00  0.00    +0.000 A 
ATOM     13  N   UNL     1       5.732   4.042  14.821  0.00  0.00    +0.000 NA
ATOM     14  C   UNL     1       5.785   3.895  17.547  0.00  0.00    +0.000 C 
ATOM     15  C   UNL     1       4.352   6.003  17.957  0.00  0.00    +0.000 C 
ATOM     16  C   UNL     1       3.170   5.549  17.123  0.00  0.00    +0.000 C 
ATOM     17  C   UNL     1       2.326   4.443  17.717  0.00  0.00    +0.000 C 
ATOM     18  O   UNL     1       1.196   4.234  17.274  0.00  0.00    +0.000 OA
ENDROOT
BRANCH  12  19
ATOM     19  N   UNL     1       4.571   3.464  12.899  0.00  0.00    +0.000 N 
ATOM     20  H   UNL     1       3.976   3.013  13.584  0.00  0.00    +0.000 HD
ATOM     21  H   UNL     1       4.908   2.799  12.206  0.00  0.00    +0.000 HD
ENDBRANCH  12  19
BRANCH   1  22
ATOM     22  C   UNL     1       2.529   2.176  18.570  0.00  0.00    +0.000 C 
BRANCH  22  23
ATOM     23  C   UNL     1       1.515   1.706  19.610  0.00  0.00    +0.000 C 
BRANCH  23  25
ATOM     24  C   UNL     1       1.474   2.763  21.709  0.00  0.00    +0.000 C 
ATOM     25  O   UNL     1       1.028   2.815  20.362  0.00  0.00    +0.000 OA
ENDBRANCH  23  25
ENDBRANCH  22  23
ENDBRANCH   1  22
TORSDOF 4
ENDMDL
MODEL 5
REMARK VINA RESULT:      -6.2      2.670      5.868
REMARK  Name = 
REMARK  5 active torsions:
REMARK  status: ('A' for Active; 'I' for Inactive)
REMARK    1  A    between atoms: C_1  and  O_2
REMARK    2  A    between atoms: O_2  and  C_3
REMARK    3  A    between atoms: C_3  and  C_4
REMARK    4  A    between atoms: C_4  and  N_5
REMARK    5  A    between atoms: C_16  and  N_17
REMARK                            x       y       z     vdW  Elec       q    Type
REMARK                         _______ _______ _______ _____ _____    ______ ____
ROOT
ATOM      1  N   UNL     1       2.432   3.267  20.282  0.00  0.00    +0.000 N 
ATOM      2  C   UNL     1       2.221   4.698  20.511  0.00  0.00    +0.000 C 
ATOM      3  C   UNL     1       2.439   5.537  19.244  0.00  0.00    +0.000 C 
ATOM      4  C   UNL     1       2.088   7.028  19.498  0.00  0.00    +0.000 C 
ATOM      5  C   UNL     1       2.469   7.934  18.315  0.00  0.00    +0.000 C 
ATOM      6  C   UNL     1       3.918   7.723  17.851  0.00  0.00    +0.000 C 
ATOM      7  N   UNL     1       4.159   6.301  17.697  0.00  0.00    +0.000 N 
ATOM      8  C   UNL     1       4.864   5.792  16.633  0.00  0.00    +0.000 A 
ATOM      9  N   UNL     1       5.240   6.607  15.640  0.00  0.00    +0.000 NA
ATOM     10  C   UNL     1       5.873   6.048  14.591  0.00  0.00    +0.000 A 
ATOM     11  C   UNL     1       6.138   4.709  14.491  0.00  0.00    +0.000 A 
ATOM     12  C   UNL     1       5.711   3.948  15.543  0.00  0.00    +0.000 A 
ATOM     13  N   UNL     1       5.097   4.466  16.604  0.00  0.00    +0.000 NA
ATOM     14  C   UNL     1       3.934   5.467  18.863  0.00  0.00    +0.000 C 
ATOM     15  C   UNL     1       1.502   4.954  18.163  0.00  0.00    +0.000 C 
ATOM     16  C   UNL     1       1.721   3.472  17.927  0.00  0.00    +0.000 C 
ATOM     17  C   UNL     1       1.903   2.625  19.167  0.00  0.00    +0.000 C 
ATOM     18  O   UNL     1       1.773   1.402  19.093  0.00  0.00    +0.000 OA
ENDROOT
BRANCH  12  19
ATOM     19  N   UNL     1       5.937   2.570  15.569  0.00  0.00    +0.000 N 
ATOM     20  H   UNL     1       5.077   2.049  15.699  0.00  0.00    +0.000 HD
ATOM     21  H   UNL     1       6.598   2.389  16.322  0.00  0.00    +0.000 HD
ENDBRANCH  12  19
BRANCH   1  22
ATOM     22  C   UNL     1       3.310   2.466  21.143  0.00  0.00    +0.000 C 
BRANCH  22  23
ATOM     23  C   UNL     1       4.574   1.855  20.544  0.00  0.00    +0.000 C 
BRANCH  23  25
ATOM     24  C   UNL     1       5.782   0.205  21.704  0.00  0.00    +0.000 C 
ATOM     25  O   UNL     1       5.532   1.596  21.567  0.00  0.00    +0.000 OA
ENDBRANCH  23  25
ENDBRANCH  22  23
ENDBRANCH   1  22
TORSDOF 4
ENDMDL
MODEL 6
REMARK VINA RESULT:      -6.1      8.982     11.100
REMARK  Name = 
REMARK  5 active torsions:
REMARK  status: ('A' for Active; 'I' for Inactive)
REMARK    1  A    between atoms: C_1  and  O_2
REMARK    2  A    between atoms: O_2  and  C_3
REMARK    3  A    between atoms: C_3  and  C_4
REMARK    4  A    between atoms: C_4  and  N_5
REMARK    5  A    between atoms: C_16  and  N_17
REMARK                            x       y       z     vdW  Elec       q    Type
REMARK                         _______ _______ _______ _____ _____    ______ ____
ROOT
ATOM      1  N   UNL     1       9.668  10.978  18.757  0.00  0.00    +0.000 N 
ATOM      2  C   UNL     1      10.642  11.488  17.790  0.00  0.00    +0.000 C 
ATOM      3  C   UNL     1      10.975  12.970  18.013  0.00  0.00    +0.000 C 
ATOM      4  C   UNL     1      12.098  13.437  17.047  0.00  0.00    +0.000 C 
ATOM      5  C   UNL     1      12.332  14.956  17.107  0.00  0.00    +0.000 C 
ATOM      6  C   UNL     1      11.033  15.762  16.962  0.00  0.00    +0.000 C 
ATOM      7  N   UNL     1      10.037  15.213  17.861  0.00  0.00    +0.000 N 
ATOM      8  C   UNL     1       9.203  16.014  18.604  0.00  0.00    +0.000 A 
ATOM      9  N   UNL     1       9.384  17.340  18.596  0.00  0.00    +0.000 NA
ATOM     10  C   UNL     1       8.580  18.076  19.388  0.00  0.00    +0.000 A 
ATOM     11  C   UNL     1       7.609  17.540  20.190  0.00  0.00    +0.000 A 
ATOM     12  C   UNL     1       7.499  16.178  20.145  0.00  0.00    +0.000 A 
ATOM     13  N   UNL     1       8.263  15.419  19.363  0.00  0.00    +0.000 NA
ATOM     14  C   UNL     1       9.715  13.807  17.705  0.00  0.00    +0.000 C 
ATOM     15  C   UNL     1      11.455  13.097  19.475  0.00  0.00    +0.000 C 
ATOM     16  C   UNL     1      10.447  12.568  20.477  0.00  0.00    +0.000 C 
ATOM     17  C   UNL     1       9.778  11.260  20.115  0.00  0.00    +0.000 C 
ATOM     18  O   UNL     1       9.198  10.611  20.986  0.00  0.00    +0.000 OA
ENDROOT
BRANCH  12  19
ATOM     19  N   UNL     1       6.535  15.512  20.904  0.00  0.00    +0.000 N 
ATOM     20  H   UNL     1       6.346  15.989  21.778  0.00  0.00    +0.000 HD
ATOM     21  H   UNL     1       6.880  14.568  21.066  0.00  0.00    +0.000 HD
ENDBRANCH  12  19
BRANCH   1  22
ATOM     22  C   UNL     1       8.464  10.252  18.335  0.00  0.00    +0.000 C 
BRANCH  22  23
ATOM     23  C   UNL     1       8.509   8.727  18.264  0.00  0.00    +0.000 C 
BRANCH  23  25
ATOM     24  C   UNL     1       7.354   6.867  17.406  0.00  0.00    +0.000 C 
ATOM     25  O   UNL     1       7.624   8.253  17.253  0.00  0.00    +0.000 OA
ENDBRANCH  23  25
ENDBRANCH  22  23
ENDBRANCH   1  22
TORSDOF 4
ENDMDL
MODEL 7
REMARK VINA RESULT:      -6.0      7.723     10.349
REMARK  Name = 
REMARK  5 active torsions:
REMARK  status: ('A' for Active; 'I' for Inactive)
REMARK    1  A    between atoms: C_1  and  O_2
REMARK    2  A    between atoms: O_2  and  C_3
REMARK    3  A    between atoms: C_3  and  C_4
REMARK    4  A    between atoms: C_4  and  N_5
REMARK    5  A    between atoms: C_16  and  N_17
REMARK                            x       y       z     vdW  Elec       q    Type
REMARK                         _______ _______ _______ _____ _____    ______ ____
ROOT
ATOM      1  N   UNL     1       1.732  11.804  19.079  0.00  0.00    +0.000 N 
ATOM      2  C   UNL     1       1.298  12.228  20.411  0.00  0.00    +0.000 C 
ATOM      3  C   UNL     1      -0.162  11.855  20.703  0.00  0.00    +0.000 C 
ATOM      4  C   UNL     1      -0.545  12.212  22.165  0.00  0.00    +0.000 C 
ATOM      5  C   UNL     1      -2.047  12.030  22.442  0.00  0.00    +0.000 C 
ATOM      6  C   UNL     1      -2.931  12.725  21.397  0.00  0.00    +0.000 C 
ATOM      7  N   UNL     1      -2.458  12.373  20.073  0.00  0.00    +0.000 N 
ATOM      8  C   UNL     1      -3.321  12.067  19.047  0.00  0.00    +0.000 A 
ATOM      9  N   UNL     1      -4.633  11.971  19.295  0.00  0.00    +0.000 NA
ATOM     10  C   UNL     1      -5.428  11.608  18.270  0.00  0.00    +0.000 A 
ATOM     11  C   UNL     1      -4.965  11.332  17.013  0.00  0.00    +0.000 A 
ATOM     12  C   UNL     1      -3.613  11.443  16.849  0.00  0.00    +0.000 A 
ATOM     13  N   UNL     1      -2.797  11.816  17.833  0.00  0.00    +0.000 NA
ATOM     14  C   UNL     1      -1.073  12.679  19.767  0.00  0.00    +0.000 C 
ATOM     15  C   UNL     1      -0.279  10.330  20.487  0.00  0.00    +0.000 C 
ATOM     16  C   UNL     1       0.171   9.891  19.107  0.00  0.00    +0.000 C 
ATOM     17  C   UNL     1       1.439  10.535  18.590  0.00  0.00    +0.000 C 
ATOM     18  O   UNL     1       2.039  10.024  17.643  0.00  0.00    +0.000 OA
ENDROOT
BRANCH  12  19
ATOM     19  N   UNL     1      -3.019  11.204  15.608  0.00  0.00    +0.000 N 
ATOM     20  H   UNL     1      -2.207  11.791  15.459  0.00  0.00    +0.000 HD
ATOM     21  H   UNL     1      -3.731  11.369  14.898  0.00  0.00    +0.000 HD
ENDBRANCH  12  19
BRANCH   1  22
ATOM     22  C   UNL     1       2.386  12.729  18.146  0.00  0.00    +0.000 C 
BRANCH  22  23
ATOM     23  C   UNL     1       3.059  13.983  18.700  0.00  0.00    +0.000 C 
BRANCH  23  25
ATOM     24  C   UNL     1       1.474  15.691  19.016  0.00  0.00    +0.000 C 
ATOM     25  O   UNL     1       2.459  15.152  18.147  0.00  0.00    +0.000 OA
ENDBRANCH  23  25
ENDBRANCH  22  23
ENDBRANCH   1  22
TORSDOF 4
ENDMDL
MODEL 8
REMARK VINA RESULT:      -5.8      2.494      5.599
REMARK  Name = 
REMARK  5 active torsions:
REMARK  status: ('A' for Active; 'I' for Inactive)
REMARK    1  A    between atoms: C_1  and  O_2
REMARK    2  A    between atoms: O_2  and  C_3
REMARK    3  A    between atoms: C_3  and  C_4
REMARK    4  A    between atoms: C_4  and  N_5
REMARK    5  A    between atoms: C_16  and  N_17
REMARK                            x       y       z     vdW  Elec       q    Type
REMARK                         _______ _______ _______ _____ _____    ______ ____
ROOT
ATOM      1  N   UNL     1       1.841   3.731  20.082  0.00  0.00    +0.000 N 
ATOM      2  C   UNL     1       1.857   5.186  20.248  0.00  0.00    +0.000 C 
ATOM      3  C   UNL     1       2.318   5.919  18.981  0.00  0.00    +0.000 C 
ATOM      4  C   UNL     1       2.204   7.458  19.158  0.00  0.00    +0.000 C 
ATOM      5  C   UNL     1       2.830   8.234  17.986  0.00  0.00    +0.000 C 
ATOM      6  C   UNL     1       4.255   7.765  17.659  0.00  0.00    +0.000 C 
ATOM      7  N   UNL     1       4.264   6.317  17.571  0.00  0.00    +0.000 N 
ATOM      8  C   UNL     1       4.958   5.651  16.589  0.00  0.00    +0.000 A 
ATOM      9  N   UNL     1       5.547   6.346  15.609  0.00  0.00    +0.000 NA
ATOM     10  C   UNL     1       6.161   5.644  14.638  0.00  0.00    +0.000 A 
ATOM     11  C   UNL     1       6.203   4.277  14.603  0.00  0.00    +0.000 A 
ATOM     12  C   UNL     1       5.567   3.644  15.635  0.00  0.00    +0.000 A 
ATOM     13  N   UNL     1       4.965   4.305  16.622  0.00  0.00    +0.000 NA
ATOM     14  C   UNL     1       3.805   5.586  18.737  0.00  0.00    +0.000 C 
ATOM     15  C   UNL     1       1.389   5.452  17.839  0.00  0.00    +0.000 C 
ATOM     16  C   UNL     1       1.372   3.946  17.668  0.00  0.00    +0.000 C 
ATOM     17  C   UNL     1       1.305   3.136  18.945  0.00  0.00    +0.000 C 
ATOM     18  O   UNL     1       0.977   1.950  18.897  0.00  0.00    +0.000 OA
ENDROOT
BRANCH  12  19
ATOM     19  N   UNL     1       5.554   2.251  15.723  0.00  0.00    +0.000 N 
ATOM     20  H   UNL     1       5.039   1.929  16.534  0.00  0.00    +0.000 HD
ATOM     21  H   UNL     1       6.524   1.943  15.754  0.00  0.00    +0.000 HD
ENDBRANCH  12  19
BRANCH   1  22
ATOM     22  C   UNL     1       2.496   2.834  21.043  0.00  0.00    +0.000 C 
BRANCH  22  23
ATOM     23  C   UNL     1       3.947   2.426  20.799  0.00  0.00    +0.000 C 
BRANCH  23  25
ATOM     24  C   UNL     1       4.191   1.094  18.877  0.00  0.00    +0.000 C 
ATOM     25  O   UNL     1       4.229   2.413  19.402  0.00  0.00    +0.000 OA
ENDBRANCH  23  25
ENDBRANCH  22  23
ENDBRANCH   1  22
TORSDOF 4
ENDMDL
MODEL 9
REMARK VINA RESULT:      -5.7      2.286      4.838
REMARK  Name = 
REMARK  5 active torsions:
REMARK  status: ('A' for Active; 'I' for Inactive)
REMARK    1  A    between atoms: C_1  and  O_2
REMARK    2  A    between atoms: O_2  and  C_3
REMARK    3  A    between atoms: C_3  and  C_4
REMARK    4  A    between atoms: C_4  and  N_5
REMARK    5  A    between atoms: C_16  and  N_17
REMARK                            x       y       z     vdW  Elec       q    Type
REMARK                         _______ _______ _______ _____ _____    ______ ____
ROOT
ATOM      1  N   UNL     1       5.493   4.030  17.437  0.00  0.00    +0.000 N 
ATOM      2  C   UNL     1       5.130   3.202  18.588  0.00  0.00    +0.000 C 
ATOM      3  C   UNL     1       3.783   3.605  19.204  0.00  0.00    +0.000 C 
ATOM      4  C   UNL     1       3.378   2.629  20.342  0.00  0.00    +0.000 C 
ATOM      5  C   UNL     1       2.132   3.102  21.110  0.00  0.00    +0.000 C 
ATOM      6  C   UNL     1       2.241   4.562  21.574  0.00  0.00    +0.000 C 
ATOM      7  N   UNL     1       2.677   5.378  20.457  0.00  0.00    +0.000 N 
ATOM      8  C   UNL     1       2.130   6.612  20.198  0.00  0.00    +0.000 A 
ATOM      9  N   UNL     1       1.083   7.034  20.917  0.00  0.00    +0.000 NA
ATOM     10  C   UNL     1       0.545   8.222  20.583  0.00  0.00    +0.000 A 
ATOM     11  C   UNL     1       1.007   9.002  19.558  0.00  0.00    +0.000 A 
ATOM     12  C   UNL     1       2.072   8.492  18.868  0.00  0.00    +0.000 A 
ATOM     13  N   UNL     1       2.641   7.330  19.180  0.00  0.00    +0.000 NA
ATOM     14  C   UNL     1       3.930   5.011  19.825  0.00  0.00    +0.000 C 
ATOM     15  C   UNL     1       2.742   3.543  18.065  0.00  0.00    +0.000 C 
ATOM     16  C   UNL     1       3.118   4.400  16.872  0.00  0.00    +0.000 C 
ATOM     17  C   UNL     1       4.568   4.337  16.444  0.00  0.00    +0.000 C 
ATOM     18  O   UNL     1       4.891   4.739  15.325  0.00  0.00    +0.000 OA
ENDROOT
BRANCH  12  19
ATOM     19  N   UNL     1       2.646   9.200  17.811  0.00  0.00    +0.000 N 
ATOM     20  H   UNL     1       3.032   8.581  17.108  0.00  0.00    +0.000 HD
ATOM     21  H   UNL     1       3.364   9.803  18.209  0.00  0.00    +0.000 HD
ENDBRANCH  12  19
BRANCH   1  22
ATOM     22  C   UNL     1       6.806   4.678  17.331  0.00  0.00    +0.000 C 
BRANCH  22  23
ATOM     23  C   UNL     1       7.007   6.046  17.978  0.00  0.00    +0.000 C 
BRANCH  23  25
ATOM     24  C   UNL     1       7.838   8.213  17.601  0.00  0.00    +0.000 C 
ATOM     25  O   UNL     1       7.401   7.003  16.999  0.00  0.00    +0.000 OA
ENDBRANCH  23  25
ENDBRANCH  22  23
ENDBRANCH   1  22
TORSDOF 4
ENDMDL
