MODEL 1
REMARK VINA RESULT:      -7.0      0.000      0.000
REMARK  Name = 
REMARK  5 active torsions:
REMARK  status: ('A' for Active; 'I' for Inactive)
REMARK    1  A    between atoms: C_1  and  N_2
REMARK    2  A    between atoms: C_8  and  C_9
REMARK    3  A    between atoms: C_10  and  C_11
REMARK    4  A    between atoms: N_16  and  C_17
REMARK    5  A    between atoms: N_18  and  C_19
REMARK                            x       y       z     vdW  Elec       q    Type
REMARK                         _______ _______ _______ _____ _____    ______ ____
ROOT
ATOM      1  C   UNL     1      11.376  15.932  21.055  0.00  0.00    +0.000 C 
ATOM      2  N   UNL     1      11.052  14.757  20.268  0.00  0.00    +0.000 N 
ATOM      3  C   UNL     1      10.342  13.726  20.886  0.00  0.00    +0.000 A 
ATOM      4  O   UNL     1       9.968  13.751  22.053  0.00  0.00    +0.000 OA
ATOM      5  C   UNL     1      10.089  12.627  20.015  0.00  0.00    +0.000 A 
ATOM      6  C   UNL     1      10.495  12.592  18.720  0.00  0.00    +0.000 A 
ATOM      7  N   UNL     1      10.132  11.428  18.114  0.00  0.00    +0.000 NA
ATOM      8  C   UNL     1       9.494  10.718  19.038  0.00  0.00    +0.000 A 
ATOM      9  N   UNL     1       9.439  11.435  20.227  0.00  0.00    +0.000 N 
ATOM     10  C   UNL     1       8.836  11.087  21.494  0.00  0.00    +0.000 C 
ATOM     11  N   UNL     1      11.181  13.638  18.154  0.00  0.00    +0.000 N 
ATOM     12  C   UNL     1      11.611  13.617  16.772  0.00  0.00    +0.000 C 
ATOM     13  C   UNL     1      11.484  14.761  18.928  0.00  0.00    +0.000 A 
ATOM     14  O   UNL     1      12.105  15.720  18.459  0.00  0.00    +0.000 OA
ENDROOT
BRANCH   8  15
ATOM     15  C   UNL     1       8.930   9.418  18.922  0.00  0.00    +0.000 C 
ATOM     16  C   UNL     1       8.268   9.052  17.811  0.00  0.00    +0.000 C 
BRANCH  16  17
ATOM     17  C   UNL     1       7.726   7.739  17.683  0.00  0.00    +0.000 A 
ATOM     18  C   UNL     1       7.847   6.653  18.546  0.00  0.00    +0.000 A 
ATOM     19  C   UNL     1       7.115   5.571  17.999  0.00  0.00    +0.000 A 
ATOM     20  C   UNL     1       6.585   6.037  16.823  0.00  0.00    +0.000 A 
ATOM     21  O   UNL     1       6.944   7.327  16.621  0.00  0.00    +0.000 OA
ENDBRANCH  16  17
ENDBRANCH   8  15
TORSDOF 2
ENDMDL
MODEL 2
REMARK VINA RESULT:      -6.8      8.599     11.236
REMARK  Name = 
REMARK  5 active torsions:
REMARK  status: ('A' for Active; 'I' for Inactive)
REMARK    1  A    between atoms: C_1  and  N_2
REMARK    2  A    between atoms: C_8  and  C_9
REMARK    3  A    between atoms: C_10  and  C_11
REMARK    4  A    between atoms: N_16  and  C_17
REMARK    5  A    between atoms: N_18  and  C_19
REMARK                            x       y       z     vdW  Elec       q    Type
REMARK                         _______ _______ _______ _____ _____    ______ ____
ROOT
ATOM      1  C   UNL     1       4.738   3.308  16.890  0.00  0.00    +0.000 C 
ATOM      2  N   UNL     1       3.983   4.032  17.894  0.00  0.00    +0.000 N 
ATOM      3  C   UNL     1       3.715   5.385  17.669  0.00  0.00    +0.000 A 
ATOM      4  O   UNL     1       4.073   6.000  16.671  0.00  0.00    +0.000 OA
ATOM      5  C   UNL     1       2.974   5.987  18.725  0.00  0.00    +0.000 A 
ATOM      6  C   UNL     1       2.570   5.313  19.833  0.00  0.00    +0.000 A 
ATOM      7  N   UNL     1       1.887   6.122  20.688  0.00  0.00    +0.000 NA
ATOM      8  C   UNL     1       1.863   7.321  20.117  0.00  0.00    +0.000 A 
ATOM      9  N   UNL     1       2.519   7.273  18.893  0.00  0.00    +0.000 N 
ATOM     10  C   UNL     1       2.731   8.312  17.912  0.00  0.00    +0.000 C 
ATOM     11  N   UNL     1       2.848   3.979  20.003  0.00  0.00    +0.000 N 
ATOM     12  C   UNL     1       2.414   3.248  21.174  0.00  0.00    +0.000 C 
ATOM     13  C   UNL     1       3.577   3.298  19.025  0.00  0.00    +0.000 A 
ATOM     14  O   UNL     1       3.853   2.101  19.142  0.00  0.00    +0.000 OA
ENDROOT
BRANCH   8  15
ATOM     15  C   UNL     1       1.288   8.525  20.610  0.00  0.00    +0.000 C 
ATOM     16  C   UNL     1       0.141   8.503  21.311  0.00  0.00    +0.000 C 
BRANCH  16  17
ATOM     17  C   UNL     1      -0.421   9.708  21.829  0.00  0.00    +0.000 A 
ATOM     18  C   UNL     1      -0.766  10.020  23.140  0.00  0.00    +0.000 A 
ATOM     19  C   UNL     1      -1.268  11.345  23.160  0.00  0.00    +0.000 A 
ATOM     20  C   UNL     1      -1.217  11.782  21.862  0.00  0.00    +0.000 A 
ATOM     21  O   UNL     1      -0.716  10.815  21.057  0.00  0.00    +0.000 OA
ENDBRANCH  16  17
ENDBRANCH   8  15
TORSDOF 2
ENDMDL
MODEL 3
REMARK VINA RESULT:      -6.5      8.875      9.796
REMARK  Name = 
REMARK  5 active torsions:
REMARK  status: ('A' for Active; 'I' for Inactive)
REMARK    1  A    between atoms: C_1  and  N_2
REMARK    2  A    between atoms: C_8  and  C_9
REMARK    3  A    between atoms: C_10  and  C_11
REMARK    4  A    between atoms: N_16  and  C_17
REMARK    5  A    between atoms: N_18  and  C_19
REMARK                            x       y       z     vdW  Elec       q    Type
REMARK                         _______ _______ _______ _____ _____    ______ ____
ROOT
ATOM      1  C   UNL     1      -0.920  13.148  20.359  0.00  0.00    +0.000 C 
ATOM      2  N   UNL     1      -0.354  11.839  20.622  0.00  0.00    +0.000 N 
ATOM      3  C   UNL     1       0.300  11.181  19.578  0.00  0.00    +0.000 A 
ATOM      4  O   UNL     1       0.432  11.643  18.450  0.00  0.00    +0.000 OA
ATOM      5  C   UNL     1       0.807   9.905  19.956  0.00  0.00    +0.000 A 
ATOM      6  C   UNL     1       0.669   9.387  21.205  0.00  0.00    +0.000 A 
ATOM      7  N   UNL     1       1.237   8.154  21.298  0.00  0.00    +0.000 NA
ATOM      8  C   UNL     1       1.734   7.887  20.096  0.00  0.00    +0.000 A 
ATOM      9  N   UNL     1       1.495   8.956  19.241  0.00  0.00    +0.000 N 
ATOM     10  C   UNL     1       1.862   9.135  17.854  0.00  0.00    +0.000 C 
ATOM     11  N   UNL     1       0.027  10.079  22.203  0.00  0.00    +0.000 N 
ATOM     12  C   UNL     1      -0.117   9.542  23.538  0.00  0.00    +0.000 C 
ATOM     13  C   UNL     1      -0.511  11.338  21.929  0.00  0.00    +0.000 A 
ATOM     14  O   UNL     1      -1.101  11.990  22.796  0.00  0.00    +0.000 OA
ENDROOT
BRANCH   8  15
ATOM     15  C   UNL     1       2.412   6.716  19.658  0.00  0.00    +0.000 C 
ATOM     16  C   UNL     1       2.124   5.515  20.189  0.00  0.00    +0.000 C 
BRANCH  16  17
ATOM     17  C   UNL     1       2.783   4.337  19.731  0.00  0.00    +0.000 A 
ATOM     18  C   UNL     1       2.233   3.118  19.346  0.00  0.00    +0.000 A 
ATOM     19  C   UNL     1       3.290   2.262  18.948  0.00  0.00    +0.000 A 
ATOM     20  C   UNL     1       4.440   2.989  19.115  0.00  0.00    +0.000 A 
ATOM     21  O   UNL     1       4.152   4.227  19.584  0.00  0.00    +0.000 OA
ENDBRANCH  16  17
ENDBRANCH   8  15
TORSDOF 2
ENDMDL
MODEL 4
REMARK VINA RESULT:      -6.3      8.285     10.361
REMARK  Name = 
REMARK  5 active torsions:
REMARK  status: ('A' for Active; 'I' for Inactive)
REMARK    1  A    between atoms: C_1  and  N_2
REMARK    2  A    between atoms: C_8  and  C_9
REMARK    3  A    between atoms: C_10  and  C_11
REMARK    4  A    between atoms: N_16  and  C_17
REMARK    5  A    between atoms: N_18  and  C_19
REMARK                            x       y       z     vdW  Elec       q    Type
REMARK                         _______ _______ _______ _____ _____    ______ ____
ROOT
ATOM      1  C   UNL     1       4.460   2.769  19.498  0.00  0.00    +0.000 C 
ATOM      2  N   UNL     1       4.131   4.093  19.006  0.00  0.00    +0.000 N 
ATOM      3  C   UNL     1       3.230   4.864  19.745  0.00  0.00    +0.000 A 
ATOM      4  O   UNL     1       2.703   4.496  20.788  0.00  0.00    +0.000 OA
ATOM      5  C   UNL     1       2.983   6.139  19.160  0.00  0.00    +0.000 A 
ATOM      6  C   UNL     1       3.566   6.558  18.007  0.00  0.00    +0.000 A 
ATOM      7  N   UNL     1       3.153   7.809  17.666  0.00  0.00    +0.000 NA
ATOM      8  C   UNL     1       2.297   8.183  18.610  0.00  0.00    +0.000 A 
ATOM      9  N   UNL     1       2.175   7.177  19.559  0.00  0.00    +0.000 N 
ATOM     10  C   UNL     1       1.384   7.132  20.768  0.00  0.00    +0.000 C 
ATOM     11  N   UNL     1       4.455   5.766  17.323  0.00  0.00    +0.000 N 
ATOM     12  C   UNL     1       5.090   6.205  16.099  0.00  0.00    +0.000 C 
ATOM     13  C   UNL     1       4.760   4.494  17.812  0.00  0.00    +0.000 A 
ATOM     14  O   UNL     1       5.549   3.748  17.225  0.00  0.00    +0.000 OA
ENDROOT
BRANCH   8  15
ATOM     15  C   UNL     1       1.567   9.399  18.711  0.00  0.00    +0.000 C 
ATOM     16  C   UNL     1       0.330   9.504  18.194  0.00  0.00    +0.000 C 
BRANCH  16  17
ATOM     17  C   UNL     1      -0.414  10.714  18.320  0.00  0.00    +0.000 A 
ATOM     18  C   UNL     1      -1.787  10.914  18.214  0.00  0.00    +0.000 A 
ATOM     19  C   UNL     1      -2.052  12.288  18.437  0.00  0.00    +0.000 A 
ATOM     20  C   UNL     1      -0.832  12.870  18.661  0.00  0.00    +0.000 A 
ATOM     21  O   UNL     1       0.154  11.944  18.591  0.00  0.00    +0.000 OA
ENDBRANCH  16  17
ENDBRANCH   8  15
TORSDOF 2
ENDMDL
MODEL 5
REMARK VINA RESULT:      -6.3      8.205     10.932
REMARK  Name = 
REMARK  5 active torsions:
REMARK  status: ('A' for Active; 'I' for Inactive)
REMARK    1  A    between atoms: C_1  and  N_2
REMARK    2  A    between atoms: C_8  and  C_9
REMARK    3  A    between atoms: C_10  and  C_11
REMARK    4  A    between atoms: N_16  and  C_17
REMARK    5  A    between atoms: N_18  and  C_19
REMARK                            x       y       z     vdW  Elec       q    Type
REMARK                         _______ _______ _______ _____ _____    ______ ____
ROOT
ATOM      1  C   UNL     1       5.184   3.765  16.222  0.00  0.00    +0.000 C 
ATOM      2  N   UNL     1       4.362   4.384  17.243  0.00  0.00    +0.000 N 
ATOM      3  C   UNL     1       4.113   5.755  17.146  0.00  0.00    +0.000 A 
ATOM      4  O   UNL     1       4.542   6.471  16.248  0.00  0.00    +0.000 OA
ATOM      5  C   UNL     1       3.300   6.248  18.207  0.00  0.00    +0.000 A 
ATOM      6  C   UNL     1       2.817   5.463  19.204  0.00  0.00    +0.000 A 
ATOM      7  N   UNL     1       2.077   6.182  20.091  0.00  0.00    +0.000 NA
ATOM      8  C   UNL     1       2.095   7.435  19.653  0.00  0.00    +0.000 A 
ATOM      9  N   UNL     1       2.836   7.512  18.480  0.00  0.00    +0.000 N 
ATOM     10  C   UNL     1       3.120   8.649  17.634  0.00  0.00    +0.000 C 
ATOM     11  N   UNL     1       3.080   4.115  19.249  0.00  0.00    +0.000 N 
ATOM     12  C   UNL     1       2.563   3.267  20.301  0.00  0.00    +0.000 C 
ATOM     13  C   UNL     1       3.875   3.537  18.256  0.00  0.00    +0.000 A 
ATOM     14  O   UNL     1       4.140   2.332  18.263  0.00  0.00    +0.000 OA
ENDROOT
BRANCH   8  15
ATOM     15  C   UNL     1       1.489   8.585  20.231  0.00  0.00    +0.000 C 
ATOM     16  C   UNL     1       0.593   8.463  21.226  0.00  0.00    +0.000 C 
BRANCH  16  17
ATOM     17  C   UNL     1       0.006   9.617  21.824  0.00  0.00    +0.000 A 
ATOM     18  C   UNL     1       0.207  10.960  21.519  0.00  0.00    +0.000 A 
ATOM     19  C   UNL     1      -0.616  11.734  22.375  0.00  0.00    +0.000 A 
ATOM     20  C   UNL     1      -1.277  10.834  23.170  0.00  0.00    +0.000 A 
ATOM     21  O   UNL     1      -0.913   9.568  22.854  0.00  0.00    +0.000 OA
ENDBRANCH  16  17
ENDBRANCH   8  15
TORSDOF 2
ENDMDL
MODEL 6
REMARK VINA RESULT:      -6.2      8.736      9.646
REMARK  Name = 
REMARK  5 active torsions:
REMARK  status: ('A' for Active; 'I' for Inactive)
REMARK    1  A    between atoms: C_1  and  N_2
REMARK    2  A    between atoms: C_8  and  C_9
REMARK    3  A    between atoms: C_10  and  C_11
REMARK    4  A    between atoms: N_16  and  C_17
REMARK    5  A    between atoms: N_18  and  C_19
REMARK                            x       y       z     vdW  Elec       q    Type
REMARK                         _______ _______ _______ _____ _____    ______ ____
ROOT
ATOM      1  C   UNL     1      -0.855  13.057  20.281  0.00  0.00    +0.000 C 
ATOM      2  N   UNL     1      -0.274  11.756  20.549  0.00  0.00    +0.000 N 
ATOM      3  C   UNL     1       0.409  11.113  19.514  0.00  0.00    +0.000 A 
ATOM      4  O   UNL     1       0.553  11.582  18.390  0.00  0.00    +0.000 OA
ATOM      5  C   UNL     1       0.929   9.844  19.896  0.00  0.00    +0.000 A 
ATOM      6  C   UNL     1       0.778   9.318  21.139  0.00  0.00    +0.000 A 
ATOM      7  N   UNL     1       1.363   8.094  21.237  0.00  0.00    +0.000 NA
ATOM      8  C   UNL     1       1.885   7.840  20.043  0.00  0.00    +0.000 A 
ATOM      9  N   UNL     1       1.644   8.908  19.188  0.00  0.00    +0.000 N 
ATOM     10  C   UNL     1       2.031   9.099  17.808  0.00  0.00    +0.000 C 
ATOM     11  N   UNL     1       0.108   9.996  22.129  0.00  0.00    +0.000 N 
ATOM     12  C   UNL     1      -0.050   9.451  23.460  0.00  0.00    +0.000 C 
ATOM     13  C   UNL     1      -0.445  11.248  21.851  0.00  0.00    +0.000 A 
ATOM     14  O   UNL     1      -1.060  11.886  22.710  0.00  0.00    +0.000 OA
ENDROOT
BRANCH   8  15
ATOM     15  C   UNL     1       2.588   6.681  19.612  0.00  0.00    +0.000 C 
ATOM     16  C   UNL     1       2.106   5.914  18.619  0.00  0.00    +0.000 C 
BRANCH  16  17
ATOM     17  C   UNL     1       2.825   4.768  18.167  0.00  0.00    +0.000 A 
ATOM     18  C   UNL     1       3.879   4.695  17.262  0.00  0.00    +0.000 A 
ATOM     19  C   UNL     1       4.274   3.339  17.152  0.00  0.00    +0.000 A 
ATOM     20  C   UNL     1       3.441   2.640  17.986  0.00  0.00    +0.000 A 
ATOM     21  O   UNL     1       2.570   3.479  18.596  0.00  0.00    +0.000 OA
ENDBRANCH  16  17
ENDBRANCH   8  15
TORSDOF 2
ENDMDL
MODEL 7
REMARK VINA RESULT:      -6.1      8.350     10.898
REMARK  Name = 
REMARK  5 active torsions:
REMARK  status: ('A' for Active; 'I' for Inactive)
REMARK    1  A    between atoms: C_1  and  N_2
REMARK    2  A    between atoms: C_8  and  C_9
REMARK    3  A    between atoms: C_10  and  C_11
REMARK    4  A    between atoms: N_16  and  C_17
REMARK    5  A    between atoms: N_18  and  C_19
REMARK                            x       y       z     vdW  Elec       q    Type
REMARK                         _______ _______ _______ _____ _____    ______ ____
ROOT
ATOM      1  C   UNL     1       4.334   1.853  17.179  0.00  0.00    +0.000 C 
ATOM      2  N   UNL     1       3.988   3.188  17.627  0.00  0.00    +0.000 N 
ATOM      3  C   UNL     1       3.142   3.313  18.732  0.00  0.00    +0.000 A 
ATOM      4  O   UNL     1       2.676   2.364  19.353  0.00  0.00    +0.000 OA
ATOM      5  C   UNL     1       2.871   4.669  19.072  0.00  0.00    +0.000 A 
ATOM      6  C   UNL     1       3.385   5.727  18.394  0.00  0.00    +0.000 A 
ATOM      7  N   UNL     1       2.964   6.910  18.919  0.00  0.00    +0.000 NA
ATOM      8  C   UNL     1       2.172   6.597  19.938  0.00  0.00    +0.000 A 
ATOM      9  N   UNL     1       2.099   5.215  20.069  0.00  0.00    +0.000 N 
ATOM     10  C   UNL     1       1.384   4.411  21.034  0.00  0.00    +0.000 C 
ATOM     11  N   UNL     1       4.223   5.552  17.319  0.00  0.00    +0.000 N 
ATOM     12  C   UNL     1       4.785   6.671  16.594  0.00  0.00    +0.000 C 
ATOM     13  C   UNL     1       4.545   4.259  16.902  0.00  0.00    +0.000 A 
ATOM     14  O   UNL     1       5.290   4.058  15.938  0.00  0.00    +0.000 OA
ENDROOT
BRANCH   8  15
ATOM     15  C   UNL     1       1.461   7.469  20.807  0.00  0.00    +0.000 C 
ATOM     16  C   UNL     1       1.162   8.724  20.429  0.00  0.00    +0.000 C 
BRANCH  16  17
ATOM     17  C   UNL     1       0.425   9.590  21.290  0.00  0.00    +0.000 A 
ATOM     18  C   UNL     1      -0.153   9.313  22.526  0.00  0.00    +0.000 A 
ATOM     19  C   UNL     1      -0.761  10.500  23.004  0.00  0.00    +0.000 A 
ATOM     20  C   UNL     1      -0.538  11.447  22.039  0.00  0.00    +0.000 A 
ATOM     21  O   UNL     1       0.165  10.917  21.010  0.00  0.00    +0.000 OA
ENDBRANCH  16  17
ENDBRANCH   8  15
TORSDOF 2
ENDMDL
MODEL 8
REMARK VINA RESULT:      -6.1      8.248     10.626
REMARK  Name = 
REMARK  5 active torsions:
REMARK  status: ('A' for Active; 'I' for Inactive)
REMARK    1  A    between atoms: C_1  and  N_2
REMARK    2  A    between atoms: C_8  and  C_9
REMARK    3  A    between atoms: C_10  and  C_11
REMARK    4  A    between atoms: N_16  and  C_17
REMARK    5  A    between atoms: N_18  and  C_19
REMARK                            x       y       z     vdW  Elec       q    Type
REMARK                         _______ _______ _______ _____ _____    ______ ____
ROOT
ATOM      1  C   UNL     1       4.135   1.788  17.912  0.00  0.00    +0.000 C 
ATOM      2  N   UNL     1       3.952   3.226  17.869  0.00  0.00    +0.000 N 
ATOM      3  C   UNL     1       3.099   3.810  18.808  0.00  0.00    +0.000 A 
ATOM      4  O   UNL     1       2.496   3.185  19.672  0.00  0.00    +0.000 OA
ATOM      5  C   UNL     1       2.997   5.223  18.661  0.00  0.00    +0.000 A 
ATOM      6  C   UNL     1       3.665   5.926  17.710  0.00  0.00    +0.000 A 
ATOM      7  N   UNL     1       3.387   7.255  17.784  0.00  0.00    +0.000 NA
ATOM      8  C   UNL     1       2.532   7.395  18.790  0.00  0.00    +0.000 A 
ATOM      9  N   UNL     1       2.275   6.157  19.365  0.00  0.00    +0.000 N 
ATOM     10  C   UNL     1       1.433   5.811  20.488  0.00  0.00    +0.000 C 
ATOM     11  N   UNL     1       4.504   5.305  16.816  0.00  0.00    +0.000 N 
ATOM     12  C   UNL     1       5.227   6.044  15.804  0.00  0.00    +0.000 C 
ATOM     13  C   UNL     1       4.666   3.919  16.873  0.00  0.00    +0.000 A 
ATOM     14  O   UNL     1       5.405   3.323  16.084  0.00  0.00    +0.000 OA
ENDROOT
BRANCH   8  15
ATOM     15  C   UNL     1       1.916   8.584  19.270  0.00  0.00    +0.000 C 
ATOM     16  C   UNL     1       1.170   9.350  18.454  0.00  0.00    +0.000 C 
BRANCH  16  17
ATOM     17  C   UNL     1       0.529  10.527  18.942  0.00  0.00    +0.000 A 
ATOM     18  C   UNL     1      -0.695  11.075  18.572  0.00  0.00    +0.000 A 
ATOM     19  C   UNL     1      -0.911  12.238  19.353  0.00  0.00    +0.000 A 
ATOM     20  C   UNL     1       0.191  12.356  20.158  0.00  0.00    +0.000 A 
ATOM     21  O   UNL     1       1.060  11.344  19.922  0.00  0.00    +0.000 OA
ENDBRANCH  16  17
ENDBRANCH   8  15
TORSDOF 2
ENDMDL
MODEL 9
REMARK VINA RESULT:      -6.0      7.964      8.813
REMARK  Name = 
REMARK  5 active torsions:
REMARK  status: ('A' for Active; 'I' for Inactive)
REMARK    1  A    between atoms: C_1  and  N_2
REMARK    2  A    between atoms: C_8  and  C_9
REMARK    3  A    between atoms: C_10  and  C_11
REMARK    4  A    between atoms: N_16  and  C_17
REMARK    5  A    between atoms: N_18  and  C_19
REMARK                            x       y       z     vdW  Elec       q    Type
REMARK                         _______ _______ _______ _____ _____    ______ ____
ROOT
ATOM      1  C   UNL     1      -0.620  10.432  22.247  0.00  0.00    +0.000 C 
ATOM      2  N   UNL     1       0.214   9.990  21.146  0.00  0.00    +0.000 N 
ATOM      3  C   UNL     1       0.648   8.662  21.140  0.00  0.00    +0.000 A 
ATOM      4  O   UNL     1       0.365   7.842  22.006  0.00  0.00    +0.000 OA
ATOM      5  C   UNL     1       1.463   8.349  20.015  0.00  0.00    +0.000 A 
ATOM      6  C   UNL     1       1.779   9.250  19.048  0.00  0.00    +0.000 A 
ATOM      7  N   UNL     1       2.574   8.697  18.092  0.00  0.00    +0.000 NA
ATOM      8  C   UNL     1       2.766   7.435  18.459  0.00  0.00    +0.000 A 
ATOM      9  N   UNL     1       2.083   7.181  19.642  0.00  0.00    +0.000 N 
ATOM     10  C   UNL     1       1.978   5.961  20.409  0.00  0.00    +0.000 C 
ATOM     11  N   UNL     1       1.317  10.543  19.092  0.00  0.00    +0.000 N 
ATOM     12  C   UNL     1       1.639  11.508  18.064  0.00  0.00    +0.000 C 
ATOM     13  C   UNL     1       0.515  10.950  20.161  0.00  0.00    +0.000 A 
ATOM     14  O   UNL     1       0.084  12.104  20.241  0.00  0.00    +0.000 OA
ENDROOT
BRANCH   8  15
ATOM     15  C   UNL     1       3.540   6.432  17.813  0.00  0.00    +0.000 C 
ATOM     16  C   UNL     1       4.468   6.763  16.898  0.00  0.00    +0.000 C 
BRANCH  16  17
ATOM     17  C   UNL     1       5.263   5.760  16.269  0.00  0.00    +0.000 A 
ATOM     18  C   UNL     1       4.969   4.417  16.054  0.00  0.00    +0.000 A 
ATOM     19  C   UNL     1       6.063   3.830  15.372  0.00  0.00    +0.000 A 
ATOM     20  C   UNL     1       6.982   4.834  15.208  0.00  0.00    +0.000 A 
ATOM     21  O   UNL     1       6.518   5.990  15.741  0.00  0.00    +0.000 OA
ENDBRANCH  16  17
ENDBRANCH   8  15
TORSDOF 2
ENDMDL
