MODEL 1
REMARK VINA RESULT:      -7.6      0.000      0.000
REMARK  Name = 
REMARK  8 active torsions:
REMARK  status: ('A' for Active; 'I' for Inactive)
REMARK    1  A    between atoms: C_1  and  C_2
REMARK    2  A    between atoms: C_4  and  C_5
REMARK    3  A    between atoms: C_5  and  N_6
REMARK    4  A    between atoms: C_10  and  N_11
REMARK    5  A    between atoms: N_11  and  C_12
REMARK    6  A    between atoms: N_11  and  C_13
REMARK    7  A    between atoms: C_13  and  C_14
REMARK    8  A    between atoms: C_17  and  C_18
REMARK                            x       y       z     vdW  Elec       q    Type
REMARK                         _______ _______ _______ _____ _____    ______ ____
ROOT
ATOM      1  N   UNL     1       2.968   7.011  18.397  0.00  0.00    +0.000 NA
ATOM      2  C   UNL     1       2.199   5.839  17.974  0.00  0.00    +0.000 C 
ATOM      3  C   UNL     1       2.885   4.547  18.423  0.00  0.00    +0.000 C 
ATOM      4  C   UNL     1       4.298   4.449  17.853  0.00  0.00    +0.000 C 
ATOM      5  C   UNL     1       5.131   5.694  18.225  0.00  0.00    +0.000 C 
ATOM      6  C   UNL     1       4.345   6.995  17.881  0.00  0.00    +0.000 C 
ENDROOT
BRANCH   5   7
ATOM      7  N   UNL     1       6.506   5.622  17.651  0.00  0.00    +0.000 NA
ATOM      8  C   UNL     1       7.572   5.752  18.648  0.00  0.00    +0.000 C 
BRANCH   7   9
ATOM      9  C   UNL     1       6.728   4.389  16.856  0.00  0.00    +0.000 C 
BRANCH   9  10
ATOM     10  C   UNL     1       6.916   4.631  15.398  0.00  0.00    +0.000 A 
ATOM     11  N   UNL     1       7.692   5.494  14.781  0.00  0.00    +0.000 NA
ATOM     12  N   UNL     1       7.534   5.257  13.428  0.00  0.00    +0.000 NA
ATOM     13  C   UNL     1       6.676   4.265  13.319  0.00  0.00    +0.000 A 
ATOM     14  O   UNL     1       6.218   3.826  14.533  0.00  0.00    +0.000 OA
BRANCH  13  15
ATOM     15  C   UNL     1       6.242   3.678  11.985  0.00  0.00    +0.000 C 
ATOM     16  C   UNL     1       5.841   2.220  11.932  0.00  0.00    +0.000 C 
ATOM     17  C   UNL     1       4.792   3.274  11.817  0.00  0.00    +0.000 C 
ENDBRANCH  13  15
ENDBRANCH   9  10
ENDBRANCH   7   9
ENDBRANCH   5   7
BRANCH   1  18
ATOM     18  C   UNL     1       2.289   8.291  18.079  0.00  0.00    +0.000 C 
BRANCH  18  22
ATOM     19  C   UNL     1      -0.043   9.031  22.402  0.00  0.00    +0.000 C 
ATOM     20  C   UNL     1       0.465   9.066  21.020  0.00  0.00    +0.000 A 
ATOM     21  N   UNL     1       1.426   8.369  20.456  0.00  0.00    +0.000 NA
ATOM     22  C   UNL     1       1.388   8.826  19.155  0.00  0.00    +0.000 A 
ATOM     23  N   UNL     1       0.460   9.767  18.921  0.00  0.00    +0.000 NA
ATOM     24  O   UNL     1      -0.151   9.932  20.165  0.00  0.00    +0.000 OA
ENDBRANCH  18  22
ENDBRANCH   1  18
TORSDOF 6
ENDMDL
MODEL 2
REMARK VINA RESULT:      -7.4      1.899      8.118
REMARK  Name = 
REMARK  8 active torsions:
REMARK  status: ('A' for Active; 'I' for Inactive)
REMARK    1  A    between atoms: C_1  and  C_2
REMARK    2  A    between atoms: C_4  and  C_5
REMARK    3  A    between atoms: C_5  and  N_6
REMARK    4  A    between atoms: C_10  and  N_11
REMARK    5  A    between atoms: N_11  and  C_12
REMARK    6  A    between atoms: N_11  and  C_13
REMARK    7  A    between atoms: C_13  and  C_14
REMARK    8  A    between atoms: C_17  and  C_18
REMARK                            x       y       z     vdW  Elec       q    Type
REMARK                         _______ _______ _______ _____ _____    ______ ____
ROOT
ATOM      1  N   UNL     1       4.556   4.233  17.334  0.00  0.00    +0.000 NA
ATOM      2  C   UNL     1       4.162   2.825  17.411  0.00  0.00    +0.000 C 
ATOM      3  C   UNL     1       2.639   2.685  17.390  0.00  0.00    +0.000 C 
ATOM      4  C   UNL     1       2.002   3.444  18.552  0.00  0.00    +0.000 C 
ATOM      5  C   UNL     1       2.436   4.925  18.547  0.00  0.00    +0.000 C 
ATOM      6  C   UNL     1       3.986   5.036  18.427  0.00  0.00    +0.000 C 
ENDROOT
BRANCH   5   7
ATOM      7  N   UNL     1       1.841   5.672  19.692  0.00  0.00    +0.000 NA
ATOM      8  C   UNL     1       1.758   4.893  20.931  0.00  0.00    +0.000 C 
BRANCH   7   9
ATOM      9  C   UNL     1       2.543   6.951  19.966  0.00  0.00    +0.000 C 
BRANCH   9  10
ATOM     10  C   UNL     1       2.086   8.089  19.120  0.00  0.00    +0.000 A 
ATOM     11  N   UNL     1       2.356   8.365  17.863  0.00  0.00    +0.000 NA
ATOM     12  N   UNL     1       1.625   9.497  17.550  0.00  0.00    +0.000 NA
ATOM     13  C   UNL     1       0.961   9.826  18.638  0.00  0.00    +0.000 A 
ATOM     14  O   UNL     1       1.220   8.988  19.691  0.00  0.00    +0.000 OA
BRANCH  13  15
ATOM     15  C   UNL     1       0.013  11.012  18.712  0.00  0.00    +0.000 C 
ATOM     16  C   UNL     1      -1.316  10.924  17.993  0.00  0.00    +0.000 C 
ATOM     17  C   UNL     1      -1.281  10.850  19.482  0.00  0.00    +0.000 C 
ENDBRANCH  13  15
ENDBRANCH   9  10
ENDBRANCH   7   9
ENDBRANCH   5   7
BRANCH   1  18
ATOM     18  C   UNL     1       6.025   4.417  17.242  0.00  0.00    +0.000 C 
BRANCH  18  22
ATOM     19  C   UNL     1       6.980   4.052  12.381  0.00  0.00    +0.000 C 
ATOM     20  C   UNL     1       6.893   4.424  13.804  0.00  0.00    +0.000 A 
ATOM     21  N   UNL     1       6.160   3.913  14.766  0.00  0.00    +0.000 NA
ATOM     22  C   UNL     1       6.558   4.656  15.858  0.00  0.00    +0.000 A 
ATOM     23  N   UNL     1       7.485   5.588  15.589  0.00  0.00    +0.000 NA
ATOM     24  O   UNL     1       7.704   5.439  14.219  0.00  0.00    +0.000 OA
ENDBRANCH  18  22
ENDBRANCH   1  18
TORSDOF 6
ENDMDL
MODEL 3
REMARK VINA RESULT:      -7.1      2.163      8.345
REMARK  Name = 
REMARK  8 active torsions:
REMARK  status: ('A' for Active; 'I' for Inactive)
REMARK    1  A    between atoms: C_1  and  C_2
REMARK    2  A    between atoms: C_4  and  C_5
REMARK    3  A    between atoms: C_5  and  N_6
REMARK    4  A    between atoms: C_10  and  N_11
REMARK    5  A    between atoms: N_11  and  C_12
REMARK    6  A    between atoms: N_11  and  C_13
REMARK    7  A    between atoms: C_13  and  C_14
REMARK    8  A    between atoms: C_17  and  C_18
REMARK                            x       y       z     vdW  Elec       q    Type
REMARK                         _______ _______ _______ _____ _____    ______ ____
ROOT
ATOM      1  N   UNL     1       5.137   5.405  17.244  0.00  0.00    +0.000 NA
ATOM      2  C   UNL     1       5.509   4.593  18.404  0.00  0.00    +0.000 C 
ATOM      3  C   UNL     1       4.266   4.025  19.091  0.00  0.00    +0.000 C 
ATOM      4  C   UNL     1       3.331   5.144  19.545  0.00  0.00    +0.000 C 
ATOM      5  C   UNL     1       2.957   6.064  18.364  0.00  0.00    +0.000 C 
ATOM      6  C   UNL     1       4.238   6.513  17.599  0.00  0.00    +0.000 C 
ENDROOT
BRANCH   5   7
ATOM      7  N   UNL     1       2.064   7.175  18.800  0.00  0.00    +0.000 NA
ATOM      8  C   UNL     1       2.058   7.399  20.249  0.00  0.00    +0.000 C 
BRANCH   7   9
ATOM      9  C   UNL     1       2.365   8.454  18.109  0.00  0.00    +0.000 C 
BRANCH   9  10
ATOM     10  C   UNL     1       1.312   9.495  18.270  0.00  0.00    +0.000 A 
ATOM     11  N   UNL     1       1.341  10.625  18.943  0.00  0.00    +0.000 NA
ATOM     12  N   UNL     1       0.128  11.246  18.707  0.00  0.00    +0.000 NA
ATOM     13  C   UNL     1      -0.550  10.451  17.906  0.00  0.00    +0.000 A 
ATOM     14  O   UNL     1       0.130   9.302  17.600  0.00  0.00    +0.000 OA
BRANCH  13  15
ATOM     15  C   UNL     1      -1.940  10.779  17.384  0.00  0.00    +0.000 C 
ATOM     16  C   UNL     1      -2.570   9.850  16.369  0.00  0.00    +0.000 C 
ATOM     17  C   UNL     1      -3.085   9.866  17.770  0.00  0.00    +0.000 C 
ENDBRANCH  13  15
ENDBRANCH   9  10
ENDBRANCH   7   9
ENDBRANCH   5   7
BRANCH   1  18
ATOM     18  C   UNL     1       6.311   5.891  16.479  0.00  0.00    +0.000 C 
BRANCH  18  22
ATOM     19  C   UNL     1       5.702   3.183  12.359  0.00  0.00    +0.000 C 
ATOM     20  C   UNL     1       6.150   4.097  13.424  0.00  0.00    +0.000 A 
ATOM     21  N   UNL     1       5.570   4.421  14.557  0.00  0.00    +0.000 NA
ATOM     22  C   UNL     1       6.497   5.271  15.123  0.00  0.00    +0.000 A 
ATOM     23  N   UNL     1       7.593   5.476  14.376  0.00  0.00    +0.000 NA
ATOM     24  O   UNL     1       7.360   4.699  13.241  0.00  0.00    +0.000 OA
ENDBRANCH  18  22
ENDBRANCH   1  18
TORSDOF 6
ENDMDL
MODEL 4
REMARK VINA RESULT:      -7.1      1.920      8.767
REMARK  Name = 
REMARK  8 active torsions:
REMARK  status: ('A' for Active; 'I' for Inactive)
REMARK    1  A    between atoms: C_1  and  C_2
REMARK    2  A    between atoms: C_4  and  C_5
REMARK    3  A    between atoms: C_5  and  N_6
REMARK    4  A    between atoms: C_10  and  N_11
REMARK    5  A    between atoms: N_11  and  C_12
REMARK    6  A    between atoms: N_11  and  C_13
REMARK    7  A    between atoms: C_13  and  C_14
REMARK    8  A    between atoms: C_17  and  C_18
REMARK                            x       y       z     vdW  Elec       q    Type
REMARK                         _______ _______ _______ _____ _____    ______ ____
ROOT
ATOM      1  N   UNL     1       4.450   4.440  17.332  0.00  0.00    +0.000 NA
ATOM      2  C   UNL     1       4.046   3.034  17.391  0.00  0.00    +0.000 C 
ATOM      3  C   UNL     1       2.521   2.906  17.398  0.00  0.00    +0.000 C 
ATOM      4  C   UNL     1       1.914   3.649  18.585  0.00  0.00    +0.000 C 
ATOM      5  C   UNL     1       2.361   5.126  18.599  0.00  0.00    +0.000 C 
ATOM      6  C   UNL     1       3.909   5.226  18.451  0.00  0.00    +0.000 C 
ENDROOT
BRANCH   5   7
ATOM      7  N   UNL     1       1.795   5.856  19.770  0.00  0.00    +0.000 NA
ATOM      8  C   UNL     1       1.858   5.105  21.026  0.00  0.00    +0.000 C 
BRANCH   7   9
ATOM      9  C   UNL     1       2.417   7.190  19.966  0.00  0.00    +0.000 C 
BRANCH   9  10
ATOM     10  C   UNL     1       1.475   8.234  20.458  0.00  0.00    +0.000 A 
ATOM     11  N   UNL     1       1.126   8.540  21.689  0.00  0.00    +0.000 NA
ATOM     12  N   UNL     1       0.277   9.627  21.590  0.00  0.00    +0.000 NA
ATOM     13  C   UNL     1       0.171   9.905  20.308  0.00  0.00    +0.000 A 
ATOM     14  O   UNL     1       0.890   9.045  19.519  0.00  0.00    +0.000 OA
BRANCH  13  15
ATOM     15  C   UNL     1      -0.662  11.056  19.768  0.00  0.00    +0.000 C 
ATOM     16  C   UNL     1      -0.984  12.212  20.689  0.00  0.00    +0.000 C 
ATOM     17  C   UNL     1       0.005  12.404  19.589  0.00  0.00    +0.000 C 
ENDBRANCH  13  15
ENDBRANCH   9  10
ENDBRANCH   7   9
ENDBRANCH   5   7
BRANCH   1  18
ATOM     18  C   UNL     1       5.919   4.613  17.215  0.00  0.00    +0.000 C 
BRANCH  18  22
ATOM     19  C   UNL     1       6.737   3.909  12.366  0.00  0.00    +0.000 C 
ATOM     20  C   UNL     1       6.713   4.362  13.768  0.00  0.00    +0.000 A 
ATOM     21  N   UNL     1       5.957   3.970  14.768  0.00  0.00    +0.000 NA
ATOM     22  C   UNL     1       6.443   4.729  15.812  0.00  0.00    +0.000 A 
ATOM     23  N   UNL     1       7.443   5.559  15.478  0.00  0.00    +0.000 NA
ATOM     24  O   UNL     1       7.620   5.319  14.115  0.00  0.00    +0.000 OA
ENDBRANCH  18  22
ENDBRANCH   1  18
TORSDOF 6
ENDMDL
MODEL 5
REMARK VINA RESULT:      -7.0      1.770      8.617
REMARK  Name = 
REMARK  8 active torsions:
REMARK  status: ('A' for Active; 'I' for Inactive)
REMARK    1  A    between atoms: C_1  and  C_2
REMARK    2  A    between atoms: C_4  and  C_5
REMARK    3  A    between atoms: C_5  and  N_6
REMARK    4  A    between atoms: C_10  and  N_11
REMARK    5  A    between atoms: N_11  and  C_12
REMARK    6  A    between atoms: N_11  and  C_13
REMARK    7  A    between atoms: C_13  and  C_14
REMARK    8  A    between atoms: C_17  and  C_18
REMARK                            x       y       z     vdW  Elec       q    Type
REMARK                         _______ _______ _______ _____ _____    ______ ____
ROOT
ATOM      1  N   UNL     1       4.534   4.110  17.217  0.00  0.00    +0.000 NA
ATOM      2  C   UNL     1       4.135   2.737  17.536  0.00  0.00    +0.000 C 
ATOM      3  C   UNL     1       2.611   2.604  17.551  0.00  0.00    +0.000 C 
ATOM      4  C   UNL     1       1.987   3.554  18.571  0.00  0.00    +0.000 C 
ATOM      5  C   UNL     1       2.428   5.010  18.310  0.00  0.00    +0.000 C 
ATOM      6  C   UNL     1       3.977   5.090  18.162  0.00  0.00    +0.000 C 
ENDROOT
BRANCH   5   7
ATOM      7  N   UNL     1       1.845   5.944  19.316  0.00  0.00    +0.000 NA
ATOM      8  C   UNL     1       1.696   5.361  20.652  0.00  0.00    +0.000 C 
BRANCH   7   9
ATOM      9  C   UNL     1       2.603   7.217  19.420  0.00  0.00    +0.000 C 
BRANCH   9  10
ATOM     10  C   UNL     1       1.782   8.435  19.177  0.00  0.00    +0.000 A 
ATOM     11  N   UNL     1       1.588   9.113  18.067  0.00  0.00    +0.000 NA
ATOM     12  N   UNL     1       0.690  10.116  18.378  0.00  0.00    +0.000 NA
ATOM     13  C   UNL     1       0.400   9.977  19.655  0.00  0.00    +0.000 A 
ATOM     14  O   UNL     1       1.076   8.938  20.241  0.00  0.00    +0.000 OA
BRANCH  13  15
ATOM     15  C   UNL     1      -0.577  10.877  20.394  0.00  0.00    +0.000 C 
ATOM     16  C   UNL     1      -0.054  11.753  21.510  0.00  0.00    +0.000 C 
ATOM     17  C   UNL     1      -0.451  12.375  20.214  0.00  0.00    +0.000 C 
ENDBRANCH  13  15
ENDBRANCH   9  10
ENDBRANCH   7   9
ENDBRANCH   5   7
BRANCH   1  18
ATOM     18  C   UNL     1       6.003   4.267  17.085  0.00  0.00    +0.000 C 
BRANCH  18  22
ATOM     19  C   UNL     1       6.827   3.813  12.207  0.00  0.00    +0.000 C 
ATOM     20  C   UNL     1       6.782   4.208  13.625  0.00  0.00    +0.000 A 
ATOM     21  N   UNL     1       6.066   3.723  14.614  0.00  0.00    +0.000 NA
ATOM     22  C   UNL     1       6.504   4.476  15.683  0.00  0.00    +0.000 A 
ATOM     23  N   UNL     1       7.436   5.391  15.376  0.00  0.00    +0.000 NA
ATOM     24  O   UNL     1       7.617   5.218  14.003  0.00  0.00    +0.000 OA
ENDBRANCH  18  22
ENDBRANCH   1  18
TORSDOF 6
ENDMDL
MODEL 6
REMARK VINA RESULT:      -7.0      2.888      7.823
REMARK  Name = 
REMARK  8 active torsions:
REMARK  status: ('A' for Active; 'I' for Inactive)
REMARK    1  A    between atoms: C_1  and  C_2
REMARK    2  A    between atoms: C_4  and  C_5
REMARK    3  A    between atoms: C_5  and  N_6
REMARK    4  A    between atoms: C_10  and  N_11
REMARK    5  A    between atoms: N_11  and  C_12
REMARK    6  A    between atoms: N_11  and  C_13
REMARK    7  A    between atoms: C_13  and  C_14
REMARK    8  A    between atoms: C_17  and  C_18
REMARK                            x       y       z     vdW  Elec       q    Type
REMARK                         _______ _______ _______ _____ _____    ______ ____
ROOT
ATOM      1  N   UNL     1       4.729   4.472  17.647  0.00  0.00    +0.000 NA
ATOM      2  C   UNL     1       4.147   3.151  17.401  0.00  0.00    +0.000 C 
ATOM      3  C   UNL     1       2.656   3.265  17.078  0.00  0.00    +0.000 C 
ATOM      4  C   UNL     1       1.898   3.939  18.219  0.00  0.00    +0.000 C 
ATOM      5  C   UNL     1       2.513   5.313  18.555  0.00  0.00    +0.000 C 
ATOM      6  C   UNL     1       4.055   5.186  18.742  0.00  0.00    +0.000 C 
ENDROOT
BRANCH   5   7
ATOM      7  N   UNL     1       1.796   5.970  19.686  0.00  0.00    +0.000 NA
ATOM      8  C   UNL     1       1.756   5.167  20.911  0.00  0.00    +0.000 C 
BRANCH   7   9
ATOM      9  C   UNL     1       2.339   7.315  20.002  0.00  0.00    +0.000 C 
BRANCH   9  10
ATOM     10  C   UNL     1       1.636   8.432  19.312  0.00  0.00    +0.000 A 
ATOM     11  N   UNL     1       1.713   8.832  18.061  0.00  0.00    +0.000 NA
ATOM     12  N   UNL     1       0.805   9.867  17.930  0.00  0.00    +0.000 NA
ATOM     13  C   UNL     1       0.240  10.021  19.108  0.00  0.00    +0.000 A 
ATOM     14  O   UNL     1       0.734   9.157  20.050  0.00  0.00    +0.000 OA
BRANCH  13  15
ATOM     15  C   UNL     1      -0.842  11.052  19.388  0.00  0.00    +0.000 C 
ATOM     16  C   UNL     1      -1.017  12.200  18.418  0.00  0.00    +0.000 C 
ATOM     17  C   UNL     1      -2.035  11.111  18.457  0.00  0.00    +0.000 C 
ENDBRANCH  13  15
ENDBRANCH   9  10
ENDBRANCH   7   9
ENDBRANCH   5   7
BRANCH   1  18
ATOM     18  C   UNL     1       6.196   4.426  17.859  0.00  0.00    +0.000 C 
BRANCH  18  22
ATOM     19  C   UNL     1       8.385   8.872  18.200  0.00  0.00    +0.000 C 
ATOM     20  C   UNL     1       7.836   7.569  17.785  0.00  0.00    +0.000 A 
ATOM     21  N   UNL     1       7.255   6.633  18.500  0.00  0.00    +0.000 NA
ATOM     22  C   UNL     1       6.933   5.696  17.541  0.00  0.00    +0.000 A 
ATOM     23  N   UNL     1       7.303   6.026  16.294  0.00  0.00    +0.000 NA
ATOM     24  O   UNL     1       7.911   7.271  16.457  0.00  0.00    +0.000 OA
ENDBRANCH  18  22
ENDBRANCH   1  18
TORSDOF 6
ENDMDL
MODEL 7
REMARK VINA RESULT:      -6.8      2.567      7.360
REMARK  Name = 
REMARK  8 active torsions:
REMARK  status: ('A' for Active; 'I' for Inactive)
REMARK    1  A    between atoms: C_1  and  C_2
REMARK    2  A    between atoms: C_4  and  C_5
REMARK    3  A    between atoms: C_5  and  N_6
REMARK    4  A    between atoms: C_10  and  N_11
REMARK    5  A    between atoms: N_11  and  C_12
REMARK    6  A    between atoms: N_11  and  C_13
REMARK    7  A    between atoms: C_13  and  C_14
REMARK    8  A    between atoms: C_17  and  C_18
REMARK                            x       y       z     vdW  Elec       q    Type
REMARK                         _______ _______ _______ _____ _____    ______ ____
ROOT
ATOM      1  N   UNL     1       3.887   3.712  16.782  0.00  0.00    +0.000 NA
ATOM      2  C   UNL     1       3.792   2.355  17.324  0.00  0.00    +0.000 C 
ATOM      3  C   UNL     1       2.393   2.091  17.886  0.00  0.00    +0.000 C 
ATOM      4  C   UNL     1       2.045   3.093  18.984  0.00  0.00    +0.000 C 
ATOM      5  C   UNL     1       2.188   4.542  18.475  0.00  0.00    +0.000 C 
ATOM      6  C   UNL     1       3.571   4.740  17.784  0.00  0.00    +0.000 C 
ENDROOT
BRANCH   5   7
ATOM      7  N   UNL     1       1.875   5.531  19.547  0.00  0.00    +0.000 NA
ATOM      8  C   UNL     1       1.779   4.944  20.886  0.00  0.00    +0.000 C 
BRANCH   7   9
ATOM      9  C   UNL     1       2.835   6.663  19.577  0.00  0.00    +0.000 C 
BRANCH   9  10
ATOM     10  C   UNL     1       2.367   7.877  18.851  0.00  0.00    +0.000 A 
ATOM     11  N   UNL     1       2.666   8.304  17.644  0.00  0.00    +0.000 NA
ATOM     12  N   UNL     1       1.908   9.442  17.438  0.00  0.00    +0.000 NA
ATOM     13  C   UNL     1       1.200   9.624  18.533  0.00  0.00    +0.000 A 
ATOM     14  O   UNL     1       1.455   8.678  19.491  0.00  0.00    +0.000 OA
BRANCH  13  15
ATOM     15  C   UNL     1       0.212  10.766  18.710  0.00  0.00    +0.000 C 
ATOM     16  C   UNL     1      -1.198  10.591  18.188  0.00  0.00    +0.000 C 
ATOM     17  C   UNL     1      -0.952  10.568  19.659  0.00  0.00    +0.000 C 
ENDBRANCH  13  15
ENDBRANCH   9  10
ENDBRANCH   7   9
ENDBRANCH   5   7
BRANCH   1  18
ATOM     18  C   UNL     1       5.191   3.981  16.128  0.00  0.00    +0.000 C 
BRANCH  18  22
ATOM     19  C   UNL     1       8.161   5.853  19.643  0.00  0.00    +0.000 C 
ATOM     20  C   UNL     1       7.365   5.571  18.436  0.00  0.00    +0.000 A 
ATOM     21  N   UNL     1       6.664   4.506  18.118  0.00  0.00    +0.000 NA
ATOM     22  C   UNL     1       6.126   4.868  16.901  0.00  0.00    +0.000 A 
ATOM     23  N   UNL     1       6.480   6.091  16.477  0.00  0.00    +0.000 NA
ATOM     24  O   UNL     1       7.311   6.557  17.496  0.00  0.00    +0.000 OA
ENDBRANCH  18  22
ENDBRANCH   1  18
TORSDOF 6
ENDMDL
MODEL 8
REMARK VINA RESULT:      -6.8      2.546      7.643
REMARK  Name = 
REMARK  8 active torsions:
REMARK  status: ('A' for Active; 'I' for Inactive)
REMARK    1  A    between atoms: C_1  and  C_2
REMARK    2  A    between atoms: C_4  and  C_5
REMARK    3  A    between atoms: C_5  and  N_6
REMARK    4  A    between atoms: C_10  and  N_11
REMARK    5  A    between atoms: N_11  and  C_12
REMARK    6  A    between atoms: N_11  and  C_13
REMARK    7  A    between atoms: C_13  and  C_14
REMARK    8  A    between atoms: C_17  and  C_18
REMARK                            x       y       z     vdW  Elec       q    Type
REMARK                         _______ _______ _______ _____ _____    ______ ____
ROOT
ATOM      1  N   UNL     1       4.026   3.676  16.887  0.00  0.00    +0.000 NA
ATOM      2  C   UNL     1       3.811   2.326  17.410  0.00  0.00    +0.000 C 
ATOM      3  C   UNL     1       2.359   2.142  17.858  0.00  0.00    +0.000 C 
ATOM      4  C   UNL     1       1.984   3.158  18.934  0.00  0.00    +0.000 C 
ATOM      5  C   UNL     1       2.251   4.599  18.448  0.00  0.00    +0.000 C 
ATOM      6  C   UNL     1       3.693   4.718  17.870  0.00  0.00    +0.000 C 
ENDROOT
BRANCH   5   7
ATOM      7  N   UNL     1       1.912   5.600  19.500  0.00  0.00    +0.000 NA
ATOM      8  C   UNL     1       1.917   5.057  20.861  0.00  0.00    +0.000 C 
BRANCH   7   9
ATOM      9  C   UNL     1       2.786   6.799  19.449  0.00  0.00    +0.000 C 
BRANCH   9  10
ATOM     10  C   UNL     1       2.089   8.041  19.014  0.00  0.00    +0.000 A 
ATOM     11  N   UNL     1       2.011   8.589  17.821  0.00  0.00    +0.000 NA
ATOM     12  N   UNL     1       1.190   9.694  17.956  0.00  0.00    +0.000 NA
ATOM     13  C   UNL     1       0.827   9.739  19.221  0.00  0.00    +0.000 A 
ATOM     14  O   UNL     1       1.379   8.729  19.966  0.00  0.00    +0.000 OA
BRANCH  13  15
ATOM     15  C   UNL     1      -0.102  10.800  19.787  0.00  0.00    +0.000 C 
ATOM     16  C   UNL     1       0.247  11.435  21.115  0.00  0.00    +0.000 C 
ATOM     17  C   UNL     1       0.399  12.228  19.860  0.00  0.00    +0.000 C 
ENDBRANCH  13  15
ENDBRANCH   9  10
ENDBRANCH   7   9
ENDBRANCH   5   7
BRANCH   1  18
ATOM     18  C   UNL     1       5.391   3.871  16.340  0.00  0.00    +0.000 C 
BRANCH  18  22
ATOM     19  C   UNL     1       8.070   7.664  18.106  0.00  0.00    +0.000 C 
ATOM     20  C   UNL     1       7.162   6.766  17.372  0.00  0.00    +0.000 A 
ATOM     21  N   UNL     1       6.991   5.468  17.479  0.00  0.00    +0.000 NA
ATOM     22  C   UNL     1       5.985   5.233  16.565  0.00  0.00    +0.000 A 
ATOM     23  N   UNL     1       5.558   6.326  15.914  0.00  0.00    +0.000 NA
ATOM     24  O   UNL     1       6.346   7.347  16.447  0.00  0.00    +0.000 OA
ENDBRANCH  18  22
ENDBRANCH   1  18
TORSDOF 6
ENDMDL
MODEL 9
REMARK VINA RESULT:      -6.8      2.761      7.375
REMARK  Name = 
REMARK  8 active torsions:
REMARK  status: ('A' for Active; 'I' for Inactive)
REMARK    1  A    between atoms: C_1  and  C_2
REMARK    2  A    between atoms: C_4  and  C_5
REMARK    3  A    between atoms: C_5  and  N_6
REMARK    4  A    between atoms: C_10  and  N_11
REMARK    5  A    between atoms: N_11  and  C_12
REMARK    6  A    between atoms: N_11  and  C_13
REMARK    7  A    between atoms: C_13  and  C_14
REMARK    8  A    between atoms: C_17  and  C_18
REMARK                            x       y       z     vdW  Elec       q    Type
REMARK                         _______ _______ _______ _____ _____    ______ ____
ROOT
ATOM      1  N   UNL     1       6.725   5.796  17.409  0.00  0.00    +0.000 NA
ATOM      2  C   UNL     1       7.092   4.523  16.785  0.00  0.00    +0.000 C 
ATOM      3  C   UNL     1       6.025   4.083  15.781  0.00  0.00    +0.000 C 
ATOM      4  C   UNL     1       4.664   3.932  16.457  0.00  0.00    +0.000 C 
ATOM      5  C   UNL     1       4.260   5.233  17.182  0.00  0.00    +0.000 C 
ATOM      6  C   UNL     1       5.423   5.731  18.092  0.00  0.00    +0.000 C 
ENDROOT
BRANCH   5   7
ATOM      7  N   UNL     1       2.944   5.089  17.868  0.00  0.00    +0.000 NA
ATOM      8  C   UNL     1       2.255   3.829  17.575  0.00  0.00    +0.000 C 
BRANCH   7   9
ATOM      9  C   UNL     1       3.046   5.259  19.340  0.00  0.00    +0.000 C 
BRANCH   9  10
ATOM     10  C   UNL     1       2.246   6.393  19.879  0.00  0.00    +0.000 A 
ATOM     11  N   UNL     1       1.567   6.487  21.001  0.00  0.00    +0.000 NA
ATOM     12  N   UNL     1       1.065   7.775  21.043  0.00  0.00    +0.000 NA
ATOM     13  C   UNL     1       1.476   8.373  19.944  0.00  0.00    +0.000 A 
ATOM     14  O   UNL     1       2.217   7.548  19.138  0.00  0.00    +0.000 OA
BRANCH  13  15
ATOM     15  C   UNL     1       1.156   9.821  19.611  0.00  0.00    +0.000 C 
ATOM     16  C   UNL     1       1.544  10.354  18.249  0.00  0.00    +0.000 C 
ATOM     17  C   UNL     1       0.106  10.100  18.555  0.00  0.00    +0.000 C 
ENDBRANCH  13  15
ENDBRANCH   9  10
ENDBRANCH   7   9
ENDBRANCH   5   7
BRANCH   1  18
ATOM     18  C   UNL     1       7.779   6.320  18.313  0.00  0.00    +0.000 C 
BRANCH  18  22
ATOM     19  C   UNL     1       9.404  10.940  19.142  0.00  0.00    +0.000 C 
ATOM     20  C   UNL     1       8.789   9.705  18.627  0.00  0.00    +0.000 A 
ATOM     21  N   UNL     1       8.877   8.471  19.068  0.00  0.00    +0.000 NA
ATOM     22  C   UNL     1       8.051   7.793  18.196  0.00  0.00    +0.000 A 
ATOM     23  N   UNL     1       7.484   8.562  17.254  0.00  0.00    +0.000 NA
ATOM     24  O   UNL     1       7.981   9.835  17.536  0.00  0.00    +0.000 OA
ENDBRANCH  18  22
ENDBRANCH   1  18
TORSDOF 6
ENDMDL
