MODEL 1
REMARK VINA RESULT:      -7.7      0.000      0.000
REMARK  Name = 
REMARK  8 active torsions:
REMARK  status: ('A' for Active; 'I' for Inactive)
REMARK    1  A    between atoms: C_1  and  C_2
REMARK    2  A    between atoms: C_2  and  N_3
REMARK    3  A    between atoms: C_4  and  O_6
REMARK    4  A    between atoms: O_6  and  C_7
REMARK    5  A    between atoms: C_11  and  O_12
REMARK    6  A    between atoms: O_12  and  C_13
REMARK    7  A    between atoms: C_13  and  C_15
REMARK    8  A    between atoms: C_20  and  O_21
REMARK                            x       y       z     vdW  Elec       q    Type
REMARK                         _______ _______ _______ _____ _____    ______ ____
ROOT
ATOM      1  C   UNL     1       6.773   5.346  15.915  0.00  0.00    +0.000 C 
ATOM      2  C   UNL     1       5.270   5.376  15.657  0.00  0.00    +0.000 C 
ATOM      3  O   UNL     1       4.705   4.303  16.433  0.00  0.00    +0.000 OA
ATOM      4  C   UNL     1       5.501   4.192  17.617  0.00  0.00    +0.000 C 
ATOM      5  C   UNL     1       4.922   4.936  18.821  0.00  0.00    +0.000 C 
ATOM      6  C   UNL     1       6.161   5.581  19.420  0.00  0.00    +0.000 C 
ATOM      7  O   UNL     1       7.003   5.920  18.302  0.00  0.00    +0.000 OA
ATOM      8  C   UNL     1       6.850   4.857  17.350  0.00  0.00    +0.000 C 
ENDROOT
BRANCH   1   9
ATOM      9  O   UNL     1       7.414   4.354  15.080  0.00  0.00    +0.000 OA
BRANCH   9  11
ATOM     10  N   UNL     1       6.737   3.432  13.187  0.00  0.00    +0.000 N 
ATOM     11  C   UNL     1       7.276   4.551  13.747  0.00  0.00    +0.000 C 
ATOM     12  O   UNL     1       7.542   5.586  13.158  0.00  0.00    +0.000 OA
ATOM     13  H   UNL     1       6.486   2.703  13.838  0.00  0.00    +0.000 HD
BRANCH  10  15
ATOM     14  C   UNL     1       4.622   3.396  11.968  0.00  0.00    +0.000 C 
ATOM     15  C   UNL     1       6.140   3.448  11.871  0.00  0.00    +0.000 C 
ENDBRANCH  10  15
ENDBRANCH   9  11
ENDBRANCH   1   9
BRANCH   5  16
ATOM     16  O   UNL     1       4.036   6.014  18.449  0.00  0.00    +0.000 OA
BRANCH  16  17
ATOM     17  C   UNL     1       2.901   6.161  19.170  0.00  0.00    +0.000 C 
ATOM     18  O   UNL     1       2.333   7.227  19.374  0.00  0.00    +0.000 OA
BRANCH  17  19
ATOM     19  C   UNL     1       2.297   4.847  19.554  0.00  0.00    +0.000 A 
ATOM     20  C   UNL     1       2.295   4.537  20.928  0.00  0.00    +0.000 A 
ATOM     21  C   UNL     1       1.622   3.411  21.415  0.00  0.00    +0.000 A 
ATOM     22  C   UNL     1       0.948   2.574  20.533  0.00  0.00    +0.000 A 
ATOM     23  C   UNL     1       0.984   2.834  19.163  0.00  0.00    +0.000 A 
ATOM     24  C   UNL     1       1.663   3.957  18.673  0.00  0.00    +0.000 A 
BRANCH  24  25
ATOM     25  O   UNL     1       1.689   4.153  17.321  0.00  0.00    +0.000 OA
ATOM     26  H   UNL     1       0.957   4.731  17.055  0.00  0.00    +0.000 HD
ENDBRANCH  24  25
ENDBRANCH  17  19
ENDBRANCH  16  17
ENDBRANCH   5  16
TORSDOF 7
ENDMDL
MODEL 2
REMARK VINA RESULT:      -7.7      3.027      4.713
REMARK  Name = 
REMARK  8 active torsions:
REMARK  status: ('A' for Active; 'I' for Inactive)
REMARK    1  A    between atoms: C_1  and  C_2
REMARK    2  A    between atoms: C_2  and  N_3
REMARK    3  A    between atoms: C_4  and  O_6
REMARK    4  A    between atoms: O_6  and  C_7
REMARK    5  A    between atoms: C_11  and  O_12
REMARK    6  A    between atoms: O_12  and  C_13
REMARK    7  A    between atoms: C_13  and  C_15
REMARK    8  A    between atoms: C_20  and  O_21
REMARK                            x       y       z     vdW  Elec       q    Type
REMARK                         _______ _______ _______ _____ _____    ______ ____
ROOT
ATOM      1  C   UNL     1       7.025   6.391  17.486  0.00  0.00    +0.000 C 
ATOM      2  C   UNL     1       5.712   6.291  18.256  0.00  0.00    +0.000 C 
ATOM      3  O   UNL     1       4.661   6.356  17.274  0.00  0.00    +0.000 OA
ATOM      4  C   UNL     1       5.164   5.720  16.095  0.00  0.00    +0.000 C 
ATOM      5  C   UNL     1       4.755   4.253  15.963  0.00  0.00    +0.000 C 
ATOM      6  C   UNL     1       6.046   3.607  15.485  0.00  0.00    +0.000 C 
ATOM      7  O   UNL     1       7.107   4.330  16.135  0.00  0.00    +0.000 OA
ATOM      8  C   UNL     1       6.690   5.702  16.175  0.00  0.00    +0.000 C 
ENDROOT
BRANCH   1   9
ATOM      9  O   UNL     1       7.337   7.770  17.188  0.00  0.00    +0.000 OA
BRANCH   9  11
ATOM     10  N   UNL     1       8.340   9.673  17.706  0.00  0.00    +0.000 N 
ATOM     11  C   UNL     1       8.209   8.359  18.042  0.00  0.00    +0.000 C 
ATOM     12  O   UNL     1       8.743   7.809  18.992  0.00  0.00    +0.000 OA
ATOM     13  H   UNL     1       7.747   9.986  16.952  0.00  0.00    +0.000 HD
BRANCH  10  15
ATOM     14  C   UNL     1      10.088  11.353  17.987  0.00  0.00    +0.000 C 
ATOM     15  C   UNL     1       8.901  10.642  18.619  0.00  0.00    +0.000 C 
ENDBRANCH  10  15
ENDBRANCH   9  11
ENDBRANCH   1   9
BRANCH   5  16
ATOM     16  O   UNL     1       4.432   3.638  17.229  0.00  0.00    +0.000 OA
BRANCH  16  17
ATOM     17  C   UNL     1       3.130   3.366  17.473  0.00  0.00    +0.000 C 
ATOM     18  O   UNL     1       2.309   3.047  16.621  0.00  0.00    +0.000 OA
BRANCH  17  19
ATOM     19  C   UNL     1       2.823   3.320  18.936  0.00  0.00    +0.000 A 
ATOM     20  C   UNL     1       1.582   3.856  19.332  0.00  0.00    +0.000 A 
ATOM     21  C   UNL     1       1.125   3.728  20.648  0.00  0.00    +0.000 A 
ATOM     22  C   UNL     1       1.906   3.069  21.590  0.00  0.00    +0.000 A 
ATOM     23  C   UNL     1       3.162   2.579  21.230  0.00  0.00    +0.000 A 
ATOM     24  C   UNL     1       3.624   2.713  19.915  0.00  0.00    +0.000 A 
BRANCH  24  25
ATOM     25  O   UNL     1       4.871   2.237  19.620  0.00  0.00    +0.000 OA
ATOM     26  H   UNL     1       4.803   1.376  19.179  0.00  0.00    +0.000 HD
ENDBRANCH  24  25
ENDBRANCH  17  19
ENDBRANCH  16  17
ENDBRANCH   5  16
TORSDOF 7
ENDMDL
MODEL 3
REMARK VINA RESULT:      -7.4      1.168      1.255
REMARK  Name = 
REMARK  8 active torsions:
REMARK  status: ('A' for Active; 'I' for Inactive)
REMARK    1  A    between atoms: C_1  and  C_2
REMARK    2  A    between atoms: C_2  and  N_3
REMARK    3  A    between atoms: C_4  and  O_6
REMARK    4  A    between atoms: O_6  and  C_7
REMARK    5  A    between atoms: C_11  and  O_12
REMARK    6  A    between atoms: O_12  and  C_13
REMARK    7  A    between atoms: C_13  and  C_15
REMARK    8  A    between atoms: C_20  and  O_21
REMARK                            x       y       z     vdW  Elec       q    Type
REMARK                         _______ _______ _______ _____ _____    ______ ____
ROOT
ATOM      1  C   UNL     1       5.979   5.050  14.770  0.00  0.00    +0.000 C 
ATOM      2  C   UNL     1       4.676   4.380  15.192  0.00  0.00    +0.000 C 
ATOM      3  O   UNL     1       4.899   3.862  16.517  0.00  0.00    +0.000 OA
ATOM      4  C   UNL     1       5.796   4.769  17.165  0.00  0.00    +0.000 C 
ATOM      5  C   UNL     1       5.097   5.811  18.039  0.00  0.00    +0.000 C 
ATOM      6  C   UNL     1       5.870   7.076  17.702  0.00  0.00    +0.000 C 
ATOM      7  O   UNL     1       6.219   6.961  16.311  0.00  0.00    +0.000 OA
ATOM      8  C   UNL     1       6.520   5.575  16.088  0.00  0.00    +0.000 C 
ENDROOT
BRANCH   1   9
ATOM      9  O   UNL     1       6.918   4.070  14.271  0.00  0.00    +0.000 OA
BRANCH   9  11
ATOM     10  N   UNL     1       6.178   2.664  12.733  0.00  0.00    +0.000 N 
ATOM     11  C   UNL     1       6.846   3.833  12.939  0.00  0.00    +0.000 C 
ATOM     12  O   UNL     1       7.265   4.578  12.068  0.00  0.00    +0.000 OA
ATOM     13  H   UNL     1       5.812   2.224  13.564  0.00  0.00    +0.000 HD
BRANCH  10  15
ATOM     14  C   UNL     1       6.172   0.981  10.964  0.00  0.00    +0.000 C 
ATOM     15  C   UNL     1       5.625   2.317  11.443  0.00  0.00    +0.000 C 
ENDBRANCH  10  15
ENDBRANCH   9  11
ENDBRANCH   1   9
BRANCH   5  16
ATOM     16  O   UNL     1       3.727   6.050  17.649  0.00  0.00    +0.000 OA
BRANCH  16  17
ATOM     17  C   UNL     1       2.823   6.230  18.639  0.00  0.00    +0.000 C 
ATOM     18  O   UNL     1       2.319   7.305  18.941  0.00  0.00    +0.000 OA
BRANCH  17  19
ATOM     19  C   UNL     1       2.357   4.936  19.226  0.00  0.00    +0.000 A 
ATOM     20  C   UNL     1       2.392   4.837  20.630  0.00  0.00    +0.000 A 
ATOM     21  C   UNL     1       1.838   3.736  21.293  0.00  0.00    +0.000 A 
ATOM     22  C   UNL     1       1.248   2.713  20.559  0.00  0.00    +0.000 A 
ATOM     23  C   UNL     1       1.252   2.767  19.165  0.00  0.00    +0.000 A 
ATOM     24  C   UNL     1       1.813   3.865  18.500  0.00  0.00    +0.000 A 
BRANCH  24  25
ATOM     25  O   UNL     1       1.813   3.857  17.134  0.00  0.00    +0.000 OA
ATOM     26  H   UNL     1       1.024   4.311  16.798  0.00  0.00    +0.000 HD
ENDBRANCH  24  25
ENDBRANCH  17  19
ENDBRANCH  16  17
ENDBRANCH   5  16
TORSDOF 7
ENDMDL
MODEL 4
REMARK VINA RESULT:      -7.4      0.721      1.398
REMARK  Name = 
REMARK  8 active torsions:
REMARK  status: ('A' for Active; 'I' for Inactive)
REMARK    1  A    between atoms: C_1  and  C_2
REMARK    2  A    between atoms: C_2  and  N_3
REMARK    3  A    between atoms: C_4  and  O_6
REMARK    4  A    between atoms: O_6  and  C_7
REMARK    5  A    between atoms: C_11  and  O_12
REMARK    6  A    between atoms: O_12  and  C_13
REMARK    7  A    between atoms: C_13  and  C_15
REMARK    8  A    between atoms: C_20  and  O_21
REMARK                            x       y       z     vdW  Elec       q    Type
REMARK                         _______ _______ _______ _____ _____    ______ ____
ROOT
ATOM      1  C   UNL     1       6.852   5.474  15.772  0.00  0.00    +0.000 C 
ATOM      2  C   UNL     1       5.380   5.463  15.370  0.00  0.00    +0.000 C 
ATOM      3  O   UNL     1       4.783   4.344  16.052  0.00  0.00    +0.000 OA
ATOM      4  C   UNL     1       5.465   4.218  17.305  0.00  0.00    +0.000 C 
ATOM      5  C   UNL     1       4.746   4.899  18.470  0.00  0.00    +0.000 C 
ATOM      6  C   UNL     1       5.898   5.563  19.207  0.00  0.00    +0.000 C 
ATOM      7  O   UNL     1       6.830   5.970  18.188  0.00  0.00    +0.000 OA
ATOM      8  C   UNL     1       6.808   4.937  17.192  0.00  0.00    +0.000 C 
ENDROOT
BRANCH   1   9
ATOM      9  O   UNL     1       7.605   4.534  14.972  0.00  0.00    +0.000 OA
BRANCH   9  11
ATOM     10  N   UNL     1       6.767   3.585  13.159  0.00  0.00    +0.000 N 
ATOM     11  C   UNL     1       7.448   4.665  13.633  0.00  0.00    +0.000 C 
ATOM     12  O   UNL     1       7.811   5.625  12.973  0.00  0.00    +0.000 OA
ATOM     13  H   UNL     1       6.455   2.930  13.861  0.00  0.00    +0.000 HD
BRANCH  10  15
ATOM     14  C   UNL     1       4.649   3.278  11.984  0.00  0.00    +0.000 C 
ATOM     15  C   UNL     1       6.133   3.591  11.861  0.00  0.00    +0.000 C 
ENDBRANCH  10  15
ENDBRANCH   9  11
ENDBRANCH   1   9
BRANCH   5  16
ATOM     16  O   UNL     1       3.861   5.959  18.049  0.00  0.00    +0.000 OA
BRANCH  16  17
ATOM     17  C   UNL     1       2.789   6.221  18.831  0.00  0.00    +0.000 C 
ATOM     18  O   UNL     1       2.353   7.340  19.072  0.00  0.00    +0.000 OA
BRANCH  17  19
ATOM     19  C   UNL     1       2.067   4.977  19.240  0.00  0.00    +0.000 A 
ATOM     20  C   UNL     1       1.584   4.162  18.197  0.00  0.00    +0.000 A 
ATOM     21  C   UNL     1       1.031   2.904  18.459  0.00  0.00    +0.000 A 
ATOM     22  C   UNL     1       0.946   2.444  19.768  0.00  0.00    +0.000 A 
ATOM     23  C   UNL     1       1.369   3.259  20.818  0.00  0.00    +0.000 A 
ATOM     24  C   UNL     1       1.916   4.522  20.560  0.00  0.00    +0.000 A 
BRANCH  24  25
ATOM     25  O   UNL     1       2.293   5.290  21.625  0.00  0.00    +0.000 OA
ATOM     26  H   UNL     1       3.144   4.982  21.973  0.00  0.00    +0.000 HD
ENDBRANCH  24  25
ENDBRANCH  17  19
ENDBRANCH  16  17
ENDBRANCH   5  16
TORSDOF 7
ENDMDL
MODEL 5
REMARK VINA RESULT:      -7.2      2.075      2.713
REMARK  Name = 
REMARK  8 active torsions:
REMARK  status: ('A' for Active; 'I' for Inactive)
REMARK    1  A    between atoms: C_1  and  C_2
REMARK    2  A    between atoms: C_2  and  N_3
REMARK    3  A    between atoms: C_4  and  O_6
REMARK    4  A    between atoms: O_6  and  C_7
REMARK    5  A    between atoms: C_11  and  O_12
REMARK    6  A    between atoms: O_12  and  C_13
REMARK    7  A    between atoms: C_13  and  C_15
REMARK    8  A    between atoms: C_20  and  O_21
REMARK                            x       y       z     vdW  Elec       q    Type
REMARK                         _______ _______ _______ _____ _____    ______ ____
ROOT
ATOM      1  C   UNL     1       5.572   4.371  14.379  0.00  0.00    +0.000 C 
ATOM      2  C   UNL     1       5.226   3.524  15.599  0.00  0.00    +0.000 C 
ATOM      3  O   UNL     1       6.323   3.673  16.519  0.00  0.00    +0.000 OA
ATOM      4  C   UNL     1       6.818   5.006  16.352  0.00  0.00    +0.000 C 
ATOM      5  C   UNL     1       6.255   6.005  17.362  0.00  0.00    +0.000 C 
ATOM      6  C   UNL     1       5.977   7.217  16.488  0.00  0.00    +0.000 C 
ATOM      7  O   UNL     1       5.562   6.691  15.214  0.00  0.00    +0.000 OA
ATOM      8  C   UNL     1       6.357   5.519  14.988  0.00  0.00    +0.000 C 
ENDROOT
BRANCH   1   9
ATOM      9  O   UNL     1       6.462   3.652  13.495  0.00  0.00    +0.000 OA
BRANCH   9  11
ATOM     10  N   UNL     1       6.724   2.250  11.804  0.00  0.00    +0.000 N 
ATOM     11  C   UNL     1       5.881   3.155  12.376  0.00  0.00    +0.000 C 
ATOM     12  O   UNL     1       4.761   3.436  11.981  0.00  0.00    +0.000 OA
ATOM     13  H   UNL     1       7.572   2.066  12.319  0.00  0.00    +0.000 HD
BRANCH  10  15
ATOM     14  C   UNL     1       6.183  -0.100  11.426  0.00  0.00    +0.000 C 
ATOM     15  C   UNL     1       6.266   1.294  10.823  0.00  0.00    +0.000 C 
ENDBRANCH  10  15
ENDBRANCH   9  11
ENDBRANCH   1   9
BRANCH   5  16
ATOM     16  O   UNL     1       4.985   5.597  17.917  0.00  0.00    +0.000 OA
BRANCH  16  17
ATOM     17  C   UNL     1       5.012   4.762  18.980  0.00  0.00    +0.000 C 
ATOM     18  O   UNL     1       5.851   4.788  19.871  0.00  0.00    +0.000 OA
BRANCH  17  19
ATOM     19  C   UNL     1       3.792   3.900  19.055  0.00  0.00    +0.000 A 
ATOM     20  C   UNL     1       2.579   4.496  18.658  0.00  0.00    +0.000 A 
ATOM     21  C   UNL     1       1.405   3.742  18.543  0.00  0.00    +0.000 A 
ATOM     22  C   UNL     1       1.427   2.382  18.829  0.00  0.00    +0.000 A 
ATOM     23  C   UNL     1       2.605   1.785  19.276  0.00  0.00    +0.000 A 
ATOM     24  C   UNL     1       3.779   2.539  19.400  0.00  0.00    +0.000 A 
BRANCH  24  25
ATOM     25  O   UNL     1       4.900   1.912  19.864  0.00  0.00    +0.000 OA
ATOM     26  H   UNL     1       5.683   2.458  19.693  0.00  0.00    +0.000 HD
ENDBRANCH  24  25
ENDBRANCH  17  19
ENDBRANCH  16  17
ENDBRANCH   5  16
TORSDOF 7
ENDMDL
MODEL 6
REMARK VINA RESULT:      -7.2      1.869      2.563
REMARK  Name = 
REMARK  8 active torsions:
REMARK  status: ('A' for Active; 'I' for Inactive)
REMARK    1  A    between atoms: C_1  and  C_2
REMARK    2  A    between atoms: C_2  and  N_3
REMARK    3  A    between atoms: C_4  and  O_6
REMARK    4  A    between atoms: O_6  and  C_7
REMARK    5  A    between atoms: C_11  and  O_12
REMARK    6  A    between atoms: O_12  and  C_13
REMARK    7  A    between atoms: C_13  and  C_15
REMARK    8  A    between atoms: C_20  and  O_21
REMARK                            x       y       z     vdW  Elec       q    Type
REMARK                         _______ _______ _______ _____ _____    ______ ____
ROOT
ATOM      1  C   UNL     1       5.547   4.486  14.358  0.00  0.00    +0.000 C 
ATOM      2  C   UNL     1       5.032   3.503  15.404  0.00  0.00    +0.000 C 
ATOM      3  O   UNL     1       6.078   3.372  16.385  0.00  0.00    +0.000 OA
ATOM      4  C   UNL     1       6.728   4.645  16.463  0.00  0.00    +0.000 C 
ATOM      5  C   UNL     1       6.216   5.531  17.598  0.00  0.00    +0.000 C 
ATOM      6  C   UNL     1       6.130   6.891  16.925  0.00  0.00    +0.000 C 
ATOM      7  O   UNL     1       5.742   6.628  15.564  0.00  0.00    +0.000 OA
ATOM      8  C   UNL     1       6.415   5.420  15.183  0.00  0.00    +0.000 C 
ENDROOT
BRANCH   1   9
ATOM      9  O   UNL     1       6.406   3.816  13.408  0.00  0.00    +0.000 OA
BRANCH   9  11
ATOM     10  N   UNL     1       6.538   2.261  11.840  0.00  0.00    +0.000 N 
ATOM     11  C   UNL     1       5.769   3.265  12.346  0.00  0.00    +0.000 C 
ATOM     12  O   UNL     1       4.660   3.584  11.949  0.00  0.00    +0.000 OA
ATOM     13  H   UNL     1       7.385   2.066  12.354  0.00  0.00    +0.000 HD
BRANCH  10  15
ATOM     14  C   UNL     1       6.303  -0.141  11.470  0.00  0.00    +0.000 C 
ATOM     15  C   UNL     1       5.997   1.257  10.953  0.00  0.00    +0.000 C 
ENDBRANCH  10  15
ENDBRANCH   9  11
ENDBRANCH   1   9
BRANCH   5  16
ATOM     16  O   UNL     1       4.876   5.195  18.020  0.00  0.00    +0.000 OA
BRANCH  16  17
ATOM     17  C   UNL     1       4.746   4.267  18.995  0.00  0.00    +0.000 C 
ATOM     18  O   UNL     1       5.664   3.842  19.685  0.00  0.00    +0.000 OA
BRANCH  17  19
ATOM     19  C   UNL     1       3.315   3.932  19.274  0.00  0.00    +0.000 A 
ATOM     20  C   UNL     1       2.866   2.676  18.822  0.00  0.00    +0.000 A 
ATOM     21  C   UNL     1       1.597   2.196  19.160  0.00  0.00    +0.000 A 
ATOM     22  C   UNL     1       0.753   2.969  19.951  0.00  0.00    +0.000 A 
ATOM     23  C   UNL     1       1.159   4.238  20.363  0.00  0.00    +0.000 A 
ATOM     24  C   UNL     1       2.427   4.724  20.019  0.00  0.00    +0.000 A 
BRANCH  24  25
ATOM     25  O   UNL     1       2.766   5.983  20.427  0.00  0.00    +0.000 OA
ATOM     26  H   UNL     1       3.326   5.937  21.217  0.00  0.00    +0.000 HD
ENDBRANCH  24  25
ENDBRANCH  17  19
ENDBRANCH  16  17
ENDBRANCH   5  16
TORSDOF 7
ENDMDL
MODEL 7
REMARK VINA RESULT:      -7.2      2.983      4.640
REMARK  Name = 
REMARK  8 active torsions:
REMARK  status: ('A' for Active; 'I' for Inactive)
REMARK    1  A    between atoms: C_1  and  C_2
REMARK    2  A    between atoms: C_2  and  N_3
REMARK    3  A    between atoms: C_4  and  O_6
REMARK    4  A    between atoms: O_6  and  C_7
REMARK    5  A    between atoms: C_11  and  O_12
REMARK    6  A    between atoms: O_12  and  C_13
REMARK    7  A    between atoms: C_13  and  C_15
REMARK    8  A    between atoms: C_20  and  O_21
REMARK                            x       y       z     vdW  Elec       q    Type
REMARK                         _______ _______ _______ _____ _____    ______ ____
ROOT
ATOM      1  C   UNL     1       7.022   6.534  17.462  0.00  0.00    +0.000 C 
ATOM      2  C   UNL     1       5.668   6.518  18.164  0.00  0.00    +0.000 C 
ATOM      3  O   UNL     1       4.673   6.560  17.124  0.00  0.00    +0.000 OA
ATOM      4  C   UNL     1       5.215   5.842  16.010  0.00  0.00    +0.000 C 
ATOM      5  C   UNL     1       4.766   4.383  15.938  0.00  0.00    +0.000 C 
ATOM      6  C   UNL     1       6.057   3.672  15.567  0.00  0.00    +0.000 C 
ATOM      7  O   UNL     1       7.107   4.398  16.232  0.00  0.00    +0.000 OA
ATOM      8  C   UNL     1       6.734   5.782  16.174  0.00  0.00    +0.000 C 
ENDROOT
BRANCH   1   9
ATOM      9  O   UNL     1       7.396   7.885  17.105  0.00  0.00    +0.000 OA
BRANCH   9  11
ATOM     10  N   UNL     1       8.395   9.796  17.598  0.00  0.00    +0.000 N 
ATOM     11  C   UNL     1       8.237   8.496  17.974  0.00  0.00    +0.000 C 
ATOM     12  O   UNL     1       8.725   7.975  18.964  0.00  0.00    +0.000 OA
ATOM     13  H   UNL     1       7.837  10.086  16.809  0.00  0.00    +0.000 HD
BRANCH  10  15
ATOM     14  C   UNL     1      10.203  11.401  17.935  0.00  0.00    +0.000 C 
ATOM     15  C   UNL     1       8.928  10.792  18.498  0.00  0.00    +0.000 C 
ENDBRANCH  10  15
ENDBRANCH   9  11
ENDBRANCH   1   9
BRANCH   5  16
ATOM     16  O   UNL     1       4.356   3.852  17.217  0.00  0.00    +0.000 OA
BRANCH  16  17
ATOM     17  C   UNL     1       3.048   3.545  17.372  0.00  0.00    +0.000 C 
ATOM     18  O   UNL     1       2.301   3.185  16.470  0.00  0.00    +0.000 OA
BRANCH  17  19
ATOM     19  C   UNL     1       2.638   3.516  18.810  0.00  0.00    +0.000 A 
ATOM     20  C   UNL     1       2.953   4.656  19.574  0.00  0.00    +0.000 A 
ATOM     21  C   UNL     1       2.484   4.803  20.884  0.00  0.00    +0.000 A 
ATOM     22  C   UNL     1       1.697   3.807  21.452  0.00  0.00    +0.000 A 
ATOM     23  C   UNL     1       1.419   2.646  20.730  0.00  0.00    +0.000 A 
ATOM     24  C   UNL     1       1.894   2.494  19.421  0.00  0.00    +0.000 A 
BRANCH  24  25
ATOM     25  O   UNL     1       1.614   1.328  18.767  0.00  0.00    +0.000 OA
ATOM     26  H   UNL     1       1.840   0.569  19.327  0.00  0.00    +0.000 HD
ENDBRANCH  24  25
ENDBRANCH  17  19
ENDBRANCH  16  17
ENDBRANCH   5  16
TORSDOF 7
ENDMDL
MODEL 8
REMARK VINA RESULT:      -7.2      1.308      1.862
REMARK  Name = 
REMARK  8 active torsions:
REMARK  status: ('A' for Active; 'I' for Inactive)
REMARK    1  A    between atoms: C_1  and  C_2
REMARK    2  A    between atoms: C_2  and  N_3
REMARK    3  A    between atoms: C_4  and  O_6
REMARK    4  A    between atoms: O_6  and  C_7
REMARK    5  A    between atoms: C_11  and  O_12
REMARK    6  A    between atoms: O_12  and  C_13
REMARK    7  A    between atoms: C_13  and  C_15
REMARK    8  A    between atoms: C_20  and  O_21
REMARK                            x       y       z     vdW  Elec       q    Type
REMARK                         _______ _______ _______ _____ _____    ______ ____
ROOT
ATOM      1  C   UNL     1       6.390   5.248  14.585  0.00  0.00    +0.000 C 
ATOM      2  C   UNL     1       4.989   4.665  14.744  0.00  0.00    +0.000 C 
ATOM      3  O   UNL     1       4.999   3.922  15.977  0.00  0.00    +0.000 OA
ATOM      4  C   UNL     1       5.886   4.613  16.863  0.00  0.00    +0.000 C 
ATOM      5  C   UNL     1       5.180   5.572  17.821  0.00  0.00    +0.000 C 
ATOM      6  C   UNL     1       6.098   6.783  17.790  0.00  0.00    +0.000 C 
ATOM      7  O   UNL     1       6.606   6.853  16.445  0.00  0.00    +0.000 OA
ATOM      8  C   UNL     1       6.808   5.496  16.024  0.00  0.00    +0.000 C 
ENDROOT
BRANCH   1   9
ATOM      9  O   UNL     1       7.292   4.264  14.031  0.00  0.00    +0.000 OA
BRANCH   9  11
ATOM     10  N   UNL     1       6.300   2.770  12.736  0.00  0.00    +0.000 N 
ATOM     11  C   UNL     1       7.040   3.913  12.746  0.00  0.00    +0.000 C 
ATOM     12  O   UNL     1       7.377   4.554  11.764  0.00  0.00    +0.000 OA
ATOM     13  H   UNL     1       6.025   2.427  13.645  0.00  0.00    +0.000 HD
BRANCH  10  15
ATOM     14  C   UNL     1       6.183   1.074  10.984  0.00  0.00    +0.000 C 
ATOM     15  C   UNL     1       5.573   2.341  11.564  0.00  0.00    +0.000 C 
ENDBRANCH  10  15
ENDBRANCH   9  11
ENDBRANCH   1   9
BRANCH   5  16
ATOM     16  O   UNL     1       3.895   6.017  17.333  0.00  0.00    +0.000 OA
BRANCH  16  17
ATOM     17  C   UNL     1       2.998   6.448  18.248  0.00  0.00    +0.000 C 
ATOM     18  O   UNL     1       2.748   7.624  18.486  0.00  0.00    +0.000 OA
BRANCH  17  19
ATOM     19  C   UNL     1       2.197   5.327  18.831  0.00  0.00    +0.000 A 
ATOM     20  C   UNL     1       1.811   4.306  17.941  0.00  0.00    +0.000 A 
ATOM     21  C   UNL     1       1.195   3.138  18.402  0.00  0.00    +0.000 A 
ATOM     22  C   UNL     1       0.948   2.978  19.761  0.00  0.00    +0.000 A 
ATOM     23  C   UNL     1       1.273   4.001  20.651  0.00  0.00    +0.000 A 
ATOM     24  C   UNL     1       1.884   5.174  20.190  0.00  0.00    +0.000 A 
BRANCH  24  25
ATOM     25  O   UNL     1       2.161   6.155  21.099  0.00  0.00    +0.000 OA
ATOM     26  H   UNL     1       3.116   6.203  21.258  0.00  0.00    +0.000 HD
ENDBRANCH  24  25
ENDBRANCH  17  19
ENDBRANCH  16  17
ENDBRANCH   5  16
TORSDOF 7
ENDMDL
MODEL 9
REMARK VINA RESULT:      -7.2      1.680      2.479
REMARK  Name = 
REMARK  8 active torsions:
REMARK  status: ('A' for Active; 'I' for Inactive)
REMARK    1  A    between atoms: C_1  and  C_2
REMARK    2  A    between atoms: C_2  and  N_3
REMARK    3  A    between atoms: C_4  and  O_6
REMARK    4  A    between atoms: O_6  and  C_7
REMARK    5  A    between atoms: C_11  and  O_12
REMARK    6  A    between atoms: O_12  and  C_13
REMARK    7  A    between atoms: C_13  and  C_15
REMARK    8  A    between atoms: C_20  and  O_21
REMARK                            x       y       z     vdW  Elec       q    Type
REMARK                         _______ _______ _______ _____ _____    ______ ____
ROOT
ATOM      1  C   UNL     1       5.600   4.486  14.219  0.00  0.00    +0.000 C 
ATOM      2  C   UNL     1       5.538   3.441  15.328  0.00  0.00    +0.000 C 
ATOM      3  O   UNL     1       6.625   3.738  16.225  0.00  0.00    +0.000 OA
ATOM      4  C   UNL     1       6.783   5.161  16.218  0.00  0.00    +0.000 C 
ATOM      5  C   UNL     1       6.066   5.868  17.368  0.00  0.00    +0.000 C 
ATOM      6  C   UNL     1       5.458   7.073  16.670  0.00  0.00    +0.000 C 
ATOM      7  O   UNL     1       5.100   6.619  15.351  0.00  0.00    +0.000 OA
ATOM      8  C   UNL     1       6.132   5.707  14.948  0.00  0.00    +0.000 C 
ENDROOT
BRANCH   1   9
ATOM      9  O   UNL     1       6.577   4.113  13.221  0.00  0.00    +0.000 OA
BRANCH   9  11
ATOM     10  N   UNL     1       4.794   3.428  12.106  0.00  0.00    +0.000 N 
ATOM     11  C   UNL     1       6.133   3.247  12.278  0.00  0.00    +0.000 C 
ATOM     12  O   UNL     1       6.835   2.473  11.649  0.00  0.00    +0.000 OA
ATOM     13  H   UNL     1       4.389   4.183  12.640  0.00  0.00    +0.000 HD
BRANCH  10  15
ATOM     14  C   UNL     1       3.319   4.041  10.260  0.00  0.00    +0.000 C 
ATOM     15  C   UNL     1       4.099   2.928  10.943  0.00  0.00    +0.000 C 
ENDBRANCH  10  15
ENDBRANCH   9  11
ENDBRANCH   1   9
BRANCH   5  16
ATOM     16  O   UNL     1       4.963   5.104  17.904  0.00  0.00    +0.000 OA
BRANCH  16  17
ATOM     17  C   UNL     1       5.068   4.674  19.182  0.00  0.00    +0.000 C 
ATOM     18  O   UNL     1       6.091   4.721  19.855  0.00  0.00    +0.000 OA
BRANCH  17  19
ATOM     19  C   UNL     1       3.745   4.292  19.764  0.00  0.00    +0.000 A 
ATOM     20  C   UNL     1       3.664   3.013  20.348  0.00  0.00    +0.000 A 
ATOM     21  C   UNL     1       2.526   2.610  21.056  0.00  0.00    +0.000 A 
ATOM     22  C   UNL     1       1.448   3.479  21.183  0.00  0.00    +0.000 A 
ATOM     23  C   UNL     1       1.487   4.729  20.566  0.00  0.00    +0.000 A 
ATOM     24  C   UNL     1       2.623   5.131  19.850  0.00  0.00    +0.000 A 
BRANCH  24  25
ATOM     25  O   UNL     1       2.601   6.355  19.244  0.00  0.00    +0.000 OA
ATOM     26  H   UNL     1       3.292   6.403  18.566  0.00  0.00    +0.000 HD
ENDBRANCH  24  25
ENDBRANCH  17  19
ENDBRANCH  16  17
ENDBRANCH   5  16
TORSDOF 7
ENDMDL
