MODEL 1
REMARK VINA RESULT:      -7.1      0.000      0.000
REMARK  Name = 
REMARK  3 active torsions:
REMARK  status: ('A' for Active; 'I' for Inactive)
REMARK    1  A    between atoms: N_2  and  C_4
REMARK    2  A    between atoms: C_6  and  N_7
REMARK    3  A    between atoms: C_11  and  C_12
REMARK                            x       y       z     vdW  Elec       q    Type
REMARK                         _______ _______ _______ _____ _____    ______ ____
ROOT
ATOM      1  C   UNL     1       6.792   5.187  18.036  0.00  0.00    +0.000 A 
ATOM      2  C   UNL     1       7.241   5.246  16.711  0.00  0.00    +0.000 A 
ATOM      3  C   UNL     1       6.484   4.617  15.714  0.00  0.00    +0.000 A 
ATOM      4  C   UNL     1       5.296   3.938  16.032  0.00  0.00    +0.000 A 
ATOM      5  C   UNL     1       4.846   3.881  17.362  0.00  0.00    +0.000 A 
ATOM      6  C   UNL     1       5.606   4.509  18.365  0.00  0.00    +0.000 A 
ENDROOT
BRANCH   5   7
ATOM      7  C   UNL     1       3.559   3.170  17.724  0.00  0.00    +0.000 C 
ATOM      8  F   UNL     1       3.083   3.509  18.952  0.00  0.00    +0.000 F 
ATOM      9  F   UNL     1       2.559   3.435  16.843  0.00  0.00    +0.000 F 
ATOM     10  F   UNL     1       3.708   1.819  17.737  0.00  0.00    +0.000 F 
ENDBRANCH   5   7
BRANCH   1  12
ATOM     11  O   UNL     1       7.549   5.343  20.223  0.00  0.00    +0.000 OA
ATOM     12  N   UNL     1       7.566   5.852  19.096  0.00  0.00    +0.000 N 
ATOM     13  O   UNL     1       8.186   6.880  18.792  0.00  0.00    +0.000 OA
ENDBRANCH   1  12
BRANCH   3  14
ATOM     14  N   UNL     1       6.930   4.679  14.314  0.00  0.00    +0.000 N 
ATOM     15  O   UNL     1       7.818   5.495  14.032  0.00  0.00    +0.000 OA
ATOM     16  O   UNL     1       6.389   3.914  13.506  0.00  0.00    +0.000 OA
ENDBRANCH   3  14
TORSDOF 3
ENDMDL
MODEL 2
REMARK VINA RESULT:      -7.1      0.097      3.871
REMARK  Name = 
REMARK  3 active torsions:
REMARK  status: ('A' for Active; 'I' for Inactive)
REMARK    1  A    between atoms: N_2  and  C_4
REMARK    2  A    between atoms: C_6  and  N_7
REMARK    3  A    between atoms: C_11  and  C_12
REMARK                            x       y       z     vdW  Elec       q    Type
REMARK                         _______ _______ _______ _____ _____    ______ ____
ROOT
ATOM      1  C   UNL     1       6.438   4.620  15.744  0.00  0.00    +0.000 A 
ATOM      2  C   UNL     1       7.204   5.261  16.726  0.00  0.00    +0.000 A 
ATOM      3  C   UNL     1       6.760   5.229  18.055  0.00  0.00    +0.000 A 
ATOM      4  C   UNL     1       5.569   4.569  18.400  0.00  0.00    +0.000 A 
ATOM      5  C   UNL     1       4.804   3.925  17.414  0.00  0.00    +0.000 A 
ATOM      6  C   UNL     1       5.245   3.958  16.079  0.00  0.00    +0.000 A 
ENDROOT
BRANCH   5   7
ATOM      7  C   UNL     1       3.527   3.192  17.768  0.00  0.00    +0.000 C 
ATOM      8  F   UNL     1       3.625   1.842  17.634  0.00  0.00    +0.000 F 
ATOM      9  F   UNL     1       3.143   3.418  19.052  0.00  0.00    +0.000 F 
ATOM     10  F   UNL     1       2.484   3.574  16.984  0.00  0.00    +0.000 F 
ENDBRANCH   5   7
BRANCH   1  12
ATOM     11  O   UNL     1       7.732   5.482  14.023  0.00  0.00    +0.000 OA
ATOM     12  N   UNL     1       6.894   4.631  14.346  0.00  0.00    +0.000 N 
ATOM     13  O   UNL     1       6.411   3.787  13.579  0.00  0.00    +0.000 OA
ENDBRANCH   1  12
BRANCH   3  14
ATOM     14  N   UNL     1       7.557   5.883  19.104  0.00  0.00    +0.000 N 
ATOM     15  O   UNL     1       8.170   6.914  18.797  0.00  0.00    +0.000 OA
ATOM     16  O   UNL     1       7.566   5.361  20.225  0.00  0.00    +0.000 OA
ENDBRANCH   3  14
TORSDOF 3
ENDMDL
MODEL 3
REMARK VINA RESULT:      -7.1      0.093      3.789
REMARK  Name = 
REMARK  3 active torsions:
REMARK  status: ('A' for Active; 'I' for Inactive)
REMARK    1  A    between atoms: N_2  and  C_4
REMARK    2  A    between atoms: C_6  and  N_7
REMARK    3  A    between atoms: C_11  and  C_12
REMARK                            x       y       z     vdW  Elec       q    Type
REMARK                         _______ _______ _______ _____ _____    ______ ____
ROOT
ATOM      1  C   UNL     1       6.431   4.611  15.754  0.00  0.00    +0.000 A 
ATOM      2  C   UNL     1       7.204   5.250  16.732  0.00  0.00    +0.000 A 
ATOM      3  C   UNL     1       6.771   5.212  18.064  0.00  0.00    +0.000 A 
ATOM      4  C   UNL     1       5.583   4.549  18.417  0.00  0.00    +0.000 A 
ATOM      5  C   UNL     1       4.811   3.908  17.434  0.00  0.00    +0.000 A 
ATOM      6  C   UNL     1       5.242   3.946  16.096  0.00  0.00    +0.000 A 
ENDROOT
BRANCH   5   7
ATOM      7  C   UNL     1       3.538   3.172  17.795  0.00  0.00    +0.000 C 
ATOM      8  F   UNL     1       3.129   3.397  19.073  0.00  0.00    +0.000 F 
ATOM      9  F   UNL     1       2.496   3.522  16.997  0.00  0.00    +0.000 F 
ATOM     10  F   UNL     1       3.675   1.824  17.675  0.00  0.00    +0.000 F 
ENDBRANCH   5   7
BRANCH   1  12
ATOM     11  O   UNL     1       7.728   5.466  14.031  0.00  0.00    +0.000 OA
ATOM     12  N   UNL     1       6.877   4.628  14.352  0.00  0.00    +0.000 N 
ATOM     13  O   UNL     1       6.372   3.800  13.581  0.00  0.00    +0.000 OA
ENDBRANCH   1  12
BRANCH   3  14
ATOM     14  N   UNL     1       7.574   5.864  19.109  0.00  0.00    +0.000 N 
ATOM     15  O   UNL     1       7.582   5.345  20.233  0.00  0.00    +0.000 OA
ATOM     16  O   UNL     1       8.191   6.891  18.800  0.00  0.00    +0.000 OA
ENDBRANCH   3  14
TORSDOF 3
ENDMDL
MODEL 4
REMARK VINA RESULT:      -7.1      0.139      1.181
REMARK  Name = 
REMARK  3 active torsions:
REMARK  status: ('A' for Active; 'I' for Inactive)
REMARK    1  A    between atoms: N_2  and  C_4
REMARK    2  A    between atoms: C_6  and  N_7
REMARK    3  A    between atoms: C_11  and  C_12
REMARK                            x       y       z     vdW  Elec       q    Type
REMARK                         _______ _______ _______ _____ _____    ______ ____
ROOT
ATOM      1  C   UNL     1       6.777   5.196  18.071  0.00  0.00    +0.000 A 
ATOM      2  C   UNL     1       7.220   5.225  16.742  0.00  0.00    +0.000 A 
ATOM      3  C   UNL     1       6.443   4.601  15.758  0.00  0.00    +0.000 A 
ATOM      4  C   UNL     1       5.241   3.954  16.092  0.00  0.00    +0.000 A 
ATOM      5  C   UNL     1       4.797   3.928  17.424  0.00  0.00    +0.000 A 
ATOM      6  C   UNL     1       5.577   4.551  18.415  0.00  0.00    +0.000 A 
ENDROOT
BRANCH   5   7
ATOM      7  C   UNL     1       3.495   3.252  17.803  0.00  0.00    +0.000 C 
ATOM      8  F   UNL     1       2.428   3.701  17.090  0.00  0.00    +0.000 F 
ATOM      9  F   UNL     1       3.540   1.908  17.614  0.00  0.00    +0.000 F 
ATOM     10  F   UNL     1       3.182   3.444  19.112  0.00  0.00    +0.000 F 
ENDBRANCH   5   7
BRANCH   1  12
ATOM     11  O   UNL     1       7.567   5.352  20.245  0.00  0.00    +0.000 OA
ATOM     12  N   UNL     1       7.571   5.858  19.116  0.00  0.00    +0.000 N 
ATOM     13  O   UNL     1       8.196   6.880  18.800  0.00  0.00    +0.000 OA
ENDBRANCH   1  12
BRANCH   3  14
ATOM     14  N   UNL     1       6.883   4.632  14.355  0.00  0.00    +0.000 N 
ATOM     15  O   UNL     1       6.345   3.843  13.568  0.00  0.00    +0.000 OA
ATOM     16  O   UNL     1       7.766   5.444  14.050  0.00  0.00    +0.000 OA
ENDBRANCH   3  14
TORSDOF 3
ENDMDL
MODEL 5
REMARK VINA RESULT:      -7.1      0.080      3.810
REMARK  Name = 
REMARK  3 active torsions:
REMARK  status: ('A' for Active; 'I' for Inactive)
REMARK    1  A    between atoms: N_2  and  C_4
REMARK    2  A    between atoms: C_6  and  N_7
REMARK    3  A    between atoms: C_11  and  C_12
REMARK                            x       y       z     vdW  Elec       q    Type
REMARK                         _______ _______ _______ _____ _____    ______ ____
ROOT
ATOM      1  C   UNL     1       6.446   4.650  15.732  0.00  0.00    +0.000 A 
ATOM      2  C   UNL     1       7.211   5.287  16.716  0.00  0.00    +0.000 A 
ATOM      3  C   UNL     1       6.777   5.234  18.047  0.00  0.00    +0.000 A 
ATOM      4  C   UNL     1       5.595   4.558  18.393  0.00  0.00    +0.000 A 
ATOM      5  C   UNL     1       4.830   3.918  17.404  0.00  0.00    +0.000 A 
ATOM      6  C   UNL     1       5.262   3.971  16.067  0.00  0.00    +0.000 A 
ENDROOT
BRANCH   5   7
ATOM      7  C   UNL     1       3.563   3.167  17.758  0.00  0.00    +0.000 C 
ATOM      8  F   UNL     1       2.500   3.509  16.983  0.00  0.00    +0.000 F 
ATOM      9  F   UNL     1       3.709   1.823  17.631  0.00  0.00    +0.000 F 
ATOM     10  F   UNL     1       3.180   3.390  19.044  0.00  0.00    +0.000 F 
ENDBRANCH   5   7
BRANCH   1  12
ATOM     11  O   UNL     1       6.332   3.920  13.533  0.00  0.00    +0.000 OA
ATOM     12  N   UNL     1       6.893   4.682  14.331  0.00  0.00    +0.000 N 
ATOM     13  O   UNL     1       7.802   5.471  14.037  0.00  0.00    +0.000 OA
ENDBRANCH   1  12
BRANCH   3  14
ATOM     14  N   UNL     1       7.574   5.885  19.099  0.00  0.00    +0.000 N 
ATOM     15  O   UNL     1       8.210   6.901  18.789  0.00  0.00    +0.000 OA
ATOM     16  O   UNL     1       7.561   5.374  20.225  0.00  0.00    +0.000 OA
ENDBRANCH   3  14
TORSDOF 3
ENDMDL
MODEL 6
REMARK VINA RESULT:      -7.0      0.204      1.155
REMARK  Name = 
REMARK  3 active torsions:
REMARK  status: ('A' for Active; 'I' for Inactive)
REMARK    1  A    between atoms: N_2  and  C_4
REMARK    2  A    between atoms: C_6  and  N_7
REMARK    3  A    between atoms: C_11  and  C_12
REMARK                            x       y       z     vdW  Elec       q    Type
REMARK                         _______ _______ _______ _____ _____    ______ ____
ROOT
ATOM      1  C   UNL     1       6.759   5.205  18.039  0.00  0.00    +0.000 A 
ATOM      2  C   UNL     1       7.211   5.227  16.714  0.00  0.00    +0.000 A 
ATOM      3  C   UNL     1       6.433   4.612  15.725  0.00  0.00    +0.000 A 
ATOM      4  C   UNL     1       5.220   3.983  16.052  0.00  0.00    +0.000 A 
ATOM      5  C   UNL     1       4.766   3.964  17.381  0.00  0.00    +0.000 A 
ATOM      6  C   UNL     1       5.548   4.578  18.376  0.00  0.00    +0.000 A 
ENDROOT
BRANCH   5   7
ATOM      7  C   UNL     1       3.453   3.307  17.751  0.00  0.00    +0.000 C 
ATOM      8  F   UNL     1       3.591   2.017  18.156  0.00  0.00    +0.000 F 
ATOM      9  F   UNL     1       2.820   3.957  18.763  0.00  0.00    +0.000 F 
ATOM     10  F   UNL     1       2.581   3.284  16.708  0.00  0.00    +0.000 F 
ENDBRANCH   5   7
BRANCH   1  12
ATOM     11  O   UNL     1       8.190   6.873  18.780  0.00  0.00    +0.000 OA
ATOM     12  N   UNL     1       7.555   5.858  19.090  0.00  0.00    +0.000 N 
ATOM     13  O   UNL     1       7.540   5.349  20.219  0.00  0.00    +0.000 OA
ENDBRANCH   1  12
BRANCH   3  14
ATOM     14  N   UNL     1       6.883   4.636  14.325  0.00  0.00    +0.000 N 
ATOM     15  O   UNL     1       7.738   5.476  14.013  0.00  0.00    +0.000 OA
ATOM     16  O   UNL     1       6.378   3.816  13.548  0.00  0.00    +0.000 OA
ENDBRANCH   3  14
TORSDOF 3
ENDMDL
MODEL 7
REMARK VINA RESULT:      -7.0      0.655      1.125
REMARK  Name = 
REMARK  3 active torsions:
REMARK  status: ('A' for Active; 'I' for Inactive)
REMARK    1  A    between atoms: N_2  and  C_4
REMARK    2  A    between atoms: C_6  and  N_7
REMARK    3  A    between atoms: C_11  and  C_12
REMARK                            x       y       z     vdW  Elec       q    Type
REMARK                         _______ _______ _______ _____ _____    ______ ____
ROOT
ATOM      1  C   UNL     1       6.671   5.381  18.008  0.00  0.00    +0.000 A 
ATOM      2  C   UNL     1       7.176   5.263  16.707  0.00  0.00    +0.000 A 
ATOM      3  C   UNL     1       6.339   4.759  15.702  0.00  0.00    +0.000 A 
ATOM      4  C   UNL     1       5.018   4.377  15.990  0.00  0.00    +0.000 A 
ATOM      5  C   UNL     1       4.513   4.498  17.295  0.00  0.00    +0.000 A 
ATOM      6  C   UNL     1       5.351   5.001  18.306  0.00  0.00    +0.000 A 
ENDROOT
BRANCH   5   7
ATOM      7  C   UNL     1       3.086   4.110  17.622  0.00  0.00    +0.000 C 
ATOM      8  F   UNL     1       2.958   3.494  18.827  0.00  0.00    +0.000 F 
ATOM      9  F   UNL     1       2.255   5.184  17.654  0.00  0.00    +0.000 F 
ATOM     10  F   UNL     1       2.567   3.252  16.703  0.00  0.00    +0.000 F 
ENDBRANCH   5   7
BRANCH   1  12
ATOM     11  O   UNL     1       7.493   5.361  20.177  0.00  0.00    +0.000 OA
ATOM     12  N   UNL     1       7.529   5.921  19.074  0.00  0.00    +0.000 N 
ATOM     13  O   UNL     1       8.234   6.902  18.800  0.00  0.00    +0.000 OA
ENDBRANCH   1  12
BRANCH   3  14
ATOM     14  N   UNL     1       6.846   4.640  14.327  0.00  0.00    +0.000 N 
ATOM     15  O   UNL     1       6.333   3.778  13.601  0.00  0.00    +0.000 OA
ATOM     16  O   UNL     1       7.754   5.407  13.983  0.00  0.00    +0.000 OA
ENDBRANCH   3  14
TORSDOF 3
ENDMDL
MODEL 8
REMARK VINA RESULT:      -7.0      0.588      3.810
REMARK  Name = 
REMARK  3 active torsions:
REMARK  status: ('A' for Active; 'I' for Inactive)
REMARK    1  A    between atoms: N_2  and  C_4
REMARK    2  A    between atoms: C_6  and  N_7
REMARK    3  A    between atoms: C_11  and  C_12
REMARK                            x       y       z     vdW  Elec       q    Type
REMARK                         _______ _______ _______ _____ _____    ______ ____
ROOT
ATOM      1  C   UNL     1       6.343   4.743  15.755  0.00  0.00    +0.000 A 
ATOM      2  C   UNL     1       7.178   5.275  16.746  0.00  0.00    +0.000 A 
ATOM      3  C   UNL     1       6.692   5.372  18.056  0.00  0.00    +0.000 A 
ATOM      4  C   UNL     1       5.392   4.945  18.376  0.00  0.00    +0.000 A 
ATOM      5  C   UNL     1       4.557   4.410  17.381  0.00  0.00    +0.000 A 
ATOM      6  C   UNL     1       5.041   4.314  16.064  0.00  0.00    +0.000 A 
ENDROOT
BRANCH   5   7
ATOM      7  C   UNL     1       3.160   3.927  17.708  0.00  0.00    +0.000 C 
ATOM      8  F   UNL     1       2.299   4.935  18.014  0.00  0.00    +0.000 F 
ATOM      9  F   UNL     1       2.596   3.248  16.675  0.00  0.00    +0.000 F 
ATOM     10  F   UNL     1       3.147   3.082  18.773  0.00  0.00    +0.000 F 
ENDBRANCH   5   7
BRANCH   1  12
ATOM     11  O   UNL     1       6.329   3.752  13.658  0.00  0.00    +0.000 OA
ATOM     12  N   UNL     1       6.840   4.621  14.376  0.00  0.00    +0.000 N 
ATOM     13  O   UNL     1       7.738   5.396  14.020  0.00  0.00    +0.000 OA
ENDBRANCH   1  12
BRANCH   3  14
ATOM     14  N   UNL     1       7.557   5.915  19.114  0.00  0.00    +0.000 N 
ATOM     15  O   UNL     1       7.533   5.354  20.218  0.00  0.00    +0.000 OA
ATOM     16  O   UNL     1       8.253   6.900  18.836  0.00  0.00    +0.000 OA
ENDBRANCH   3  14
TORSDOF 3
ENDMDL
MODEL 9
REMARK VINA RESULT:      -7.0      0.658      3.783
REMARK  Name = 
REMARK  3 active torsions:
REMARK  status: ('A' for Active; 'I' for Inactive)
REMARK    1  A    between atoms: N_2  and  C_4
REMARK    2  A    between atoms: C_6  and  N_7
REMARK    3  A    between atoms: C_11  and  C_12
REMARK                            x       y       z     vdW  Elec       q    Type
REMARK                         _______ _______ _______ _____ _____    ______ ____
ROOT
ATOM      1  C   UNL     1       6.329   4.812  15.733  0.00  0.00    +0.000 A 
ATOM      2  C   UNL     1       7.167   5.321  16.734  0.00  0.00    +0.000 A 
ATOM      3  C   UNL     1       6.665   5.443  18.036  0.00  0.00    +0.000 A 
ATOM      4  C   UNL     1       5.345   5.065  18.337  0.00  0.00    +0.000 A 
ATOM      5  C   UNL     1       4.507   4.553  17.333  0.00  0.00    +0.000 A 
ATOM      6  C   UNL     1       5.008   4.432  16.024  0.00  0.00    +0.000 A 
ENDROOT
BRANCH   5   7
ATOM      7  C   UNL     1       3.088   4.123  17.640  0.00  0.00    +0.000 C 
ATOM      8  F   UNL     1       2.957   3.531  18.857  0.00  0.00    +0.000 F 
ATOM      9  F   UNL     1       2.221   5.168  17.630  0.00  0.00    +0.000 F 
ATOM     10  F   UNL     1       2.618   3.227  16.732  0.00  0.00    +0.000 F 
ENDBRANCH   5   7
BRANCH   1  12
ATOM     11  O   UNL     1       6.344   3.778  13.657  0.00  0.00    +0.000 OA
ATOM     12  N   UNL     1       6.843   4.663  14.363  0.00  0.00    +0.000 N 
ATOM     13  O   UNL     1       7.742   5.434  14.001  0.00  0.00    +0.000 OA
ENDBRANCH   1  12
BRANCH   3  14
ATOM     14  N   UNL     1       7.532   5.962  19.104  0.00  0.00    +0.000 N 
ATOM     15  O   UNL     1       8.240   6.943  18.841  0.00  0.00    +0.000 OA
ATOM     16  O   UNL     1       7.501   5.384  20.198  0.00  0.00    +0.000 OA
ENDBRANCH   3  14
TORSDOF 3
ENDMDL
