MODEL 1
REMARK VINA RESULT:      -9.0      0.000      0.000
REMARK  Name = 
REMARK  10 active torsions:
REMARK  status: ('A' for Active; 'I' for Inactive)
REMARK    1  A    between atoms: C_1  and  C_2
REMARK    2  A    between atoms: C_2  and  C_3
REMARK    3  A    between atoms: C_4  and  C_5
REMARK    4  A    between atoms: C_5  and  C_6
REMARK    5  A    between atoms: C_8  and  C_9
REMARK    6  A    between atoms: C_11  and  C_12
REMARK    7  A    between atoms: C_15  and  S_16
REMARK    8  A    between atoms: S_16  and  C_17
REMARK    9  A    between atoms: C_17  and  C_18
REMARK   10  A    between atoms: C_18  and  C_20
REMARK                            x       y       z     vdW  Elec       q    Type
REMARK                         _______ _______ _______ _____ _____    ______ ____
ROOT
ATOM      1  C   UNL     1       2.762   3.308  19.651  0.00  0.00    +0.000 A 
ATOM      2  C   UNL     1       2.987   4.587  20.035  0.00  0.00    +0.000 A 
ATOM      3  N   UNL     1       4.168   5.271  19.786  0.00  0.00    +0.000 NA
ATOM      4  C   UNL     1       5.124   4.615  19.231  0.00  0.00    +0.000 A 
ATOM      5  N   UNL     1       5.036   3.326  18.832  0.00  0.00    +0.000 N 
ATOM      6  C   UNL     1       3.906   2.597  19.011  0.00  0.00    +0.000 A 
ATOM      7  O   UNL     1       3.858   1.413  18.698  0.00  0.00    +0.000 OA
ATOM      8  H   UNL     1       5.842   2.867  18.443  0.00  0.00    +0.000 HD
ENDROOT
BRANCH   1  10
ATOM      9  C   UNL     1       0.511   2.419  18.801  0.00  0.00    +0.000 C 
ATOM     10  C   UNL     1       1.542   2.458  19.929  0.00  0.00    +0.000 C 
ENDBRANCH   1  10
BRANCH   2  11
ATOM     11  C   UNL     1       2.040   5.358  20.941  0.00  0.00    +0.000 C 
BRANCH  11  12
ATOM     12  C   UNL     1       1.776   6.803  20.576  0.00  0.00    +0.000 A 
ATOM     13  C   UNL     1       2.156   7.282  19.314  0.00  0.00    +0.000 A 
ATOM     14  C   UNL     1       1.797   8.567  18.890  0.00  0.00    +0.000 A 
ATOM     15  C   UNL     1       2.181   9.063  17.528  0.00  0.00    +0.000 C 
ATOM     16  C   UNL     1       1.047   9.383  19.746  0.00  0.00    +0.000 A 
ATOM     17  C   UNL     1       0.663   8.929  21.014  0.00  0.00    +0.000 A 
ATOM     18  C   UNL     1      -0.205   9.774  21.899  0.00  0.00    +0.000 C 
ATOM     19  C   UNL     1       1.042   7.643  21.425  0.00  0.00    +0.000 A 
ENDBRANCH  11  12
ENDBRANCH   2  11
BRANCH   4  20
ATOM     20  S   UNL     1       6.673   5.309  18.865  0.00  0.00    +0.000 S 
BRANCH  20  21
ATOM     21  C   UNL     1       7.070   4.469  17.304  0.00  0.00    +0.000 C 
BRANCH  21  22
ATOM     22  C   UNL     1       7.258   5.427  16.138  0.00  0.00    +0.000 C 
ATOM     23  O   UNL     1       7.565   6.612  16.261  0.00  0.00    +0.000 OA
BRANCH  22  24
ATOM     24  C   UNL     1       7.033   4.895  14.761  0.00  0.00    +0.000 A 
ATOM     25  C   UNL     1       6.023   3.940  14.580  0.00  0.00    +0.000 A 
ATOM     26  C   UNL     1       5.765   3.415  13.313  0.00  0.00    +0.000 A 
ATOM     27  C   UNL     1       6.504   3.852  12.216  0.00  0.00    +0.000 A 
ATOM     28  C   UNL     1       7.502   4.812  12.384  0.00  0.00    +0.000 A 
ATOM     29  C   UNL     1       7.771   5.334  13.655  0.00  0.00    +0.000 A 
ENDBRANCH  22  24
ENDBRANCH  21  22
ENDBRANCH  20  21
ENDBRANCH   4  20
TORSDOF 7
ENDMDL
MODEL 2
REMARK VINA RESULT:      -9.0      0.653      1.766
REMARK  Name = 
REMARK  10 active torsions:
REMARK  status: ('A' for Active; 'I' for Inactive)
REMARK    1  A    between atoms: C_1  and  C_2
REMARK    2  A    between atoms: C_2  and  C_3
REMARK    3  A    between atoms: C_4  and  C_5
REMARK    4  A    between atoms: C_5  and  C_6
REMARK    5  A    between atoms: C_8  and  C_9
REMARK    6  A    between atoms: C_11  and  C_12
REMARK    7  A    between atoms: C_15  and  S_16
REMARK    8  A    between atoms: S_16  and  C_17
REMARK    9  A    between atoms: C_17  and  C_18
REMARK   10  A    between atoms: C_18  and  C_20
REMARK                            x       y       z     vdW  Elec       q    Type
REMARK                         _______ _______ _______ _____ _____    ______ ____
ROOT
ATOM      1  C   UNL     1       2.696   3.995  18.907  0.00  0.00    +0.000 A 
ATOM      2  C   UNL     1       3.166   5.028  19.645  0.00  0.00    +0.000 A 
ATOM      3  N   UNL     1       4.480   5.474  19.600  0.00  0.00    +0.000 NA
ATOM      4  C   UNL     1       5.304   4.806  18.875  0.00  0.00    +0.000 A 
ATOM      5  N   UNL     1       4.967   3.737  18.119  0.00  0.00    +0.000 N 
ATOM      6  C   UNL     1       3.698   3.258  18.083  0.00  0.00    +0.000 A 
ATOM      7  O   UNL     1       3.417   2.255  17.439  0.00  0.00    +0.000 OA
ATOM      8  H   UNL     1       5.678   3.240  17.611  0.00  0.00    +0.000 HD
ENDROOT
BRANCH   1  10
ATOM      9  C   UNL     1       1.018   2.480  20.119  0.00  0.00    +0.000 C 
ATOM     10  C   UNL     1       1.308   3.395  18.929  0.00  0.00    +0.000 C 
ENDBRANCH   1  10
BRANCH   2  11
ATOM     11  C   UNL     1       2.353   5.702  20.739  0.00  0.00    +0.000 C 
BRANCH  11  12
ATOM     12  C   UNL     1       1.743   7.045  20.404  0.00  0.00    +0.000 A 
ATOM     13  C   UNL     1       0.960   7.712  21.358  0.00  0.00    +0.000 A 
ATOM     14  C   UNL     1       0.504   9.016  21.134  0.00  0.00    +0.000 A 
ATOM     15  C   UNL     1      -0.308   9.734  22.171  0.00  0.00    +0.000 C 
ATOM     16  C   UNL     1       0.838   9.660  19.937  0.00  0.00    +0.000 A 
ATOM     17  C   UNL     1       1.611   9.012  18.967  0.00  0.00    +0.000 A 
ATOM     18  C   UNL     1       2.033   9.730  17.718  0.00  0.00    +0.000 C 
ATOM     19  C   UNL     1       2.049   7.701  19.203  0.00  0.00    +0.000 A 
ENDBRANCH  11  12
ENDBRANCH   2  11
BRANCH   4  20
ATOM     20  S   UNL     1       6.986   5.211  18.721  0.00  0.00    +0.000 S 
BRANCH  20  21
ATOM     21  C   UNL     1       7.351   4.555  17.067  0.00  0.00    +0.000 C 
BRANCH  21  22
ATOM     22  C   UNL     1       6.877   5.464  15.943  0.00  0.00    +0.000 C 
ATOM     23  O   UNL     1       6.577   6.647  16.092  0.00  0.00    +0.000 OA
BRANCH  22  24
ATOM     24  C   UNL     1       6.751   4.869  14.579  0.00  0.00    +0.000 A 
ATOM     25  C   UNL     1       5.648   4.045  14.318  0.00  0.00    +0.000 A 
ATOM     26  C   UNL     1       5.477   3.471  13.057  0.00  0.00    +0.000 A 
ATOM     27  C   UNL     1       6.399   3.728  12.045  0.00  0.00    +0.000 A 
ATOM     28  C   UNL     1       7.492   4.558  12.292  0.00  0.00    +0.000 A 
ATOM     29  C   UNL     1       7.673   5.128  13.557  0.00  0.00    +0.000 A 
ENDBRANCH  22  24
ENDBRANCH  21  22
ENDBRANCH  20  21
ENDBRANCH   4  20
TORSDOF 7
ENDMDL
MODEL 3
REMARK VINA RESULT:      -8.9      0.459      1.008
REMARK  Name = 
REMARK  10 active torsions:
REMARK  status: ('A' for Active; 'I' for Inactive)
REMARK    1  A    between atoms: C_1  and  C_2
REMARK    2  A    between atoms: C_2  and  C_3
REMARK    3  A    between atoms: C_4  and  C_5
REMARK    4  A    between atoms: C_5  and  C_6
REMARK    5  A    between atoms: C_8  and  C_9
REMARK    6  A    between atoms: C_11  and  C_12
REMARK    7  A    between atoms: C_15  and  S_16
REMARK    8  A    between atoms: S_16  and  C_17
REMARK    9  A    between atoms: C_17  and  C_18
REMARK   10  A    between atoms: C_18  and  C_20
REMARK                            x       y       z     vdW  Elec       q    Type
REMARK                         _______ _______ _______ _____ _____    ______ ____
ROOT
ATOM      1  C   UNL     1       2.796   3.352  19.496  0.00  0.00    +0.000 A 
ATOM      2  C   UNL     1       3.044   4.609  19.935  0.00  0.00    +0.000 A 
ATOM      3  N   UNL     1       4.220   5.299  19.676  0.00  0.00    +0.000 NA
ATOM      4  C   UNL     1       5.150   4.666  19.054  0.00  0.00    +0.000 A 
ATOM      5  N   UNL     1       5.038   3.400  18.595  0.00  0.00    +0.000 N 
ATOM      6  C   UNL     1       3.911   2.668  18.780  0.00  0.00    +0.000 A 
ATOM      7  O   UNL     1       3.843   1.502  18.409  0.00  0.00    +0.000 OA
ATOM      8  H   UNL     1       5.826   2.957  18.154  0.00  0.00    +0.000 HD
ENDROOT
BRANCH   1  10
ATOM      9  C   UNL     1       0.550   2.450  18.649  0.00  0.00    +0.000 C 
ATOM     10  C   UNL     1       1.581   2.495  19.776  0.00  0.00    +0.000 C 
ENDBRANCH   1  10
BRANCH   2  11
ATOM     11  C   UNL     1       2.136   5.339  20.913  0.00  0.00    +0.000 C 
BRANCH  11  12
ATOM     12  C   UNL     1       1.820   6.784  20.597  0.00  0.00    +0.000 A 
ATOM     13  C   UNL     1       2.147   7.309  19.338  0.00  0.00    +0.000 A 
ATOM     14  C   UNL     1       1.738   8.594  18.961  0.00  0.00    +0.000 A 
ATOM     15  C   UNL     1       2.066   9.138  17.603  0.00  0.00    +0.000 C 
ATOM     16  C   UNL     1       0.990   9.362  19.861  0.00  0.00    +0.000 A 
ATOM     17  C   UNL     1       0.658   8.863  21.126  0.00  0.00    +0.000 A 
ATOM     18  C   UNL     1      -0.208   9.657  22.060  0.00  0.00    +0.000 C 
ATOM     19  C   UNL     1       1.086   7.578  21.490  0.00  0.00    +0.000 A 
ENDBRANCH  11  12
ENDBRANCH   2  11
BRANCH   4  20
ATOM     20  S   UNL     1       6.689   5.369  18.666  0.00  0.00    +0.000 S 
BRANCH  20  21
ATOM     21  C   UNL     1       7.003   4.639  17.033  0.00  0.00    +0.000 C 
BRANCH  21  22
ATOM     22  C   UNL     1       6.404   5.445  15.891  0.00  0.00    +0.000 C 
ATOM     23  O   UNL     1       5.836   6.527  16.032  0.00  0.00    +0.000 OA
BRANCH  22  24
ATOM     24  C   UNL     1       6.494   4.870  14.516  0.00  0.00    +0.000 A 
ATOM     25  C   UNL     1       7.552   5.286  13.695  0.00  0.00    +0.000 A 
ATOM     26  C   UNL     1       7.689   4.773  12.404  0.00  0.00    +0.000 A 
ATOM     27  C   UNL     1       6.778   3.831  11.930  0.00  0.00    +0.000 A 
ATOM     28  C   UNL     1       5.731   3.401  12.745  0.00  0.00    +0.000 A 
ATOM     29  C   UNL     1       5.584   3.920  14.036  0.00  0.00    +0.000 A 
ENDBRANCH  22  24
ENDBRANCH  21  22
ENDBRANCH  20  21
ENDBRANCH   4  20
TORSDOF 7
ENDMDL
MODEL 4
REMARK VINA RESULT:      -8.6      1.008      1.297
REMARK  Name = 
REMARK  10 active torsions:
REMARK  status: ('A' for Active; 'I' for Inactive)
REMARK    1  A    between atoms: C_1  and  C_2
REMARK    2  A    between atoms: C_2  and  C_3
REMARK    3  A    between atoms: C_4  and  C_5
REMARK    4  A    between atoms: C_5  and  C_6
REMARK    5  A    between atoms: C_8  and  C_9
REMARK    6  A    between atoms: C_11  and  C_12
REMARK    7  A    between atoms: C_15  and  S_16
REMARK    8  A    between atoms: S_16  and  C_17
REMARK    9  A    between atoms: C_17  and  C_18
REMARK   10  A    between atoms: C_18  and  C_20
REMARK                            x       y       z     vdW  Elec       q    Type
REMARK                         _______ _______ _______ _____ _____    ______ ____
ROOT
ATOM      1  C   UNL     1       2.973   3.674  19.055  0.00  0.00    +0.000 A 
ATOM      2  C   UNL     1       3.260   4.809  18.376  0.00  0.00    +0.000 A 
ATOM      3  N   UNL     1       4.546   5.302  18.205  0.00  0.00    +0.000 NA
ATOM      4  C   UNL     1       5.500   4.679  18.801  0.00  0.00    +0.000 A 
ATOM      5  N   UNL     1       5.339   3.556  19.535  0.00  0.00    +0.000 N 
ATOM      6  C   UNL     1       4.119   2.993  19.724  0.00  0.00    +0.000 A 
ATOM      7  O   UNL     1       3.979   2.007  20.438  0.00  0.00    +0.000 OA
ATOM      8  H   UNL     1       6.129   3.148  20.006  0.00  0.00    +0.000 HD
ENDROOT
BRANCH   1  10
ATOM      9  C   UNL     1       0.972   3.562  20.656  0.00  0.00    +0.000 C 
ATOM     10  C   UNL     1       1.609   3.089  19.350  0.00  0.00    +0.000 C 
ENDBRANCH   1  10
BRANCH   2  11
ATOM     11  C   UNL     1       2.191   5.769  17.878  0.00  0.00    +0.000 C 
BRANCH  11  12
ATOM     12  C   UNL     1       2.049   7.076  18.628  0.00  0.00    +0.000 A 
ATOM     13  C   UNL     1       2.146   8.291  17.934  0.00  0.00    +0.000 A 
ATOM     14  C   UNL     1       1.874   9.509  18.567  0.00  0.00    +0.000 A 
ATOM     15  C   UNL     1       1.952  10.802  17.812  0.00  0.00    +0.000 C 
ATOM     16  C   UNL     1       1.500   9.508  19.916  0.00  0.00    +0.000 A 
ATOM     17  C   UNL     1       1.404   8.309  20.632  0.00  0.00    +0.000 A 
ATOM     18  C   UNL     1       0.928   8.302  22.055  0.00  0.00    +0.000 C 
ATOM     19  C   UNL     1       1.691   7.099  19.983  0.00  0.00    +0.000 A 
ENDBRANCH  11  12
ENDBRANCH   2  11
BRANCH   4  20
ATOM     20  S   UNL     1       7.163   5.169  18.712  0.00  0.00    +0.000 S 
BRANCH  20  21
ATOM     21  C   UNL     1       7.599   4.618  17.037  0.00  0.00    +0.000 C 
BRANCH  21  22
ATOM     22  C   UNL     1       7.000   5.490  15.943  0.00  0.00    +0.000 C 
ATOM     23  O   UNL     1       6.626   6.649  16.112  0.00  0.00    +0.000 OA
BRANCH  22  24
ATOM     24  C   UNL     1       6.840   4.887  14.587  0.00  0.00    +0.000 A 
ATOM     25  C   UNL     1       5.754   4.028  14.371  0.00  0.00    +0.000 A 
ATOM     26  C   UNL     1       5.552   3.443  13.119  0.00  0.00    +0.000 A 
ATOM     27  C   UNL     1       6.426   3.726  12.071  0.00  0.00    +0.000 A 
ATOM     28  C   UNL     1       7.501   4.590  12.273  0.00  0.00    +0.000 A 
ATOM     29  C   UNL     1       7.713   5.171  13.529  0.00  0.00    +0.000 A 
ENDBRANCH  22  24
ENDBRANCH  21  22
ENDBRANCH  20  21
ENDBRANCH   4  20
TORSDOF 7
ENDMDL
MODEL 5
REMARK VINA RESULT:      -8.5      1.156      2.194
REMARK  Name = 
REMARK  10 active torsions:
REMARK  status: ('A' for Active; 'I' for Inactive)
REMARK    1  A    between atoms: C_1  and  C_2
REMARK    2  A    between atoms: C_2  and  C_3
REMARK    3  A    between atoms: C_4  and  C_5
REMARK    4  A    between atoms: C_5  and  C_6
REMARK    5  A    between atoms: C_8  and  C_9
REMARK    6  A    between atoms: C_11  and  C_12
REMARK    7  A    between atoms: C_15  and  S_16
REMARK    8  A    between atoms: S_16  and  C_17
REMARK    9  A    between atoms: C_17  and  C_18
REMARK   10  A    between atoms: C_18  and  C_20
REMARK                            x       y       z     vdW  Elec       q    Type
REMARK                         _______ _______ _______ _____ _____    ______ ____
ROOT
ATOM      1  C   UNL     1       2.584   4.132  18.546  0.00  0.00    +0.000 A 
ATOM      2  C   UNL     1       3.389   4.992  19.215  0.00  0.00    +0.000 A 
ATOM      3  N   UNL     1       4.743   5.144  18.952  0.00  0.00    +0.000 NA
ATOM      4  C   UNL     1       5.266   4.359  18.079  0.00  0.00    +0.000 A 
ATOM      5  N   UNL     1       4.577   3.438  17.369  0.00  0.00    +0.000 N 
ATOM      6  C   UNL     1       3.246   3.248  17.544  0.00  0.00    +0.000 A 
ATOM      7  O   UNL     1       2.644   2.371  16.936  0.00  0.00    +0.000 OA
ATOM      8  H   UNL     1       5.065   2.830  16.733  0.00  0.00    +0.000 HD
ENDROOT
BRANCH   1  10
ATOM      9  C   UNL     1       0.838   2.856  19.925  0.00  0.00    +0.000 C 
ATOM     10  C   UNL     1       1.120   3.848  18.797  0.00  0.00    +0.000 C 
ENDBRANCH   1  10
BRANCH   2  11
ATOM     11  C   UNL     1       2.939   5.757  20.450  0.00  0.00    +0.000 C 
BRANCH  11  12
ATOM     12  C   UNL     1       2.100   6.994  20.215  0.00  0.00    +0.000 A 
ATOM     13  C   UNL     1       1.251   7.462  21.229  0.00  0.00    +0.000 A 
ATOM     14  C   UNL     1       0.575   8.681  21.100  0.00  0.00    +0.000 A 
ATOM     15  C   UNL     1      -0.309   9.190  22.200  0.00  0.00    +0.000 C 
ATOM     16  C   UNL     1       0.753   9.440  19.937  0.00  0.00    +0.000 A 
ATOM     17  C   UNL     1       1.588   8.990  18.909  0.00  0.00    +0.000 A 
ATOM     18  C   UNL     1       1.838   9.840  17.697  0.00  0.00    +0.000 C 
ATOM     19  C   UNL     1       2.249   7.761  19.050  0.00  0.00    +0.000 A 
ENDBRANCH  11  12
ENDBRANCH   2  11
BRANCH   4  20
ATOM     20  S   UNL     1       6.946   4.399  17.644  0.00  0.00    +0.000 S 
BRANCH  20  21
ATOM     21  C   UNL     1       7.030   5.962  16.723  0.00  0.00    +0.000 C 
BRANCH  21  22
ATOM     22  C   UNL     1       6.013   6.049  15.594  0.00  0.00    +0.000 C 
ATOM     23  O   UNL     1       5.019   6.773  15.616  0.00  0.00    +0.000 OA
BRANCH  22  24
ATOM     24  C   UNL     1       6.231   5.183  14.398  0.00  0.00    +0.000 A 
ATOM     25  C   UNL     1       7.409   5.361  13.660  0.00  0.00    +0.000 A 
ATOM     26  C   UNL     1       7.667   4.572  12.537  0.00  0.00    +0.000 A 
ATOM     27  C   UNL     1       6.756   3.590  12.154  0.00  0.00    +0.000 A 
ATOM     28  C   UNL     1       5.588   3.397  12.891  0.00  0.00    +0.000 A 
ATOM     29  C   UNL     1       5.320   4.192  14.011  0.00  0.00    +0.000 A 
ENDBRANCH  22  24
ENDBRANCH  21  22
ENDBRANCH  20  21
ENDBRANCH   4  20
TORSDOF 7
ENDMDL
MODEL 6
REMARK VINA RESULT:      -8.4      3.676      7.922
REMARK  Name = 
REMARK  10 active torsions:
REMARK  status: ('A' for Active; 'I' for Inactive)
REMARK    1  A    between atoms: C_1  and  C_2
REMARK    2  A    between atoms: C_2  and  C_3
REMARK    3  A    between atoms: C_4  and  C_5
REMARK    4  A    between atoms: C_5  and  C_6
REMARK    5  A    between atoms: C_8  and  C_9
REMARK    6  A    between atoms: C_11  and  C_12
REMARK    7  A    between atoms: C_15  and  S_16
REMARK    8  A    between atoms: S_16  and  C_17
REMARK    9  A    between atoms: C_17  and  C_18
REMARK   10  A    between atoms: C_18  and  C_20
REMARK                            x       y       z     vdW  Elec       q    Type
REMARK                         _______ _______ _______ _____ _____    ______ ____
ROOT
ATOM      1  C   UNL     1       2.521   5.242  19.313  0.00  0.00    +0.000 A 
ATOM      2  C   UNL     1       2.811   6.456  18.787  0.00  0.00    +0.000 A 
ATOM      3  N   UNL     1       2.404   7.658  19.350  0.00  0.00    +0.000 NA
ATOM      4  C   UNL     1       1.640   7.597  20.381  0.00  0.00    +0.000 A 
ATOM      5  N   UNL     1       1.252   6.448  20.978  0.00  0.00    +0.000 N 
ATOM      6  C   UNL     1       1.632   5.233  20.510  0.00  0.00    +0.000 A 
ATOM      7  O   UNL     1       1.227   4.198  21.026  0.00  0.00    +0.000 OA
ATOM      8  H   UNL     1       0.617   6.479  21.758  0.00  0.00    +0.000 HD
ENDROOT
BRANCH   1  10
ATOM      9  C   UNL     1       1.940   3.398  17.627  0.00  0.00    +0.000 C 
ATOM     10  C   UNL     1       2.861   3.882  18.746  0.00  0.00    +0.000 C 
ENDBRANCH   1  10
BRANCH   2  11
ATOM     11  C   UNL     1       3.462   6.634  17.424  0.00  0.00    +0.000 C 
BRANCH  11  12
ATOM     12  C   UNL     1       4.793   5.946  17.211  0.00  0.00    +0.000 A 
ATOM     13  C   UNL     1       5.089   5.374  15.965  0.00  0.00    +0.000 A 
ATOM     14  C   UNL     1       6.362   4.862  15.689  0.00  0.00    +0.000 A 
ATOM     15  C   UNL     1       6.681   4.278  14.345  0.00  0.00    +0.000 C 
ATOM     16  C   UNL     1       7.351   4.924  16.678  0.00  0.00    +0.000 A 
ATOM     17  C   UNL     1       7.077   5.482  17.932  0.00  0.00    +0.000 A 
ATOM     18  C   UNL     1       8.159   5.618  18.963  0.00  0.00    +0.000 C 
ATOM     19  C   UNL     1       5.792   5.981  18.194  0.00  0.00    +0.000 A 
ENDBRANCH  11  12
ENDBRANCH   2  11
BRANCH   4  20
ATOM     20  S   UNL     1       1.022   8.999  21.197  0.00  0.00    +0.000 S 
BRANCH  20  21
ATOM     21  C   UNL     1       0.643  10.082  19.789  0.00  0.00    +0.000 C 
BRANCH  21  22
ATOM     22  C   UNL     1      -0.717  10.756  19.899  0.00  0.00    +0.000 C 
ATOM     23  O   UNL     1      -1.127  11.319  20.912  0.00  0.00    +0.000 OA
BRANCH  22  24
ATOM     24  C   UNL     1      -1.612  10.707  18.705  0.00  0.00    +0.000 A 
ATOM     25  C   UNL     1      -2.749  11.526  18.700  0.00  0.00    +0.000 A 
ATOM     26  C   UNL     1      -3.616  11.527  17.606  0.00  0.00    +0.000 A 
ATOM     27  C   UNL     1      -3.343  10.720  16.503  0.00  0.00    +0.000 A 
ATOM     28  C   UNL     1      -2.207   9.912  16.494  0.00  0.00    +0.000 A 
ATOM     29  C   UNL     1      -1.340   9.901  17.593  0.00  0.00    +0.000 A 
ENDBRANCH  22  24
ENDBRANCH  21  22
ENDBRANCH  20  21
ENDBRANCH   4  20
TORSDOF 7
ENDMDL
MODEL 7
REMARK VINA RESULT:      -8.4      3.818      6.321
REMARK  Name = 
REMARK  10 active torsions:
REMARK  status: ('A' for Active; 'I' for Inactive)
REMARK    1  A    between atoms: C_1  and  C_2
REMARK    2  A    between atoms: C_2  and  C_3
REMARK    3  A    between atoms: C_4  and  C_5
REMARK    4  A    between atoms: C_5  and  C_6
REMARK    5  A    between atoms: C_8  and  C_9
REMARK    6  A    between atoms: C_11  and  C_12
REMARK    7  A    between atoms: C_15  and  S_16
REMARK    8  A    between atoms: S_16  and  C_17
REMARK    9  A    between atoms: C_17  and  C_18
REMARK   10  A    between atoms: C_18  and  C_20
REMARK                            x       y       z     vdW  Elec       q    Type
REMARK                         _______ _______ _______ _____ _____    ______ ____
ROOT
ATOM      1  C   UNL     1       0.363  10.331  21.371  0.00  0.00    +0.000 A 
ATOM      2  C   UNL     1       0.448   9.938  20.078  0.00  0.00    +0.000 A 
ATOM      3  N   UNL     1       0.985   8.724  19.673  0.00  0.00    +0.000 NA
ATOM      4  C   UNL     1       1.501   7.976  20.582  0.00  0.00    +0.000 A 
ATOM      5  N   UNL     1       1.509   8.271  21.901  0.00  0.00    +0.000 N 
ATOM      6  C   UNL     1       0.977   9.422  22.382  0.00  0.00    +0.000 A 
ATOM      7  O   UNL     1       1.042   9.704  23.572  0.00  0.00    +0.000 OA
ATOM      8  H   UNL     1       1.971   7.654  22.548  0.00  0.00    +0.000 HD
ENDROOT
BRANCH   1  10
ATOM      9  C   UNL     1      -1.536  11.602  22.535  0.00  0.00    +0.000 C 
ATOM     10  C   UNL     1      -0.144  11.651  21.907  0.00  0.00    +0.000 C 
ENDBRANCH   1  10
BRANCH   2  11
ATOM     11  C   UNL     1       0.130  10.859  18.910  0.00  0.00    +0.000 C 
BRANCH  11  12
ATOM     12  C   UNL     1      -1.279  10.801  18.362  0.00  0.00    +0.000 A 
ATOM     13  C   UNL     1      -2.314  11.474  19.028  0.00  0.00    +0.000 A 
ATOM     14  C   UNL     1      -3.595  11.563  18.471  0.00  0.00    +0.000 A 
ATOM     15  C   UNL     1      -4.689  12.309  19.176  0.00  0.00    +0.000 C 
ATOM     16  C   UNL     1      -3.841  10.966  17.229  0.00  0.00    +0.000 A 
ATOM     17  C   UNL     1      -2.827  10.282  16.549  0.00  0.00    +0.000 A 
ATOM     18  C   UNL     1      -3.071   9.710  15.183  0.00  0.00    +0.000 C 
ATOM     19  C   UNL     1      -1.552  10.194  17.127  0.00  0.00    +0.000 A 
ENDBRANCH  11  12
ENDBRANCH   2  11
BRANCH   4  20
ATOM     20  S   UNL     1       2.233   6.437  20.251  0.00  0.00    +0.000 S 
BRANCH  20  21
ATOM     21  C   UNL     1       2.826   6.692  18.553  0.00  0.00    +0.000 C 
BRANCH  21  22
ATOM     22  C   UNL     1       3.184   5.396  17.841  0.00  0.00    +0.000 C 
ATOM     23  O   UNL     1       2.360   4.559  17.477  0.00  0.00    +0.000 OA
BRANCH  22  24
ATOM     24  C   UNL     1       4.630   5.120  17.591  0.00  0.00    +0.000 A 
ATOM     25  C   UNL     1       4.994   4.590  16.346  0.00  0.00    +0.000 A 
ATOM     26  C   UNL     1       6.333   4.321  16.056  0.00  0.00    +0.000 A 
ATOM     27  C   UNL     1       7.318   4.593  17.004  0.00  0.00    +0.000 A 
ATOM     28  C   UNL     1       6.965   5.134  18.240  0.00  0.00    +0.000 A 
ATOM     29  C   UNL     1       5.623   5.396  18.539  0.00  0.00    +0.000 A 
ENDBRANCH  22  24
ENDBRANCH  21  22
ENDBRANCH  20  21
ENDBRANCH   4  20
TORSDOF 7
ENDMDL
MODEL 8
REMARK VINA RESULT:      -8.4      3.865      8.350
REMARK  Name = 
REMARK  10 active torsions:
REMARK  status: ('A' for Active; 'I' for Inactive)
REMARK    1  A    between atoms: C_1  and  C_2
REMARK    2  A    between atoms: C_2  and  C_3
REMARK    3  A    between atoms: C_4  and  C_5
REMARK    4  A    between atoms: C_5  and  C_6
REMARK    5  A    between atoms: C_8  and  C_9
REMARK    6  A    between atoms: C_11  and  C_12
REMARK    7  A    between atoms: C_15  and  S_16
REMARK    8  A    between atoms: S_16  and  C_17
REMARK    9  A    between atoms: C_17  and  C_18
REMARK   10  A    between atoms: C_18  and  C_20
REMARK                            x       y       z     vdW  Elec       q    Type
REMARK                         _______ _______ _______ _____ _____    ______ ____
ROOT
ATOM      1  C   UNL     1       2.153   6.355  20.008  0.00  0.00    +0.000 A 
ATOM      2  C   UNL     1       2.601   6.528  18.742  0.00  0.00    +0.000 A 
ATOM      3  N   UNL     1       2.555   7.739  18.066  0.00  0.00    +0.000 NA
ATOM      4  C   UNL     1       1.978   8.723  18.657  0.00  0.00    +0.000 A 
ATOM      5  N   UNL     1       1.462   8.669  19.906  0.00  0.00    +0.000 N 
ATOM      6  C   UNL     1       1.495   7.532  20.645  0.00  0.00    +0.000 A 
ATOM      7  O   UNL     1       0.973   7.480  21.752  0.00  0.00    +0.000 OA
ATOM      8  H   UNL     1       0.988   9.470  20.286  0.00  0.00    +0.000 HD
ENDROOT
BRANCH   1  10
ATOM      9  C   UNL     1       0.964   4.122  20.428  0.00  0.00    +0.000 C 
ATOM     10  C   UNL     1       2.101   5.071  20.806  0.00  0.00    +0.000 C 
ENDBRANCH   1  10
BRANCH   2  11
ATOM     11  C   UNL     1       3.038   5.374  17.853  0.00  0.00    +0.000 C 
BRANCH  11  12
ATOM     12  C   UNL     1       4.499   5.333  17.462  0.00  0.00    +0.000 A 
ATOM     13  C   UNL     1       5.484   5.615  18.421  0.00  0.00    +0.000 A 
ATOM     14  C   UNL     1       6.843   5.443  18.132  0.00  0.00    +0.000 A 
ATOM     15  C   UNL     1       7.890   5.719  19.171  0.00  0.00    +0.000 C 
ATOM     16  C   UNL     1       7.219   4.982  16.865  0.00  0.00    +0.000 A 
ATOM     17  C   UNL     1       6.255   4.702  15.890  0.00  0.00    +0.000 A 
ATOM     18  C   UNL     1       6.653   4.136  14.558  0.00  0.00    +0.000 C 
ATOM     19  C   UNL     1       4.898   4.891  16.193  0.00  0.00    +0.000 A 
ENDBRANCH  11  12
ENDBRANCH   2  11
BRANCH   4  20
ATOM     20  S   UNL     1       1.815  10.300  17.950  0.00  0.00    +0.000 S 
BRANCH  20  21
ATOM     21  C   UNL     1       0.809  11.142  19.207  0.00  0.00    +0.000 C 
BRANCH  21  22
ATOM     22  C   UNL     1      -0.262  12.045  18.612  0.00  0.00    +0.000 C 
ATOM     23  O   UNL     1      -0.107  13.244  18.388  0.00  0.00    +0.000 OA
BRANCH  22  24
ATOM     24  C   UNL     1      -1.590  11.434  18.305  0.00  0.00    +0.000 A 
ATOM     25  C   UNL     1      -2.739  12.087  18.770  0.00  0.00    +0.000 A 
ATOM     26  C   UNL     1      -4.006  11.563  18.503  0.00  0.00    +0.000 A 
ATOM     27  C   UNL     1      -4.132  10.393  17.757  0.00  0.00    +0.000 A 
ATOM     28  C   UNL     1      -2.994   9.745  17.279  0.00  0.00    +0.000 A 
ATOM     29  C   UNL     1      -1.721  10.260  17.552  0.00  0.00    +0.000 A 
ENDBRANCH  22  24
ENDBRANCH  21  22
ENDBRANCH  20  21
ENDBRANCH   4  20
TORSDOF 7
ENDMDL
MODEL 9
REMARK VINA RESULT:      -8.3      4.429      7.521
REMARK  Name = 
REMARK  10 active torsions:
REMARK  status: ('A' for Active; 'I' for Inactive)
REMARK    1  A    between atoms: C_1  and  C_2
REMARK    2  A    between atoms: C_2  and  C_3
REMARK    3  A    between atoms: C_4  and  C_5
REMARK    4  A    between atoms: C_5  and  C_6
REMARK    5  A    between atoms: C_8  and  C_9
REMARK    6  A    between atoms: C_11  and  C_12
REMARK    7  A    between atoms: C_15  and  S_16
REMARK    8  A    between atoms: S_16  and  C_17
REMARK    9  A    between atoms: C_17  and  C_18
REMARK   10  A    between atoms: C_18  and  C_20
REMARK                            x       y       z     vdW  Elec       q    Type
REMARK                         _______ _______ _______ _____ _____    ______ ____
ROOT
ATOM      1  C   UNL     1      -0.576  10.828  21.288  0.00  0.00    +0.000 A 
ATOM      2  C   UNL     1      -0.779  11.079  19.973  0.00  0.00    +0.000 A 
ATOM      3  N   UNL     1      -0.078  10.455  18.951  0.00  0.00    +0.000 NA
ATOM      4  C   UNL     1       0.871   9.657  19.289  0.00  0.00    +0.000 A 
ATOM      5  N   UNL     1       1.194   9.350  20.565  0.00  0.00    +0.000 N 
ATOM      6  C   UNL     1       0.537   9.893  21.621  0.00  0.00    +0.000 A 
ATOM      7  O   UNL     1       0.877   9.651  22.773  0.00  0.00    +0.000 OA
ATOM      8  H   UNL     1       1.979   8.749  20.752  0.00  0.00    +0.000 HD
ENDROOT
BRANCH   1  10
ATOM      9  C   UNL     1      -0.797  12.936  22.733  0.00  0.00    +0.000 C 
ATOM     10  C   UNL     1      -1.238  11.496  22.472  0.00  0.00    +0.000 C 
ENDBRANCH   1  10
BRANCH   2  11
ATOM     11  C   UNL     1      -1.672  12.205  19.473  0.00  0.00    +0.000 C 
BRANCH  11  12
ATOM     12  C   UNL     1      -2.730  11.832  18.457  0.00  0.00    +0.000 A 
ATOM     13  C   UNL     1      -2.346  11.360  17.193  0.00  0.00    +0.000 A 
ATOM     14  C   UNL     1      -3.293  10.869  16.287  0.00  0.00    +0.000 A 
ATOM     15  C   UNL     1      -2.872  10.339  14.948  0.00  0.00    +0.000 C 
ATOM     16  C   UNL     1      -4.644  10.853  16.653  0.00  0.00    +0.000 A 
ATOM     17  C   UNL     1      -5.052  11.327  17.905  0.00  0.00    +0.000 A 
ATOM     18  C   UNL     1      -6.489  11.238  18.327  0.00  0.00    +0.000 C 
ATOM     19  C   UNL     1      -4.090  11.825  18.797  0.00  0.00    +0.000 A 
ENDBRANCH  11  12
ENDBRANCH   2  11
BRANCH   4  20
ATOM     20  S   UNL     1       1.861   8.809  18.142  0.00  0.00    +0.000 S 
BRANCH  20  21
ATOM     21  C   UNL     1       2.543   7.486  19.182  0.00  0.00    +0.000 C 
BRANCH  21  22
ATOM     22  C   UNL     1       2.853   6.213  18.409  0.00  0.00    +0.000 C 
ATOM     23  O   UNL     1       3.617   6.159  17.447  0.00  0.00    +0.000 OA
BRANCH  22  24
ATOM     24  C   UNL     1       2.165   4.958  18.836  0.00  0.00    +0.000 A 
ATOM     25  C   UNL     1       1.756   4.853  20.172  0.00  0.00    +0.000 A 
ATOM     26  C   UNL     1       1.101   3.705  20.623  0.00  0.00    +0.000 A 
ATOM     27  C   UNL     1       0.837   2.662  19.737  0.00  0.00    +0.000 A 
ATOM     28  C   UNL     1       1.228   2.765  18.402  0.00  0.00    +0.000 A 
ATOM     29  C   UNL     1       1.894   3.910  17.948  0.00  0.00    +0.000 A 
ENDBRANCH  22  24
ENDBRANCH  21  22
ENDBRANCH  20  21
ENDBRANCH   4  20
TORSDOF 7
ENDMDL
