MODEL 1
REMARK VINA RESULT:      -7.7      0.000      0.000
REMARK  Name = 
REMARK  7 active torsions:
REMARK  status: ('A' for Active; 'I' for Inactive)
REMARK    1  A    between atoms: C_1  and  O_2
REMARK    2  A    between atoms: O_2  and  C_3
REMARK    3  A    between atoms: C_9  and  C_10
REMARK    4  A    between atoms: N_12  and  C_13
REMARK    5  A    between atoms: C_13  and  C_14
REMARK    6  A    between atoms: C_14  and  C_15
REMARK    7  A    between atoms: C_18  and  C_19
REMARK                            x       y       z     vdW  Elec       q    Type
REMARK                         _______ _______ _______ _____ _____    ______ ____
ROOT
ATOM      1  C   UNL     1      -0.428  10.095  18.753  0.00  0.00    +0.000 C 
ATOM      2  O   UNL     1      -0.420   9.829  19.953  0.00  0.00    +0.000 OA
ATOM      3  N   UNL     1       0.692   9.972  17.969  0.00  0.00    +0.000 N 
ATOM      4  H   UNL     1       0.592  10.116  16.970  0.00  0.00    +0.000 HD
ENDROOT
BRANCH   1  11
ATOM      5  C   UNL     1      -2.637  11.430  18.710  0.00  0.00    +0.000 A 
ATOM      6  C   UNL     1      -3.792  11.794  18.001  0.00  0.00    +0.000 A 
ATOM      7  C   UNL     1      -4.015  11.318  16.706  0.00  0.00    +0.000 A 
ATOM      8  C   UNL     1      -3.079  10.482  16.107  0.00  0.00    +0.000 A 
ATOM      9 CL   UNL     1      -3.354   9.908  14.510  0.00  0.00    +0.000 Cl
ATOM     10  C   UNL     1      -1.927  10.115  16.792  0.00  0.00    +0.000 A 
ATOM     11  C   UNL     1      -1.688  10.581  18.097  0.00  0.00    +0.000 A 
BRANCH   5  13
ATOM     12  C   UNL     1      -1.903  13.255  20.060  0.00  0.00    +0.000 C 
ATOM     13  O   UNL     1      -2.367  11.911  19.966  0.00  0.00    +0.000 OA
ENDBRANCH   5  13
ENDBRANCH   1  11
BRANCH   3  14
ATOM     14  C   UNL     1       1.966   9.506  18.483  0.00  0.00    +0.000 C 
BRANCH  14  15
ATOM     15  C   UNL     1       2.483   8.302  17.699  0.00  0.00    +0.000 C 
BRANCH  15  16
ATOM     16  C   UNL     1       2.354   7.017  18.479  0.00  0.00    +0.000 A 
ATOM     17  C   UNL     1       2.070   7.052  19.850  0.00  0.00    +0.000 A 
ATOM     18  C   UNL     1       1.930   5.867  20.575  0.00  0.00    +0.000 A 
ATOM     19  C   UNL     1       2.079   4.624  19.945  0.00  0.00    +0.000 A 
ATOM     20  C   UNL     1       2.390   4.592  18.577  0.00  0.00    +0.000 A 
ATOM     21  C   UNL     1       2.529   5.777  17.851  0.00  0.00    +0.000 A 
BRANCH  19  22
ATOM     22  C   UNL     1       1.899   3.335  20.708  0.00  0.00    +0.000 C 
ATOM     23  F   UNL     1       2.138   2.219  19.964  0.00  0.00    +0.000 F 
ATOM     24  F   UNL     1       2.732   3.248  21.784  0.00  0.00    +0.000 F 
ATOM     25  F   UNL     1       0.638   3.190  21.202  0.00  0.00    +0.000 F 
ENDBRANCH  19  22
ENDBRANCH  15  16
ENDBRANCH  14  15
ENDBRANCH   3  14
TORSDOF 6
ENDMDL
MODEL 2
REMARK VINA RESULT:      -7.5      8.875     10.641
REMARK  Name = 
REMARK  7 active torsions:
REMARK  status: ('A' for Active; 'I' for Inactive)
REMARK    1  A    between atoms: C_1  and  O_2
REMARK    2  A    between atoms: O_2  and  C_3
REMARK    3  A    between atoms: C_9  and  C_10
REMARK    4  A    between atoms: N_12  and  C_13
REMARK    5  A    between atoms: C_13  and  C_14
REMARK    6  A    between atoms: C_14  and  C_15
REMARK    7  A    between atoms: C_18  and  C_19
REMARK                            x       y       z     vdW  Elec       q    Type
REMARK                         _______ _______ _______ _____ _____    ______ ____
ROOT
ATOM      1  C   UNL     1       7.088   5.676  18.704  0.00  0.00    +0.000 C 
ATOM      2  O   UNL     1       7.922   5.258  19.504  0.00  0.00    +0.000 OA
ATOM      3  N   UNL     1       7.187   6.916  18.124  0.00  0.00    +0.000 N 
ATOM      4  H   UNL     1       6.517   7.159  17.402  0.00  0.00    +0.000 HD
ENDROOT
BRANCH   1  11
ATOM      5  C   UNL     1       5.590   4.413  17.021  0.00  0.00    +0.000 A 
ATOM      6  C   UNL     1       4.440   3.640  16.801  0.00  0.00    +0.000 A 
ATOM      7  C   UNL     1       3.604   3.286  17.864  0.00  0.00    +0.000 A 
ATOM      8  C   UNL     1       3.918   3.694  19.155  0.00  0.00    +0.000 A 
ATOM      9 CL   UNL     1       2.891   3.246  20.460  0.00  0.00    +0.000 Cl
ATOM     10  C   UNL     1       5.055   4.456  19.393  0.00  0.00    +0.000 A 
ATOM     11  C   UNL     1       5.906   4.825  18.335  0.00  0.00    +0.000 A 
BRANCH   5  13
ATOM     12  C   UNL     1       6.243   4.122  14.745  0.00  0.00    +0.000 C 
ATOM     13  O   UNL     1       6.455   4.745  16.009  0.00  0.00    +0.000 OA
ENDBRANCH   5  13
ENDBRANCH   1  11
BRANCH   3  14
ATOM     14  C   UNL     1       8.284   7.826  18.393  0.00  0.00    +0.000 C 
BRANCH  14  15
ATOM     15  C   UNL     1       8.145   9.124  17.601  0.00  0.00    +0.000 C 
BRANCH  15  16
ATOM     16  C   UNL     1       8.746  10.302  18.328  0.00  0.00    +0.000 A 
ATOM     17  C   UNL     1       9.339  10.126  19.584  0.00  0.00    +0.000 A 
ATOM     18  C   UNL     1       9.915  11.206  20.254  0.00  0.00    +0.000 A 
ATOM     19  C   UNL     1       9.903  12.487  19.683  0.00  0.00    +0.000 A 
ATOM     20  C   UNL     1       9.285  12.666  18.436  0.00  0.00    +0.000 A 
ATOM     21  C   UNL     1       8.709  11.585  17.765  0.00  0.00    +0.000 A 
BRANCH  19  22
ATOM     22  C   UNL     1      10.549  13.658  20.380  0.00  0.00    +0.000 C 
ATOM     23  F   UNL     1      10.289  13.712  21.717  0.00  0.00    +0.000 F 
ATOM     24  F   UNL     1      11.908  13.645  20.268  0.00  0.00    +0.000 F 
ATOM     25  F   UNL     1      10.146  14.857  19.873  0.00  0.00    +0.000 F 
ENDBRANCH  19  22
ENDBRANCH  15  16
ENDBRANCH  14  15
ENDBRANCH   3  14
TORSDOF 6
ENDMDL
MODEL 3
REMARK VINA RESULT:      -7.5      8.166     10.125
REMARK  Name = 
REMARK  7 active torsions:
REMARK  status: ('A' for Active; 'I' for Inactive)
REMARK    1  A    between atoms: C_1  and  O_2
REMARK    2  A    between atoms: O_2  and  C_3
REMARK    3  A    between atoms: C_9  and  C_10
REMARK    4  A    between atoms: N_12  and  C_13
REMARK    5  A    between atoms: C_13  and  C_14
REMARK    6  A    between atoms: C_14  and  C_15
REMARK    7  A    between atoms: C_18  and  C_19
REMARK                            x       y       z     vdW  Elec       q    Type
REMARK                         _______ _______ _______ _____ _____    ______ ____
ROOT
ATOM      1  C   UNL     1       6.537   5.743  18.932  0.00  0.00    +0.000 C 
ATOM      2  O   UNL     1       7.164   5.433  19.943  0.00  0.00    +0.000 OA
ATOM      3  N   UNL     1       6.944   6.756  18.101  0.00  0.00    +0.000 N 
ATOM      4  H   UNL     1       6.434   6.895  17.235  0.00  0.00    +0.000 HD
ENDROOT
BRANCH   1  11
ATOM      5  C   UNL     1       5.058   4.334  17.353  0.00  0.00    +0.000 A 
ATOM      6  C   UNL     1       3.824   3.707  17.125  0.00  0.00    +0.000 A 
ATOM      7  C   UNL     1       2.810   3.755  18.086  0.00  0.00    +0.000 A 
ATOM      8  C   UNL     1       3.027   4.423  19.286  0.00  0.00    +0.000 A 
ATOM      9 CL   UNL     1       1.781   4.470  20.469  0.00  0.00    +0.000 Cl
ATOM     10  C   UNL     1       4.246   5.045  19.532  0.00  0.00    +0.000 A 
ATOM     11  C   UNL     1       5.276   5.010  18.574  0.00  0.00    +0.000 A 
BRANCH   5  13
ATOM     12  C   UNL     1       5.770   4.524  15.083  0.00  0.00    +0.000 C 
ATOM     13  O   UNL     1       6.089   4.272  16.449  0.00  0.00    +0.000 OA
ENDBRANCH   5  13
ENDBRANCH   1  11
BRANCH   3  14
ATOM     14  C   UNL     1       8.147   7.532  18.335  0.00  0.00    +0.000 C 
BRANCH  14  15
ATOM     15  C   UNL     1       8.163   8.810  17.499  0.00  0.00    +0.000 C 
BRANCH  15  16
ATOM     16  C   UNL     1       8.637  10.003  18.293  0.00  0.00    +0.000 A 
ATOM     17  C   UNL     1       8.602  11.283  17.726  0.00  0.00    +0.000 A 
ATOM     18  C   UNL     1       9.020  12.395  18.460  0.00  0.00    +0.000 A 
ATOM     19  C   UNL     1       9.487  12.247  19.774  0.00  0.00    +0.000 A 
ATOM     20  C   UNL     1       9.546  10.960  20.330  0.00  0.00    +0.000 A 
ATOM     21  C   UNL     1       9.127   9.847  19.595  0.00  0.00    +0.000 A 
BRANCH  19  22
ATOM     22  C   UNL     1       9.912  13.441  20.591  0.00  0.00    +0.000 C 
ATOM     23  F   UNL     1      11.018  14.072  20.105  0.00  0.00    +0.000 F 
ATOM     24  F   UNL     1       8.941  14.396  20.660  0.00  0.00    +0.000 F 
ATOM     25  F   UNL     1      10.206  13.116  21.881  0.00  0.00    +0.000 F 
ENDBRANCH  19  22
ENDBRANCH  15  16
ENDBRANCH  14  15
ENDBRANCH   3  14
TORSDOF 6
ENDMDL
MODEL 4
REMARK VINA RESULT:      -7.5      7.400      9.729
REMARK  Name = 
REMARK  7 active torsions:
REMARK  status: ('A' for Active; 'I' for Inactive)
REMARK    1  A    between atoms: C_1  and  O_2
REMARK    2  A    between atoms: O_2  and  C_3
REMARK    3  A    between atoms: C_9  and  C_10
REMARK    4  A    between atoms: N_12  and  C_13
REMARK    5  A    between atoms: C_13  and  C_14
REMARK    6  A    between atoms: C_14  and  C_15
REMARK    7  A    between atoms: C_18  and  C_19
REMARK                            x       y       z     vdW  Elec       q    Type
REMARK                         _______ _______ _______ _____ _____    ______ ____
ROOT
ATOM      1  C   UNL     1       6.155   5.673  18.784  0.00  0.00    +0.000 C 
ATOM      2  O   UNL     1       6.803   5.311  19.764  0.00  0.00    +0.000 OA
ATOM      3  N   UNL     1       6.574   6.694  17.967  0.00  0.00    +0.000 N 
ATOM      4  H   UNL     1       6.041   6.877  17.123  0.00  0.00    +0.000 HD
ENDROOT
BRANCH   1  11
ATOM      5  C   UNL     1       3.685   5.674  18.032  0.00  0.00    +0.000 A 
ATOM      6  C   UNL     1       2.521   4.934  17.775  0.00  0.00    +0.000 A 
ATOM      7  C   UNL     1       2.506   3.546  17.938  0.00  0.00    +0.000 A 
ATOM      8  C   UNL     1       3.659   2.887  18.351  0.00  0.00    +0.000 A 
ATOM      9 CL   UNL     1       3.638   1.179  18.541  0.00  0.00    +0.000 Cl
ATOM     10  C   UNL     1       4.823   3.603  18.606  0.00  0.00    +0.000 A 
ATOM     11  C   UNL     1       4.854   5.001  18.450  0.00  0.00    +0.000 A 
BRANCH   5  13
ATOM     12  C   UNL     1       2.562   7.778  18.105  0.00  0.00    +0.000 C 
ATOM     13  O   UNL     1       3.747   7.032  17.843  0.00  0.00    +0.000 OA
ENDBRANCH   5  13
ENDBRANCH   1  11
BRANCH   3  14
ATOM     14  C   UNL     1       7.814   7.415  18.179  0.00  0.00    +0.000 C 
BRANCH  14  15
ATOM     15  C   UNL     1       7.837   8.733  17.408  0.00  0.00    +0.000 C 
BRANCH  15  16
ATOM     16  C   UNL     1       8.540   9.828  18.172  0.00  0.00    +0.000 A 
ATOM     17  C   UNL     1       9.129   9.553  19.413  0.00  0.00    +0.000 A 
ATOM     18  C   UNL     1       9.798  10.555  20.117  0.00  0.00    +0.000 A 
ATOM     19  C   UNL     1       9.887  11.854  19.597  0.00  0.00    +0.000 A 
ATOM     20  C   UNL     1       9.274  12.133  18.366  0.00  0.00    +0.000 A 
ATOM     21  C   UNL     1       8.604  11.130  17.661  0.00  0.00    +0.000 A 
BRANCH  19  22
ATOM     22  C   UNL     1      10.635  12.940  20.331  0.00  0.00    +0.000 C 
ATOM     23  F   UNL     1      10.461  14.181  19.797  0.00  0.00    +0.000 F 
ATOM     24  F   UNL     1      10.255  13.041  21.636  0.00  0.00    +0.000 F 
ATOM     25  F   UNL     1      11.980  12.728  20.350  0.00  0.00    +0.000 F 
ENDBRANCH  19  22
ENDBRANCH  15  16
ENDBRANCH  14  15
ENDBRANCH   3  14
TORSDOF 6
ENDMDL
MODEL 5
REMARK VINA RESULT:      -7.4      4.573      7.898
REMARK  Name = 
REMARK  7 active torsions:
REMARK  status: ('A' for Active; 'I' for Inactive)
REMARK    1  A    between atoms: C_1  and  O_2
REMARK    2  A    between atoms: O_2  and  C_3
REMARK    3  A    between atoms: C_9  and  C_10
REMARK    4  A    between atoms: N_12  and  C_13
REMARK    5  A    between atoms: C_13  and  C_14
REMARK    6  A    between atoms: C_14  and  C_15
REMARK    7  A    between atoms: C_18  and  C_19
REMARK                            x       y       z     vdW  Elec       q    Type
REMARK                         _______ _______ _______ _____ _____    ______ ____
ROOT
ATOM      1  C   UNL     1       2.503   6.924  18.765  0.00  0.00    +0.000 C 
ATOM      2  O   UNL     1       2.402   7.182  19.962  0.00  0.00    +0.000 OA
ATOM      3  N   UNL     1       2.402   7.893  17.797  0.00  0.00    +0.000 N 
ATOM      4  H   UNL     1       2.591   7.627  16.836  0.00  0.00    +0.000 HD
ENDROOT
BRANCH   1  11
ATOM      5  C   UNL     1       3.865   5.078  17.579  0.00  0.00    +0.000 A 
ATOM      6  C   UNL     1       3.958   3.732  17.194  0.00  0.00    +0.000 A 
ATOM      7  C   UNL     1       2.947   2.824  17.522  0.00  0.00    +0.000 A 
ATOM      8  C   UNL     1       1.840   3.254  18.246  0.00  0.00    +0.000 A 
ATOM      9 CL   UNL     1       0.605   2.130  18.654  0.00  0.00    +0.000 Cl
ATOM     10  C   UNL     1       1.733   4.582  18.640  0.00  0.00    +0.000 A 
ATOM     11  C   UNL     1       2.739   5.511  18.315  0.00  0.00    +0.000 A 
BRANCH   5  13
ATOM     12  C   UNL     1       5.154   6.235  15.939  0.00  0.00    +0.000 C 
ATOM     13  O   UNL     1       4.856   5.987  17.310  0.00  0.00    +0.000 OA
ENDBRANCH   5  13
ENDBRANCH   1  11
BRANCH   3  14
ATOM     14  C   UNL     1       2.183   9.293  18.104  0.00  0.00    +0.000 C 
BRANCH  14  15
ATOM     15  C   UNL     1       0.733   9.704  17.853  0.00  0.00    +0.000 C 
BRANCH  15  16
ATOM     16  C   UNL     1       0.084  10.282  19.086  0.00  0.00    +0.000 A 
ATOM     17  C   UNL     1       0.483   9.854  20.358  0.00  0.00    +0.000 A 
ATOM     18  C   UNL     1      -0.099  10.399  21.504  0.00  0.00    +0.000 A 
ATOM     19  C   UNL     1      -1.097  11.378  21.400  0.00  0.00    +0.000 A 
ATOM     20  C   UNL     1      -1.514  11.786  20.124  0.00  0.00    +0.000 A 
ATOM     21  C   UNL     1      -0.931  11.241  18.976  0.00  0.00    +0.000 A 
BRANCH  19  22
ATOM     22  C   UNL     1      -1.713  11.999  22.629  0.00  0.00    +0.000 C 
ATOM     23  F   UNL     1      -2.867  12.680  22.379  0.00  0.00    +0.000 F 
ATOM     24  F   UNL     1      -2.029  11.071  23.577  0.00  0.00    +0.000 F 
ATOM     25  F   UNL     1      -0.881  12.887  23.240  0.00  0.00    +0.000 F 
ENDBRANCH  19  22
ENDBRANCH  15  16
ENDBRANCH  14  15
ENDBRANCH   3  14
TORSDOF 6
ENDMDL
MODEL 6
REMARK VINA RESULT:      -7.4      5.627      7.738
REMARK  Name = 
REMARK  7 active torsions:
REMARK  status: ('A' for Active; 'I' for Inactive)
REMARK    1  A    between atoms: C_1  and  O_2
REMARK    2  A    between atoms: O_2  and  C_3
REMARK    3  A    between atoms: C_9  and  C_10
REMARK    4  A    between atoms: N_12  and  C_13
REMARK    5  A    between atoms: C_13  and  C_14
REMARK    6  A    between atoms: C_14  and  C_15
REMARK    7  A    between atoms: C_18  and  C_19
REMARK                            x       y       z     vdW  Elec       q    Type
REMARK                         _______ _______ _______ _____ _____    ______ ____
ROOT
ATOM      1  C   UNL     1       4.101   5.929  18.175  0.00  0.00    +0.000 C 
ATOM      2  O   UNL     1       3.909   6.546  17.129  0.00  0.00    +0.000 OA
ATOM      3  N   UNL     1       5.358   5.749  18.696  0.00  0.00    +0.000 N 
ATOM      4  H   UNL     1       5.436   5.315  19.610  0.00  0.00    +0.000 HD
ENDROOT
BRANCH   1  11
ATOM      5  C   UNL     1       2.229   5.992  19.952  0.00  0.00    +0.000 A 
ATOM      6  C   UNL     1       1.179   5.321  20.596  0.00  0.00    +0.000 A 
ATOM      7  C   UNL     1       0.842   4.012  20.238  0.00  0.00    +0.000 A 
ATOM      8  C   UNL     1       1.546   3.370  19.226  0.00  0.00    +0.000 A 
ATOM      9 CL   UNL     1       1.120   1.764  18.783  0.00  0.00    +0.000 Cl
ATOM     10  C   UNL     1       2.587   4.021  18.573  0.00  0.00    +0.000 A 
ATOM     11  C   UNL     1       2.942   5.336  18.924  0.00  0.00    +0.000 A 
BRANCH   5  13
ATOM     12  C   UNL     1       1.515   8.255  20.197  0.00  0.00    +0.000 C 
ATOM     13  O   UNL     1       2.561   7.290  20.250  0.00  0.00    +0.000 OA
ENDBRANCH   5  13
ENDBRANCH   1  11
BRANCH   3  14
ATOM     14  C   UNL     1       6.554   6.278  18.071  0.00  0.00    +0.000 C 
BRANCH  14  15
ATOM     15  C   UNL     1       7.444   5.164  17.524  0.00  0.00    +0.000 C 
BRANCH  15  16
ATOM     16  C   UNL     1       7.003   4.703  16.156  0.00  0.00    +0.000 A 
ATOM     17  C   UNL     1       5.995   3.740  16.029  0.00  0.00    +0.000 A 
ATOM     18  C   UNL     1       5.568   3.324  14.768  0.00  0.00    +0.000 A 
ATOM     19  C   UNL     1       6.146   3.857  13.607  0.00  0.00    +0.000 A 
ATOM     20  C   UNL     1       7.174   4.803  13.738  0.00  0.00    +0.000 A 
ATOM     21  C   UNL     1       7.602   5.220  15.000  0.00  0.00    +0.000 A 
BRANCH  19  22
ATOM     22  C   UNL     1       5.674   3.440  12.237  0.00  0.00    +0.000 C 
ATOM     23  F   UNL     1       4.372   3.754  11.986  0.00  0.00    +0.000 F 
ATOM     24  F   UNL     1       6.395   4.025  11.238  0.00  0.00    +0.000 F 
ATOM     25  F   UNL     1       5.778   2.097  12.033  0.00  0.00    +0.000 F 
ENDBRANCH  19  22
ENDBRANCH  15  16
ENDBRANCH  14  15
ENDBRANCH   3  14
TORSDOF 6
ENDMDL
MODEL 7
REMARK VINA RESULT:      -7.4      7.924      9.935
REMARK  Name = 
REMARK  7 active torsions:
REMARK  status: ('A' for Active; 'I' for Inactive)
REMARK    1  A    between atoms: C_1  and  O_2
REMARK    2  A    between atoms: O_2  and  C_3
REMARK    3  A    between atoms: C_9  and  C_10
REMARK    4  A    between atoms: N_12  and  C_13
REMARK    5  A    between atoms: C_13  and  C_14
REMARK    6  A    between atoms: C_14  and  C_15
REMARK    7  A    between atoms: C_18  and  C_19
REMARK                            x       y       z     vdW  Elec       q    Type
REMARK                         _______ _______ _______ _____ _____    ______ ____
ROOT
ATOM      1  C   UNL     1       6.210   5.580  18.743  0.00  0.00    +0.000 C 
ATOM      2  O   UNL     1       6.989   5.065  19.543  0.00  0.00    +0.000 OA
ATOM      3  N   UNL     1       6.526   6.721  18.048  0.00  0.00    +0.000 N 
ATOM      4  H   UNL     1       5.878   7.038  17.334  0.00  0.00    +0.000 HD
ENDROOT
BRANCH   1  11
ATOM      5  C   UNL     1       4.510   4.214  17.363  0.00  0.00    +0.000 A 
ATOM      6  C   UNL     1       3.204   3.715  17.243  0.00  0.00    +0.000 A 
ATOM      7  C   UNL     1       2.250   3.965  18.233  0.00  0.00    +0.000 A 
ATOM      8  C   UNL     1       2.598   4.709  19.356  0.00  0.00    +0.000 A 
ATOM      9 CL   UNL     1       1.424   5.005  20.575  0.00  0.00    +0.000 Cl
ATOM     10  C   UNL     1       3.889   5.207  19.494  0.00  0.00    +0.000 A 
ATOM     11  C   UNL     1       4.860   4.968  18.505  0.00  0.00    +0.000 A 
BRANCH   5  13
ATOM     12  C   UNL     1       5.419   4.681  15.207  0.00  0.00    +0.000 C 
ATOM     13  O   UNL     1       5.482   3.953  16.430  0.00  0.00    +0.000 OA
ENDBRANCH   5  13
ENDBRANCH   1  11
BRANCH   3  14
ATOM     14  C   UNL     1       7.799   7.401  18.185  0.00  0.00    +0.000 C 
BRANCH  14  15
ATOM     15  C   UNL     1       7.832   8.701  17.384  0.00  0.00    +0.000 C 
BRANCH  15  16
ATOM     16  C   UNL     1       8.502   9.820  18.142  0.00  0.00    +0.000 A 
ATOM     17  C   UNL     1       9.146   9.560  19.358  0.00  0.00    +0.000 A 
ATOM     18  C   UNL     1       9.786  10.586  20.055  0.00  0.00    +0.000 A 
ATOM     19  C   UNL     1       9.788  11.895  19.554  0.00  0.00    +0.000 A 
ATOM     20  C   UNL     1       9.118  12.159  18.349  0.00  0.00    +0.000 A 
ATOM     21  C   UNL     1       8.479  11.132  17.650  0.00  0.00    +0.000 A 
BRANCH  19  22
ATOM     22  C   UNL     1      10.501  13.008  20.280  0.00  0.00    +0.000 C 
ATOM     23  F   UNL     1      11.855  12.861  20.315  0.00  0.00    +0.000 F 
ATOM     24  F   UNL     1      10.275  14.228  19.713  0.00  0.00    +0.000 F 
ATOM     25  F   UNL     1      10.105  13.124  21.579  0.00  0.00    +0.000 F 
ENDBRANCH  19  22
ENDBRANCH  15  16
ENDBRANCH  14  15
ENDBRANCH   3  14
TORSDOF 6
ENDMDL
MODEL 8
REMARK VINA RESULT:      -7.4      4.697      8.024
REMARK  Name = 
REMARK  7 active torsions:
REMARK  status: ('A' for Active; 'I' for Inactive)
REMARK    1  A    between atoms: C_1  and  O_2
REMARK    2  A    between atoms: O_2  and  C_3
REMARK    3  A    between atoms: C_9  and  C_10
REMARK    4  A    between atoms: N_12  and  C_13
REMARK    5  A    between atoms: C_13  and  C_14
REMARK    6  A    between atoms: C_14  and  C_15
REMARK    7  A    between atoms: C_18  and  C_19
REMARK                            x       y       z     vdW  Elec       q    Type
REMARK                         _______ _______ _______ _____ _____    ______ ____
ROOT
ATOM      1  C   UNL     1       2.448   7.272  18.672  0.00  0.00    +0.000 C 
ATOM      2  O   UNL     1       2.234   7.425  19.872  0.00  0.00    +0.000 OA
ATOM      3  N   UNL     1       2.273   8.286  17.763  0.00  0.00    +0.000 N 
ATOM      4  H   UNL     1       2.559   8.121  16.804  0.00  0.00    +0.000 HD
ENDROOT
BRANCH   1  11
ATOM      5  C   UNL     1       4.044   5.748  17.332  0.00  0.00    +0.000 A 
ATOM      6  C   UNL     1       4.358   4.455  16.887  0.00  0.00    +0.000 A 
ATOM      7  C   UNL     1       3.557   3.364  17.239  0.00  0.00    +0.000 A 
ATOM      8  C   UNL     1       2.441   3.559  18.045  0.00  0.00    +0.000 A 
ATOM      9 CL   UNL     1       1.465   2.213  18.483  0.00  0.00    +0.000 Cl
ATOM     10  C   UNL     1       2.117   4.832  18.499  0.00  0.00    +0.000 A 
ATOM     11  C   UNL     1       2.910   5.941  18.152  0.00  0.00    +0.000 A 
BRANCH   5  13
ATOM     12  C   UNL     1       6.241   6.661  17.146  0.00  0.00    +0.000 C 
ATOM     13  O   UNL     1       4.830   6.834  17.040  0.00  0.00    +0.000 OA
ENDBRANCH   5  13
ENDBRANCH   1  11
BRANCH   3  14
ATOM     14  C   UNL     1       1.838   9.617  18.141  0.00  0.00    +0.000 C 
BRANCH  14  15
ATOM     15  C   UNL     1       0.319   9.754  18.071  0.00  0.00    +0.000 C 
BRANCH  15  16
ATOM     16  C   UNL     1      -0.249  10.434  19.292  0.00  0.00    +0.000 A 
ATOM     17  C   UNL     1      -1.089  11.546  19.152  0.00  0.00    +0.000 A 
ATOM     18  C   UNL     1      -1.634  12.168  20.275  0.00  0.00    +0.000 A 
ATOM     19  C   UNL     1      -1.345  11.695  21.563  0.00  0.00    +0.000 A 
ATOM     20  C   UNL     1      -0.482  10.598  21.702  0.00  0.00    +0.000 A 
ATOM     21  C   UNL     1       0.064   9.974  20.578  0.00  0.00    +0.000 A 
BRANCH  19  22
ATOM     22  C   UNL     1      -1.951  12.338  22.786  0.00  0.00    +0.000 C 
ATOM     23  F   UNL     1      -1.057  13.039  23.538  0.00  0.00    +0.000 F 
ATOM     24  F   UNL     1      -2.943  13.220  22.471  0.00  0.00    +0.000 F 
ATOM     25  F   UNL     1      -2.516  11.429  23.629  0.00  0.00    +0.000 F 
ENDBRANCH  19  22
ENDBRANCH  15  16
ENDBRANCH  14  15
ENDBRANCH   3  14
TORSDOF 6
ENDMDL
MODEL 9
REMARK VINA RESULT:      -7.3      5.649      7.747
REMARK  Name = 
REMARK  7 active torsions:
REMARK  status: ('A' for Active; 'I' for Inactive)
REMARK    1  A    between atoms: C_1  and  O_2
REMARK    2  A    between atoms: O_2  and  C_3
REMARK    3  A    between atoms: C_9  and  C_10
REMARK    4  A    between atoms: N_12  and  C_13
REMARK    5  A    between atoms: C_13  and  C_14
REMARK    6  A    between atoms: C_14  and  C_15
REMARK    7  A    between atoms: C_18  and  C_19
REMARK                            x       y       z     vdW  Elec       q    Type
REMARK                         _______ _______ _______ _____ _____    ______ ____
ROOT
ATOM      1  C   UNL     1       4.081   6.132  18.072  0.00  0.00    +0.000 C 
ATOM      2  O   UNL     1       3.826   6.932  17.174  0.00  0.00    +0.000 OA
ATOM      3  N   UNL     1       5.369   5.803  18.414  0.00  0.00    +0.000 N 
ATOM      4  H   UNL     1       5.509   5.212  19.227  0.00  0.00    +0.000 HD
ENDROOT
BRANCH   1  11
ATOM      5  C   UNL     1       2.183   6.106  19.823  0.00  0.00    +0.000 A 
ATOM      6  C   UNL     1       1.186   5.374  20.484  0.00  0.00    +0.000 A 
ATOM      7  C   UNL     1       0.968   4.027  20.178  0.00  0.00    +0.000 A 
ATOM      8  C   UNL     1       1.742   3.406  19.204  0.00  0.00    +0.000 A 
ATOM      9 CL   UNL     1       1.464   1.752  18.825  0.00  0.00    +0.000 Cl
ATOM     10  C   UNL     1       2.732   4.118  18.535  0.00  0.00    +0.000 A 
ATOM     11  C   UNL     1       2.966   5.473  18.833  0.00  0.00    +0.000 A 
BRANCH   5  13
ATOM     12  C   UNL     1       1.343   8.159  20.703  0.00  0.00    +0.000 C 
ATOM     13  O   UNL     1       2.397   7.440  20.068  0.00  0.00    +0.000 OA
ENDBRANCH   5  13
ENDBRANCH   1  11
BRANCH   3  14
ATOM     14  C   UNL     1       6.529   6.377  17.760  0.00  0.00    +0.000 C 
BRANCH  14  15
ATOM     15  C   UNL     1       7.421   5.299  17.149  0.00  0.00    +0.000 C 
BRANCH  15  16
ATOM     16  C   UNL     1       6.881   4.789  15.836  0.00  0.00    +0.000 A 
ATOM     17  C   UNL     1       7.514   5.132  14.635  0.00  0.00    +0.000 A 
ATOM     18  C   UNL     1       7.032   4.648  13.417  0.00  0.00    +0.000 A 
ATOM     19  C   UNL     1       5.903   3.818  13.376  0.00  0.00    +0.000 A 
ATOM     20  C   UNL     1       5.255   3.498  14.579  0.00  0.00    +0.000 A 
ATOM     21  C   UNL     1       5.737   3.981  15.798  0.00  0.00    +0.000 A 
BRANCH  19  22
ATOM     22  C   UNL     1       5.389   3.262  12.071  0.00  0.00    +0.000 C 
ATOM     23  F   UNL     1       4.032   3.156  12.017  0.00  0.00    +0.000 F 
ATOM     24  F   UNL     1       5.744   4.032  11.003  0.00  0.00    +0.000 F 
ATOM     25  F   UNL     1       5.871   2.016  11.807  0.00  0.00    +0.000 F 
ENDBRANCH  19  22
ENDBRANCH  15  16
ENDBRANCH  14  15
ENDBRANCH   3  14
TORSDOF 6
ENDMDL
