MODEL 1
REMARK VINA RESULT:      -6.6      0.000      0.000
REMARK  Name = 
REMARK  7 active torsions:
REMARK  status: ('A' for Active; 'I' for Inactive)
REMARK    1  A    between atoms: C_2  and  C_3
REMARK    2  A    between atoms: N_6  and  C_7
REMARK    3  A    between atoms: C_10  and  S_11
REMARK    4  A    between atoms: S_11  and  N_12
REMARK    5  A    between atoms: C_17  and  N_18
REMARK    6  A    between atoms: C_19  and  C_21
REMARK    7  A    between atoms: C_21  and  N_22
REMARK                            x       y       z     vdW  Elec       q    Type
REMARK                         _______ _______ _______ _____ _____    ______ ____
ROOT
ATOM      1  C   UNL     1       2.758   3.522  19.558  0.00  0.00    +0.000 A 
ATOM      2  C   UNL     1       2.111   3.781  20.776  0.00  0.00    +0.000 A 
ATOM      3  N   UNL     1       1.904   5.080  20.983  0.00  0.00    +0.000 NA
ATOM      4  N   UNL     1       2.338   5.681  19.838  0.00  0.00    +0.000 N 
ATOM      5  C   UNL     1       2.970   4.763  18.985  0.00  0.00    +0.000 A 
ENDROOT
BRANCH   4   6
ATOM      6  C   UNL     1       2.013   7.050  19.610  0.00  0.00    +0.000 A 
ATOM      7  C   UNL     1       1.434   7.791  20.651  0.00  0.00    +0.000 A 
ATOM      8  C   UNL     1       1.156   9.146  20.471  0.00  0.00    +0.000 A 
ATOM      9  C   UNL     1       1.434   9.750  19.242  0.00  0.00    +0.000 A 
ATOM     10  C   UNL     1       1.956   9.007  18.180  0.00  0.00    +0.000 A 
ATOM     11  C   UNL     1       2.253   7.655  18.366  0.00  0.00    +0.000 A 
BRANCH   9  12
ATOM     12  S   UNL     1       1.076  11.466  19.016  0.00  0.00    +0.000 S 
ATOM     13  O   UNL     1      -0.232  11.603  18.419  0.00  0.00    +0.000 OA
ATOM     14  O   UNL     1       1.471  12.200  20.195  0.00  0.00    +0.000 OA
BRANCH  12  15
ATOM     15  N   UNL     1       2.175  11.883  17.818  0.00  0.00    +0.000 NA
ATOM     16  H   UNL     1       1.772  11.708  16.898  0.00  0.00    +0.000 HD
ATOM     17  H   UNL     1       2.495  12.842  17.956  0.00  0.00    +0.000 HD
ENDBRANCH  12  15
ENDBRANCH   9  12
ENDBRANCH   4   6
BRANCH   5  18
ATOM     18  N   UNL     1       3.714   5.092  17.847  0.00  0.00    +0.000 N 
ATOM     19  C   UNL     1       5.080   5.322  18.006  0.00  0.00    +0.000 C 
ATOM     20  O   UNL     1       5.687   5.232  19.073  0.00  0.00    +0.000 OA
ATOM     21  H   UNL     1       3.464   4.671  16.955  0.00  0.00    +0.000 HD
BRANCH  19  22
ATOM     22  C   UNL     1       5.811   5.662  16.704  0.00  0.00    +0.000 C 
BRANCH  22  23
ATOM     23  N   UNL     1       6.692   4.555  16.274  0.00  0.00    +0.000 NA
ATOM     24  C   UNL     1       7.757   5.007  15.339  0.00  0.00    +0.000 C 
ATOM     25  C   UNL     1       7.248   5.407  13.943  0.00  0.00    +0.000 C 
ATOM     26  O   UNL     1       6.536   4.326  13.330  0.00  0.00    +0.000 OA
ATOM     27  C   UNL     1       5.442   3.901  14.150  0.00  0.00    +0.000 C 
ATOM     28  C   UNL     1       5.909   3.510  15.567  0.00  0.00    +0.000 C 
ENDBRANCH  22  23
ENDBRANCH  19  22
ENDBRANCH   5  18
BRANCH   1  30
ATOM     29  N   UNL     1       3.615   1.222  18.757  0.00  0.00    +0.000 NA
ATOM     30  C   UNL     1       3.228   2.256  19.108  0.00  0.00    +0.000 C 
ENDBRANCH   1  30
TORSDOF 7
ENDMDL
MODEL 2
REMARK VINA RESULT:      -6.5      1.263      1.365
REMARK  Name = 
REMARK  7 active torsions:
REMARK  status: ('A' for Active; 'I' for Inactive)
REMARK    1  A    between atoms: C_2  and  C_3
REMARK    2  A    between atoms: N_6  and  C_7
REMARK    3  A    between atoms: C_10  and  S_11
REMARK    4  A    between atoms: S_11  and  N_12
REMARK    5  A    between atoms: C_17  and  N_18
REMARK    6  A    between atoms: C_19  and  C_21
REMARK    7  A    between atoms: C_21  and  N_22
REMARK                            x       y       z     vdW  Elec       q    Type
REMARK                         _______ _______ _______ _____ _____    ______ ____
ROOT
ATOM      1  C   UNL     1       3.221   3.177  20.060  0.00  0.00    +0.000 A 
ATOM      2  C   UNL     1       2.526   3.453  21.247  0.00  0.00    +0.000 A 
ATOM      3  N   UNL     1       2.208   4.741  21.367  0.00  0.00    +0.000 NA
ATOM      4  N   UNL     1       2.617   5.306  20.195  0.00  0.00    +0.000 N 
ATOM      5  C   UNL     1       3.343   4.394  19.413  0.00  0.00    +0.000 A 
ENDROOT
BRANCH   4   6
ATOM      6  C   UNL     1       2.185   6.625  19.875  0.00  0.00    +0.000 A 
ATOM      7  C   UNL     1       1.518   7.376  20.855  0.00  0.00    +0.000 A 
ATOM      8  C   UNL     1       1.132   8.689  20.586  0.00  0.00    +0.000 A 
ATOM      9  C   UNL     1       1.392   9.240  19.328  0.00  0.00    +0.000 A 
ATOM     10  C   UNL     1       2.004   8.481  18.326  0.00  0.00    +0.000 A 
ATOM     11  C   UNL     1       2.408   7.174  18.602  0.00  0.00    +0.000 A 
BRANCH   9  12
ATOM     12  S   UNL     1       0.898  10.902  18.988  0.00  0.00    +0.000 S 
ATOM     13  O   UNL     1      -0.377  10.889  18.310  0.00  0.00    +0.000 OA
ATOM     14  O   UNL     1       1.152  11.726  20.146  0.00  0.00    +0.000 OA
BRANCH  12  15
ATOM     15  N   UNL     1       2.029  11.359  17.835  0.00  0.00    +0.000 NA
ATOM     16  H   UNL     1       1.747  11.018  16.916  0.00  0.00    +0.000 HD
ATOM     17  H   UNL     1       2.181  12.367  17.875  0.00  0.00    +0.000 HD
ENDBRANCH  12  15
ENDBRANCH   9  12
ENDBRANCH   4   6
BRANCH   5  18
ATOM     18  N   UNL     1       4.084   4.714  18.271  0.00  0.00    +0.000 N 
ATOM     19  C   UNL     1       3.680   4.159  17.056  0.00  0.00    +0.000 C 
ATOM     20  O   UNL     1       2.700   3.429  16.909  0.00  0.00    +0.000 OA
ATOM     21  H   UNL     1       4.491   5.642  18.190  0.00  0.00    +0.000 HD
BRANCH  19  22
ATOM     22  C   UNL     1       4.543   4.576  15.862  0.00  0.00    +0.000 C 
BRANCH  22  23
ATOM     23  N   UNL     1       5.800   3.800  15.807  0.00  0.00    +0.000 NA
ATOM     24  C   UNL     1       6.897   4.438  16.583  0.00  0.00    +0.000 C 
ATOM     25  C   UNL     1       7.440   5.737  15.962  0.00  0.00    +0.000 C 
ATOM     26  O   UNL     1       7.904   5.509  14.626  0.00  0.00    +0.000 OA
ATOM     27  C   UNL     1       6.863   4.970  13.806  0.00  0.00    +0.000 C 
ATOM     28  C   UNL     1       6.276   3.676  14.406  0.00  0.00    +0.000 C 
ENDBRANCH  22  23
ENDBRANCH  19  22
ENDBRANCH   5  18
BRANCH   1  30
ATOM     29  N   UNL     1       4.273   0.914  19.392  0.00  0.00    +0.000 NA
ATOM     30  C   UNL     1       3.806   1.930  19.699  0.00  0.00    +0.000 C 
ENDBRANCH   1  30
TORSDOF 7
ENDMDL
MODEL 3
REMARK VINA RESULT:      -6.4      1.477      1.836
REMARK  Name = 
REMARK  7 active torsions:
REMARK  status: ('A' for Active; 'I' for Inactive)
REMARK    1  A    between atoms: C_2  and  C_3
REMARK    2  A    between atoms: N_6  and  C_7
REMARK    3  A    between atoms: C_10  and  S_11
REMARK    4  A    between atoms: S_11  and  N_12
REMARK    5  A    between atoms: C_17  and  N_18
REMARK    6  A    between atoms: C_19  and  C_21
REMARK    7  A    between atoms: C_21  and  N_22
REMARK                            x       y       z     vdW  Elec       q    Type
REMARK                         _______ _______ _______ _____ _____    ______ ____
ROOT
ATOM      1  C   UNL     1       3.119   3.058  19.981  0.00  0.00    +0.000 A 
ATOM      2  C   UNL     1       2.434   3.321  21.177  0.00  0.00    +0.000 A 
ATOM      3  N   UNL     1       2.165   4.615  21.341  0.00  0.00    +0.000 NA
ATOM      4  N   UNL     1       2.597   5.203  20.189  0.00  0.00    +0.000 N 
ATOM      5  C   UNL     1       3.289   4.292  19.377  0.00  0.00    +0.000 A 
ENDROOT
BRANCH   4   6
ATOM      6  C   UNL     1       2.216   6.548  19.915  0.00  0.00    +0.000 A 
ATOM      7  C   UNL     1       2.536   7.102  18.666  0.00  0.00    +0.000 A 
ATOM      8  C   UNL     1       2.127   8.398  18.353  0.00  0.00    +0.000 A 
ATOM      9  C   UNL     1       1.424   9.148  19.299  0.00  0.00    +0.000 A 
ATOM     10  C   UNL     1       1.152   8.627  20.568  0.00  0.00    +0.000 A 
ATOM     11  C   UNL     1       1.543   7.322  20.874  0.00  0.00    +0.000 A 
BRANCH   9  12
ATOM     12  S   UNL     1       0.913  10.792  18.901  0.00  0.00    +0.000 S 
ATOM     13  O   UNL     1       0.250  11.373  20.045  0.00  0.00    +0.000 OA
ATOM     14  O   UNL     1       1.974  11.468  18.193  0.00  0.00    +0.000 OA
BRANCH  12  15
ATOM     15  N   UNL     1      -0.292  10.503  17.768  0.00  0.00    +0.000 NA
ATOM     16  H   UNL     1      -0.667  11.388  17.425  0.00  0.00    +0.000 HD
ATOM     17  H   UNL     1       0.058   9.888  17.035  0.00  0.00    +0.000 HD
ENDBRANCH  12  15
ENDBRANCH   9  12
ENDBRANCH   4   6
BRANCH   5  18
ATOM     18  N   UNL     1       4.043   4.622  18.246  0.00  0.00    +0.000 N 
ATOM     19  C   UNL     1       3.607   4.144  17.010  0.00  0.00    +0.000 C 
ATOM     20  O   UNL     1       2.590   3.474  16.836  0.00  0.00    +0.000 OA
ATOM     21  H   UNL     1       4.499   5.530  18.204  0.00  0.00    +0.000 HD
BRANCH  19  22
ATOM     22  C   UNL     1       4.488   4.567  15.832  0.00  0.00    +0.000 C 
BRANCH  22  23
ATOM     23  N   UNL     1       5.753   3.803  15.801  0.00  0.00    +0.000 NA
ATOM     24  C   UNL     1       6.822   4.440  16.617  0.00  0.00    +0.000 C 
ATOM     25  C   UNL     1       7.371   5.752  16.029  0.00  0.00    +0.000 C 
ATOM     26  O   UNL     1       7.874   5.546  14.704  0.00  0.00    +0.000 OA
ATOM     27  C   UNL     1       6.861   5.009  13.847  0.00  0.00    +0.000 C 
ATOM     28  C   UNL     1       6.270   3.702  14.412  0.00  0.00    +0.000 C 
ENDBRANCH  22  23
ENDBRANCH  19  22
ENDBRANCH   5  18
BRANCH   1  30
ATOM     29  N   UNL     1       4.105   0.783  19.260  0.00  0.00    +0.000 NA
ATOM     30  C   UNL     1       3.657   1.803  19.577  0.00  0.00    +0.000 C 
ENDBRANCH   1  30
TORSDOF 7
ENDMDL
MODEL 4
REMARK VINA RESULT:      -6.4      0.747      1.250
REMARK  Name = 
REMARK  7 active torsions:
REMARK  status: ('A' for Active; 'I' for Inactive)
REMARK    1  A    between atoms: C_2  and  C_3
REMARK    2  A    between atoms: N_6  and  C_7
REMARK    3  A    between atoms: C_10  and  S_11
REMARK    4  A    between atoms: S_11  and  N_12
REMARK    5  A    between atoms: C_17  and  N_18
REMARK    6  A    between atoms: C_19  and  C_21
REMARK    7  A    between atoms: C_21  and  N_22
REMARK                            x       y       z     vdW  Elec       q    Type
REMARK                         _______ _______ _______ _____ _____    ______ ____
ROOT
ATOM      1  C   UNL     1       2.558   3.701  19.398  0.00  0.00    +0.000 A 
ATOM      2  C   UNL     1       1.780   3.907  20.547  0.00  0.00    +0.000 A 
ATOM      3  N   UNL     1       1.598   5.198  20.820  0.00  0.00    +0.000 NA
ATOM      4  N   UNL     1       2.188   5.854  19.780  0.00  0.00    +0.000 N 
ATOM      5  C   UNL     1       2.883   4.967  18.943  0.00  0.00    +0.000 A 
ENDROOT
BRANCH   4   6
ATOM      6  C   UNL     1       1.943   7.248  19.613  0.00  0.00    +0.000 A 
ATOM      7  C   UNL     1       2.242   7.846  18.380  0.00  0.00    +0.000 A 
ATOM      8  C   UNL     1       1.962   9.196  18.174  0.00  0.00    +0.000 A 
ATOM      9  C   UNL     1       1.409   9.952  19.210  0.00  0.00    +0.000 A 
ATOM     10  C   UNL     1       1.162   9.380  20.462  0.00  0.00    +0.000 A 
ATOM     11  C   UNL     1       1.423   8.023  20.661  0.00  0.00    +0.000 A 
BRANCH   9  12
ATOM     12  S   UNL     1       1.060  11.665  18.947  0.00  0.00    +0.000 S 
ATOM     13  O   UNL     1       0.611  12.254  20.187  0.00  0.00    +0.000 OA
ATOM     14  O   UNL     1       2.107  12.251  18.143  0.00  0.00    +0.000 OA
BRANCH  12  15
ATOM     15  N   UNL     1      -0.294  11.583  17.959  0.00  0.00    +0.000 NA
ATOM     16  H   UNL     1      -0.234  12.289  17.225  0.00  0.00    +0.000 HD
ATOM     17  H   UNL     1      -0.416  10.632  17.611  0.00  0.00    +0.000 HD
ENDBRANCH  12  15
ENDBRANCH   9  12
ENDBRANCH   4   6
BRANCH   5  18
ATOM     18  N   UNL     1       3.770   5.336  17.926  0.00  0.00    +0.000 N 
ATOM     19  C   UNL     1       5.117   5.482  18.258  0.00  0.00    +0.000 C 
ATOM     20  O   UNL     1       5.589   5.283  19.376  0.00  0.00    +0.000 OA
ATOM     21  H   UNL     1       3.608   4.995  16.982  0.00  0.00    +0.000 HD
BRANCH  19  22
ATOM     22  C   UNL     1       6.010   5.876  17.079  0.00  0.00    +0.000 C 
BRANCH  22  23
ATOM     23  N   UNL     1       6.823   4.733  16.611  0.00  0.00    +0.000 NA
ATOM     24  C   UNL     1       7.656   5.073  15.426  0.00  0.00    +0.000 C 
ATOM     25  C   UNL     1       6.855   5.289  14.130  0.00  0.00    +0.000 C 
ATOM     26  O   UNL     1       6.072   4.132  13.815  0.00  0.00    +0.000 OA
ATOM     27  C   UNL     1       5.187   3.803  14.890  0.00  0.00    +0.000 C 
ATOM     28  C   UNL     1       5.950   3.598  16.215  0.00  0.00    +0.000 C 
ENDBRANCH  22  23
ENDBRANCH  19  22
ENDBRANCH   5  18
BRANCH   1  30
ATOM     29  N   UNL     1       3.417   1.433  18.511  0.00  0.00    +0.000 NA
ATOM     30  C   UNL     1       3.033   2.448  18.917  0.00  0.00    +0.000 C 
ENDBRANCH   1  30
TORSDOF 7
ENDMDL
MODEL 5
REMARK VINA RESULT:      -6.3      0.962      1.451
REMARK  Name = 
REMARK  7 active torsions:
REMARK  status: ('A' for Active; 'I' for Inactive)
REMARK    1  A    between atoms: C_2  and  C_3
REMARK    2  A    between atoms: N_6  and  C_7
REMARK    3  A    between atoms: C_10  and  S_11
REMARK    4  A    between atoms: S_11  and  N_12
REMARK    5  A    between atoms: C_17  and  N_18
REMARK    6  A    between atoms: C_19  and  C_21
REMARK    7  A    between atoms: C_21  and  N_22
REMARK                            x       y       z     vdW  Elec       q    Type
REMARK                         _______ _______ _______ _____ _____    ______ ____
ROOT
ATOM      1  C   UNL     1       2.772   3.692  19.393  0.00  0.00    +0.000 A 
ATOM      2  C   UNL     1       2.089   3.785  20.614  0.00  0.00    +0.000 A 
ATOM      3  N   UNL     1       1.839   5.045  20.968  0.00  0.00    +0.000 NA
ATOM      4  N   UNL     1       2.281   5.790  19.915  0.00  0.00    +0.000 N 
ATOM      5  C   UNL     1       2.961   4.998  18.976  0.00  0.00    +0.000 A 
ENDROOT
BRANCH   4   6
ATOM      6  C   UNL     1       1.921   7.167  19.842  0.00  0.00    +0.000 A 
ATOM      7  C   UNL     1       2.099   7.851  18.630  0.00  0.00    +0.000 A 
ATOM      8  C   UNL     1       1.705   9.184  18.517  0.00  0.00    +0.000 A 
ATOM      9  C   UNL     1       1.158   9.838  19.625  0.00  0.00    +0.000 A 
ATOM     10  C   UNL     1       1.031   9.183  20.853  0.00  0.00    +0.000 A 
ATOM     11  C   UNL     1       1.407   7.842  20.960  0.00  0.00    +0.000 A 
BRANCH   9  12
ATOM     12  S   UNL     1       0.664  11.528  19.480  0.00  0.00    +0.000 S 
ATOM     13  O   UNL     1       1.530  12.196  18.536  0.00  0.00    +0.000 OA
ATOM     14  O   UNL     1      -0.776  11.604  19.399  0.00  0.00    +0.000 OA
BRANCH  12  15
ATOM     15  N   UNL     1       1.078  12.130  20.991  0.00  0.00    +0.000 NA
ATOM     16  H   UNL     1       0.715  13.077  21.101  0.00  0.00    +0.000 HD
ATOM     17  H   UNL     1       0.777  11.482  21.719  0.00  0.00    +0.000 HD
ENDBRANCH  12  15
ENDBRANCH   9  12
ENDBRANCH   4   6
BRANCH   5  18
ATOM     18  N   UNL     1       3.721   5.480  17.906  0.00  0.00    +0.000 N 
ATOM     19  C   UNL     1       5.055   5.807  18.150  0.00  0.00    +0.000 C 
ATOM     20  O   UNL     1       5.622   5.678  19.235  0.00  0.00    +0.000 OA
ATOM     21  H   UNL     1       3.546   5.117  16.972  0.00  0.00    +0.000 HD
BRANCH  19  22
ATOM     22  C   UNL     1       5.809   6.313  16.918  0.00  0.00    +0.000 C 
BRANCH  22  23
ATOM     23  N   UNL     1       6.984   5.468  16.618  0.00  0.00    +0.000 NA
ATOM     24  C   UNL     1       7.442   5.609  15.209  0.00  0.00    +0.000 C 
ATOM     25  C   UNL     1       6.488   4.996  14.169  0.00  0.00    +0.000 C 
ATOM     26  O   UNL     1       6.267   3.607  14.436  0.00  0.00    +0.000 OA
ATOM     27  C   UNL     1       5.745   3.414  15.754  0.00  0.00    +0.000 C 
ATOM     28  C   UNL     1       6.663   4.033  16.827  0.00  0.00    +0.000 C 
ENDBRANCH  22  23
ENDBRANCH  19  22
ENDBRANCH   5  18
BRANCH   1  30
ATOM     29  N   UNL     1       3.727   1.541  18.328  0.00  0.00    +0.000 NA
ATOM     30  C   UNL     1       3.291   2.502  18.808  0.00  0.00    +0.000 C 
ENDBRANCH   1  30
TORSDOF 7
ENDMDL
MODEL 6
REMARK VINA RESULT:      -6.3      1.106      1.125
REMARK  Name = 
REMARK  7 active torsions:
REMARK  status: ('A' for Active; 'I' for Inactive)
REMARK    1  A    between atoms: C_2  and  C_3
REMARK    2  A    between atoms: N_6  and  C_7
REMARK    3  A    between atoms: C_10  and  S_11
REMARK    4  A    between atoms: S_11  and  N_12
REMARK    5  A    between atoms: C_17  and  N_18
REMARK    6  A    between atoms: C_19  and  C_21
REMARK    7  A    between atoms: C_21  and  N_22
REMARK                            x       y       z     vdW  Elec       q    Type
REMARK                         _______ _______ _______ _____ _____    ______ ____
ROOT
ATOM      1  C   UNL     1       3.217   3.607  20.164  0.00  0.00    +0.000 A 
ATOM      2  C   UNL     1       2.239   3.769  21.157  0.00  0.00    +0.000 A 
ATOM      3  N   UNL     1       1.821   5.029  21.266  0.00  0.00    +0.000 NA
ATOM      4  N   UNL     1       2.467   5.691  20.264  0.00  0.00    +0.000 N 
ATOM      5  C   UNL     1       3.417   4.870  19.636  0.00  0.00    +0.000 A 
ENDROOT
BRANCH   4   6
ATOM      6  C   UNL     1       2.045   7.008  19.921  0.00  0.00    +0.000 A 
ATOM      7  C   UNL     1       1.397   7.786  20.893  0.00  0.00    +0.000 A 
ATOM      8  C   UNL     1       1.022   9.097  20.600  0.00  0.00    +0.000 A 
ATOM      9  C   UNL     1       1.270   9.618  19.327  0.00  0.00    +0.000 A 
ATOM     10  C   UNL     1       1.862   8.832  18.334  0.00  0.00    +0.000 A 
ATOM     11  C   UNL     1       2.256   7.526  18.634  0.00  0.00    +0.000 A 
BRANCH   9  12
ATOM     12  S   UNL     1       0.789  11.278  18.958  0.00  0.00    +0.000 S 
ATOM     13  O   UNL     1       0.128  11.847  20.109  0.00  0.00    +0.000 OA
ATOM     14  O   UNL     1       1.866  11.950  18.270  0.00  0.00    +0.000 OA
BRANCH  12  15
ATOM     15  N   UNL     1      -0.413  11.031  17.812  0.00  0.00    +0.000 NA
ATOM     16  H   UNL     1      -0.162  10.250  17.206  0.00  0.00    +0.000 HD
ATOM     17  H   UNL     1      -1.317  10.926  18.271  0.00  0.00    +0.000 HD
ENDBRANCH  12  15
ENDBRANCH   9  12
ENDBRANCH   4   6
BRANCH   5  18
ATOM     18  N   UNL     1       4.392   5.302  18.731  0.00  0.00    +0.000 N 
ATOM     19  C   UNL     1       4.210   4.996  17.383  0.00  0.00    +0.000 C 
ATOM     20  O   UNL     1       3.239   4.395  16.924  0.00  0.00    +0.000 OA
ATOM     21  H   UNL     1       4.862   6.189  18.897  0.00  0.00    +0.000 HD
BRANCH  19  22
ATOM     22  C   UNL     1       5.321   5.520  16.469  0.00  0.00    +0.000 C 
BRANCH  22  23
ATOM     23  N   UNL     1       6.347   4.486  16.217  0.00  0.00    +0.000 NA
ATOM     24  C   UNL     1       7.555   5.035  15.543  0.00  0.00    +0.000 C 
ATOM     25  C   UNL     1       7.329   5.450  14.079  0.00  0.00    +0.000 C 
ATOM     26  O   UNL     1       6.841   4.347  13.305  0.00  0.00    +0.000 OA
ATOM     27  C   UNL     1       5.629   3.827  13.861  0.00  0.00    +0.000 C 
ATOM     28  C   UNL     1       5.808   3.418  15.337  0.00  0.00    +0.000 C 
ENDBRANCH  22  23
ENDBRANCH  19  22
ENDBRANCH   5  18
BRANCH   1  30
ATOM     29  N   UNL     1       4.532   1.441  19.662  0.00  0.00    +0.000 NA
ATOM     30  C   UNL     1       3.949   2.417  19.891  0.00  0.00    +0.000 C 
ENDBRANCH   1  30
TORSDOF 7
ENDMDL
MODEL 7
REMARK VINA RESULT:      -6.2      2.175      4.864
REMARK  Name = 
REMARK  7 active torsions:
REMARK  status: ('A' for Active; 'I' for Inactive)
REMARK    1  A    between atoms: C_2  and  C_3
REMARK    2  A    between atoms: N_6  and  C_7
REMARK    3  A    between atoms: C_10  and  S_11
REMARK    4  A    between atoms: S_11  and  N_12
REMARK    5  A    between atoms: C_17  and  N_18
REMARK    6  A    between atoms: C_19  and  C_21
REMARK    7  A    between atoms: C_21  and  N_22
REMARK                            x       y       z     vdW  Elec       q    Type
REMARK                         _______ _______ _______ _____ _____    ______ ____
ROOT
ATOM      1  C   UNL     1       5.774   5.815  16.622  0.00  0.00    +0.000 A 
ATOM      2  C   UNL     1       5.305   6.763  15.700  0.00  0.00    +0.000 A 
ATOM      3  N   UNL     1       4.202   7.383  16.117  0.00  0.00    +0.000 NA
ATOM      4  N   UNL     1       3.995   6.901  17.376  0.00  0.00    +0.000 N 
ATOM      5  C   UNL     1       4.880   5.854  17.677  0.00  0.00    +0.000 A 
ENDROOT
BRANCH   4   6
ATOM      6  C   UNL     1       3.049   7.554  18.219  0.00  0.00    +0.000 A 
ATOM      7  C   UNL     1       2.420   8.719  17.755  0.00  0.00    +0.000 A 
ATOM      8  C   UNL     1       1.451   9.347  18.538  0.00  0.00    +0.000 A 
ATOM      9  C   UNL     1       1.133   8.824  19.794  0.00  0.00    +0.000 A 
ATOM     10  C   UNL     1       1.797   7.697  20.290  0.00  0.00    +0.000 A 
ATOM     11  C   UNL     1       2.752   7.057  19.497  0.00  0.00    +0.000 A 
BRANCH   9  12
ATOM     12  S   UNL     1      -0.091   9.625  20.786  0.00  0.00    +0.000 S 
ATOM     13  O   UNL     1      -0.979  10.374  19.929  0.00  0.00    +0.000 OA
ATOM     14  O   UNL     1      -0.572   8.707  21.791  0.00  0.00    +0.000 OA
BRANCH  12  15
ATOM     15  N   UNL     1       0.832  10.765  21.602  0.00  0.00    +0.000 NA
ATOM     16  H   UNL     1       1.551  11.139  20.983  0.00  0.00    +0.000 HD
ATOM     17  H   UNL     1       0.227  11.475  22.013  0.00  0.00    +0.000 HD
ENDBRANCH  12  15
ENDBRANCH   9  12
ENDBRANCH   4   6
BRANCH   5  18
ATOM     18  N   UNL     1       4.787   5.006  18.785  0.00  0.00    +0.000 N 
ATOM     19  C   UNL     1       4.396   3.685  18.563  0.00  0.00    +0.000 C 
ATOM     20  O   UNL     1       4.151   3.202  17.458  0.00  0.00    +0.000 OA
ATOM     21  H   UNL     1       5.444   5.122  19.552  0.00  0.00    +0.000 HD
BRANCH  19  22
ATOM     22  C   UNL     1       4.335   2.831  19.832  0.00  0.00    +0.000 C 
BRANCH  22  23
ATOM     23  N   UNL     1       3.058   2.093  19.926  0.00  0.00    +0.000 NA
ATOM     24  C   UNL     1       2.022   2.628  19.002  0.00  0.00    +0.000 C 
ATOM     25  C   UNL     1       1.479   4.013  19.392  0.00  0.00    +0.000 C 
ATOM     26  O   UNL     1       0.935   3.993  20.717  0.00  0.00    +0.000 OA
ATOM     27  C   UNL     1       1.915   3.564  21.668  0.00  0.00    +0.000 C 
ATOM     28  C   UNL     1       2.501   2.186  21.300  0.00  0.00    +0.000 C 
ENDBRANCH  22  23
ENDBRANCH  19  22
ENDBRANCH   5  18
BRANCH   1  30
ATOM     29  N   UNL     1       7.736   4.175  16.261  0.00  0.00    +0.000 NA
ATOM     30  C   UNL     1       6.851   4.905  16.418  0.00  0.00    +0.000 C 
ENDBRANCH   1  30
TORSDOF 7
ENDMDL
MODEL 8
REMARK VINA RESULT:      -6.2      4.175      8.839
REMARK  Name = 
REMARK  7 active torsions:
REMARK  status: ('A' for Active; 'I' for Inactive)
REMARK    1  A    between atoms: C_2  and  C_3
REMARK    2  A    between atoms: N_6  and  C_7
REMARK    3  A    between atoms: C_10  and  S_11
REMARK    4  A    between atoms: S_11  and  N_12
REMARK    5  A    between atoms: C_17  and  N_18
REMARK    6  A    between atoms: C_19  and  C_21
REMARK    7  A    between atoms: C_21  and  N_22
REMARK                            x       y       z     vdW  Elec       q    Type
REMARK                         _______ _______ _______ _____ _____    ______ ____
ROOT
ATOM      1  C   UNL     1      -0.475  12.003  22.209  0.00  0.00    +0.000 A 
ATOM      2  C   UNL     1      -0.961  10.852  22.848  0.00  0.00    +0.000 A 
ATOM      3  N   UNL     1      -0.639   9.732  22.204  0.00  0.00    +0.000 NA
ATOM      4  N   UNL     1       0.154  10.145  21.174  0.00  0.00    +0.000 N 
ATOM      5  C   UNL     1       0.186  11.545  21.083  0.00  0.00    +0.000 A 
ENDROOT
BRANCH   4   6
ATOM      6  C   UNL     1       0.897   9.175  20.441  0.00  0.00    +0.000 A 
ATOM      7  C   UNL     1       1.215   9.437  19.100  0.00  0.00    +0.000 A 
ATOM      8  C   UNL     1       1.987   8.528  18.376  0.00  0.00    +0.000 A 
ATOM      9  C   UNL     1       2.417   7.348  18.987  0.00  0.00    +0.000 A 
ATOM     10  C   UNL     1       2.056   7.050  20.305  0.00  0.00    +0.000 A 
ATOM     11  C   UNL     1       1.301   7.969  21.035  0.00  0.00    +0.000 A 
BRANCH   9  12
ATOM     12  S   UNL     1       3.391   6.196  18.066  0.00  0.00    +0.000 S 
ATOM     13  O   UNL     1       2.555   5.095  17.650  0.00  0.00    +0.000 OA
ATOM     14  O   UNL     1       4.243   6.914  17.147  0.00  0.00    +0.000 OA
BRANCH  12  15
ATOM     15  N   UNL     1       4.402   5.584  19.257  0.00  0.00    +0.000 NA
ATOM     16  H   UNL     1       5.215   6.190  19.369  0.00  0.00    +0.000 HD
ATOM     17  H   UNL     1       3.876   5.430  20.117  0.00  0.00    +0.000 HD
ENDBRANCH  12  15
ENDBRANCH   9  12
ENDBRANCH   4   6
BRANCH   5  18
ATOM     18  N   UNL     1       0.718  12.277  20.016  0.00  0.00    +0.000 N 
ATOM     19  C   UNL     1       1.900  12.985  20.237  0.00  0.00    +0.000 C 
ATOM     20  O   UNL     1       2.526  12.992  21.296  0.00  0.00    +0.000 OA
ATOM     21  H   UNL     1       0.620  11.915  19.071  0.00  0.00    +0.000 HD
BRANCH  19  22
ATOM     22  C   UNL     1       2.411  13.744  19.010  0.00  0.00    +0.000 C 
BRANCH  22  23
ATOM     23  N   UNL     1       3.403  14.774  19.385  0.00  0.00    +0.000 NA
ATOM     24  C   UNL     1       2.766  16.052  19.803  0.00  0.00    +0.000 C 
ATOM     25  C   UNL     1       2.098  16.831  18.657  0.00  0.00    +0.000 C 
ATOM     26  O   UNL     1       3.039  17.114  17.615  0.00  0.00    +0.000 OA
ATOM     27  C   UNL     1       3.627  15.910  17.113  0.00  0.00    +0.000 C 
ATOM     28  C   UNL     1       4.291  15.088  18.236  0.00  0.00    +0.000 C 
ENDBRANCH  22  23
ENDBRANCH  19  22
ENDBRANCH   5  18
BRANCH   1  30
ATOM     29  N   UNL     1      -0.970  14.446  22.882  0.00  0.00    +0.000 NA
ATOM     30  C   UNL     1      -0.755  13.350  22.575  0.00  0.00    +0.000 C 
ENDBRANCH   1  30
TORSDOF 7
ENDMDL
MODEL 9
REMARK VINA RESULT:      -6.2      3.781      8.470
REMARK  Name = 
REMARK  7 active torsions:
REMARK  status: ('A' for Active; 'I' for Inactive)
REMARK    1  A    between atoms: C_2  and  C_3
REMARK    2  A    between atoms: N_6  and  C_7
REMARK    3  A    between atoms: C_10  and  S_11
REMARK    4  A    between atoms: S_11  and  N_12
REMARK    5  A    between atoms: C_17  and  N_18
REMARK    6  A    between atoms: C_19  and  C_21
REMARK    7  A    between atoms: C_21  and  N_22
REMARK                            x       y       z     vdW  Elec       q    Type
REMARK                         _______ _______ _______ _____ _____    ______ ____
ROOT
ATOM      1  C   UNL     1      -0.033  10.364  21.845  0.00  0.00    +0.000 A 
ATOM      2  C   UNL     1       0.853   9.857  22.807  0.00  0.00    +0.000 A 
ATOM      3  N   UNL     1       1.425   8.716  22.429  0.00  0.00    +0.000 NA
ATOM      4  N   UNL     1       0.979   8.515  21.156  0.00  0.00    +0.000 N 
ATOM      5  C   UNL     1      -0.005   9.452  20.804  0.00  0.00    +0.000 A 
ENDROOT
BRANCH   4   6
ATOM      6  C   UNL     1       1.609   7.522  20.351  0.00  0.00    +0.000 A 
ATOM      7  C   UNL     1       1.609   6.191  20.794  0.00  0.00    +0.000 A 
ATOM      8  C   UNL     1       2.171   5.192  20.000  0.00  0.00    +0.000 A 
ATOM      9  C   UNL     1       2.756   5.530  18.776  0.00  0.00    +0.000 A 
ATOM     10  C   UNL     1       2.813   6.861  18.353  0.00  0.00    +0.000 A 
ATOM     11  C   UNL     1       2.233   7.858  19.139  0.00  0.00    +0.000 A 
BRANCH   9  12
ATOM     12  S   UNL     1       3.472   4.262  17.775  0.00  0.00    +0.000 S 
ATOM     13  O   UNL     1       4.177   4.871  16.671  0.00  0.00    +0.000 OA
ATOM     14  O   UNL     1       4.075   3.261  18.624  0.00  0.00    +0.000 OA
BRANCH  12  15
ATOM     15  N   UNL     1       2.106   3.547  17.112  0.00  0.00    +0.000 NA
ATOM     16  H   UNL     1       2.265   3.338  16.126  0.00  0.00    +0.000 HD
ATOM     17  H   UNL     1       1.830   2.738  17.668  0.00  0.00    +0.000 HD
ENDBRANCH  12  15
ENDBRANCH   9  12
ENDBRANCH   4   6
BRANCH   5  18
ATOM     18  N   UNL     1      -0.816   9.389  19.666  0.00  0.00    +0.000 N 
ATOM     19  C   UNL     1      -0.486  10.207  18.585  0.00  0.00    +0.000 C 
ATOM     20  O   UNL     1       0.484  10.962  18.548  0.00  0.00    +0.000 OA
ATOM     21  H   UNL     1      -1.230   8.498  19.403  0.00  0.00    +0.000 HD
BRANCH  19  22
ATOM     22  C   UNL     1      -1.423  10.060  17.383  0.00  0.00    +0.000 C 
BRANCH  22  23
ATOM     23  N   UNL     1      -2.023  11.356  17.003  0.00  0.00    +0.000 NA
ATOM     24  C   UNL     1      -2.971  11.867  18.030  0.00  0.00    +0.000 C 
ATOM     25  C   UNL     1      -4.281  11.067  18.136  0.00  0.00    +0.000 C 
ATOM     26  O   UNL     1      -4.958  11.028  16.874  0.00  0.00    +0.000 OA
ATOM     27  C   UNL     1      -4.120  10.466  15.859  0.00  0.00    +0.000 C 
ATOM     28  C   UNL     1      -2.785  11.228  15.735  0.00  0.00    +0.000 C 
ENDBRANCH  22  23
ENDBRANCH  19  22
ENDBRANCH   5  18
BRANCH   1  30
ATOM     29  N   UNL     1      -1.597  12.400  22.125  0.00  0.00    +0.000 NA
ATOM     30  C   UNL     1      -0.888  11.491  21.999  0.00  0.00    +0.000 C 
ENDBRANCH   1  30
TORSDOF 7
ENDMDL
