MODEL 1
REMARK VINA RESULT:      -7.2      0.000      0.000
REMARK  Name = 
REMARK  12 active torsions:
REMARK  status: ('A' for Active; 'I' for Inactive)
REMARK    1  A    between atoms: C_1  and  C_2
REMARK    2  A    between atoms: C_2  and  C_3
REMARK    3  A    between atoms: C_6  and  C_7
REMARK    4  A    between atoms: C_8  and  C_9
REMARK    5  A    between atoms: N_11  and  C_12
REMARK    6  A    between atoms: C_12  and  C_13
REMARK    7  A    between atoms: C_14  and  C_15
REMARK    8  A    between atoms: N_17  and  C_18
REMARK    9  A    between atoms: C_18  and  C_19
REMARK   10  A    between atoms: C_19  and  O_20
REMARK   11  A    between atoms: O_20  and  C_21
REMARK   12  A    between atoms: C_22  and  C_23
REMARK                            x       y       z     vdW  Elec       q    Type
REMARK                         _______ _______ _______ _____ _____    ______ ____
ROOT
ATOM      1  C   UNL     1       4.745   4.352  16.797  0.00  0.00    +0.000 C 
ATOM      2  O   UNL     1       4.591   3.137  16.892  0.00  0.00    +0.000 OA
ATOM      3  N   UNL     1       3.803   5.220  17.311  0.00  0.00    +0.000 N 
ATOM      4  H   UNL     1       3.936   6.217  17.314  0.00  0.00    +0.000 HD
ENDROOT
BRANCH   1  10
ATOM      5  C   UNL     1       6.345   4.684  14.801  0.00  0.00    +0.000 A 
ATOM      6  N   UNL     1       7.451   5.375  14.507  0.00  0.00    +0.000 NA
ATOM      7  O   UNL     1       7.774   6.070  15.646  0.00  0.00    +0.000 OA
ATOM      8  C   UNL     1       6.871   5.801  16.627  0.00  0.00    +0.000 A 
ATOM      9  C   UNL     1       7.132   6.502  17.899  0.00  0.00    +0.000 C 
ATOM     10  C   UNL     1       5.918   4.918  16.151  0.00  0.00    +0.000 A 
BRANCH   5  12
ATOM     11  C   UNL     1       6.599   3.732  12.491  0.00  0.00    +0.000 C 
ATOM     12  C   UNL     1       5.747   3.805  13.750  0.00  0.00    +0.000 C 
ENDBRANCH   5  12
ENDBRANCH   1  10
BRANCH   3  13
ATOM     13  C   UNL     1       2.615   4.688  17.937  0.00  0.00    +0.000 C 
BRANCH  13  14
ATOM     14  C   UNL     1       2.186   5.573  19.051  0.00  0.00    +0.000 A 
ATOM     15  C   UNL     1       1.755   5.212  20.356  0.00  0.00    +0.000 A 
ATOM     16  C   UNL     1       1.595   3.868  20.968  0.00  0.00    +0.000 C 
ATOM     17  N   UNL     1       1.498   6.286  21.105  0.00  0.00    +0.000 NA
ATOM     18  N   UNL     1       1.730   7.340  20.300  0.00  0.00    +0.000 N 
ATOM     19  C   UNL     1       2.186   6.964  19.060  0.00  0.00    +0.000 A 
ATOM     20  C   UNL     1       2.612   7.886  17.976  0.00  0.00    +0.000 C 
BRANCH  18  21
ATOM     21  C   UNL     1       1.643   8.664  20.894  0.00  0.00    +0.000 C 
BRANCH  21  22
ATOM     22  C   UNL     1       0.327   9.402  20.666  0.00  0.00    +0.000 C 
BRANCH  22  23
ATOM     23  O   UNL     1       0.334  10.118  19.432  0.00  0.00    +0.000 OA
ATOM     24  C   UNL     1      -0.989  10.356  18.965  0.00  0.00    +0.000 C 
ENDBRANCH  22  23
ENDBRANCH  21  22
ENDBRANCH  18  21
ENDBRANCH  13  14
ENDBRANCH   3  13
TORSDOF 7
ENDMDL
MODEL 2
REMARK VINA RESULT:      -7.1      0.869      1.045
REMARK  Name = 
REMARK  12 active torsions:
REMARK  status: ('A' for Active; 'I' for Inactive)
REMARK    1  A    between atoms: C_1  and  C_2
REMARK    2  A    between atoms: C_2  and  C_3
REMARK    3  A    between atoms: C_6  and  C_7
REMARK    4  A    between atoms: C_8  and  C_9
REMARK    5  A    between atoms: N_11  and  C_12
REMARK    6  A    between atoms: C_12  and  C_13
REMARK    7  A    between atoms: C_14  and  C_15
REMARK    8  A    between atoms: N_17  and  C_18
REMARK    9  A    between atoms: C_18  and  C_19
REMARK   10  A    between atoms: C_19  and  O_20
REMARK   11  A    between atoms: O_20  and  C_21
REMARK   12  A    between atoms: C_22  and  C_23
REMARK                            x       y       z     vdW  Elec       q    Type
REMARK                         _______ _______ _______ _____ _____    ______ ____
ROOT
ATOM      1  C   UNL     1       4.981   4.506  17.479  0.00  0.00    +0.000 C 
ATOM      2  O   UNL     1       5.232   3.763  18.425  0.00  0.00    +0.000 OA
ATOM      3  N   UNL     1       3.674   4.817  17.160  0.00  0.00    +0.000 N 
ATOM      4  H   UNL     1       3.440   5.478  16.439  0.00  0.00    +0.000 HD
ENDROOT
BRANCH   1  10
ATOM      5  C   UNL     1       6.266   4.865  15.272  0.00  0.00    +0.000 A 
ATOM      6  N   UNL     1       7.310   5.570  14.822  0.00  0.00    +0.000 NA
ATOM      7  O   UNL     1       7.790   6.263  15.906  0.00  0.00    +0.000 OA
ATOM      8  C   UNL     1       7.043   5.979  17.007  0.00  0.00    +0.000 A 
ATOM      9  C   UNL     1       7.482   6.677  18.232  0.00  0.00    +0.000 C 
ATOM     10  C   UNL     1       6.040   5.088  16.671  0.00  0.00    +0.000 A 
BRANCH   5  12
ATOM     11  C   UNL     1       6.297   3.751  13.021  0.00  0.00    +0.000 C 
ATOM     12  C   UNL     1       5.530   3.985  14.314  0.00  0.00    +0.000 C 
ENDBRANCH   5  12
ENDBRANCH   1  10
BRANCH   3  13
ATOM     13  C   UNL     1       2.598   4.234  17.928  0.00  0.00    +0.000 C 
BRANCH  13  14
ATOM     14  C   UNL     1       2.188   5.161  19.014  0.00  0.00    +0.000 A 
ATOM     15  C   UNL     1       1.678   4.848  20.303  0.00  0.00    +0.000 A 
ATOM     16  C   UNL     1       1.396   3.527  20.921  0.00  0.00    +0.000 C 
ATOM     17  N   UNL     1       1.468   5.947  21.031  0.00  0.00    +0.000 NA
ATOM     18  N   UNL     1       1.809   6.972  20.226  0.00  0.00    +0.000 N 
ATOM     19  C   UNL     1       2.288   6.549  19.010  0.00  0.00    +0.000 A 
ATOM     20  C   UNL     1       2.825   7.424  17.937  0.00  0.00    +0.000 C 
BRANCH  18  21
ATOM     21  C   UNL     1       1.793   8.306  20.803  0.00  0.00    +0.000 C 
BRANCH  21  22
ATOM     22  C   UNL     1       0.697   9.233  20.287  0.00  0.00    +0.000 C 
BRANCH  22  23
ATOM     23  O   UNL     1       0.146  10.030  21.333  0.00  0.00    +0.000 OA
ATOM     24  C   UNL     1      -0.311   9.224  22.412  0.00  0.00    +0.000 C 
ENDBRANCH  22  23
ENDBRANCH  21  22
ENDBRANCH  18  21
ENDBRANCH  13  14
ENDBRANCH   3  13
TORSDOF 7
ENDMDL
MODEL 3
REMARK VINA RESULT:      -7.0      1.288      2.607
REMARK  Name = 
REMARK  12 active torsions:
REMARK  status: ('A' for Active; 'I' for Inactive)
REMARK    1  A    between atoms: C_1  and  C_2
REMARK    2  A    between atoms: C_2  and  C_3
REMARK    3  A    between atoms: C_6  and  C_7
REMARK    4  A    between atoms: C_8  and  C_9
REMARK    5  A    between atoms: N_11  and  C_12
REMARK    6  A    between atoms: C_12  and  C_13
REMARK    7  A    between atoms: C_14  and  C_15
REMARK    8  A    between atoms: N_17  and  C_18
REMARK    9  A    between atoms: C_18  and  C_19
REMARK   10  A    between atoms: C_19  and  O_20
REMARK   11  A    between atoms: O_20  and  C_21
REMARK   12  A    between atoms: C_22  and  C_23
REMARK                            x       y       z     vdW  Elec       q    Type
REMARK                         _______ _______ _______ _____ _____    ______ ____
ROOT
ATOM      1  C   UNL     1       4.902   4.382  17.442  0.00  0.00    +0.000 C 
ATOM      2  O   UNL     1       5.161   3.610  18.362  0.00  0.00    +0.000 OA
ATOM      3  N   UNL     1       3.594   4.724  17.161  0.00  0.00    +0.000 N 
ATOM      4  H   UNL     1       3.356   5.408  16.463  0.00  0.00    +0.000 HD
ENDROOT
BRANCH   1  10
ATOM      5  C   UNL     1       6.943   5.909  17.054  0.00  0.00    +0.000 A 
ATOM      6  N   UNL     1       7.783   6.229  16.063  0.00  0.00    +0.000 NA
ATOM      7  O   UNL     1       7.366   5.510  14.971  0.00  0.00    +0.000 OA
ATOM      8  C   UNL     1       6.278   4.760  15.295  0.00  0.00    +0.000 A 
ATOM      9  C   UNL     1       5.750   3.948  14.181  0.00  0.00    +0.000 C 
ATOM     10  C   UNL     1       5.953   4.964  16.624  0.00  0.00    +0.000 A 
BRANCH   5  12
ATOM     11  C   UNL     1       7.925   5.680  19.355  0.00  0.00    +0.000 C 
ATOM     12  C   UNL     1       7.133   6.552  18.390  0.00  0.00    +0.000 C 
ENDBRANCH   5  12
ENDBRANCH   1  10
BRANCH   3  13
ATOM     13  C   UNL     1       2.526   4.142  17.940  0.00  0.00    +0.000 C 
BRANCH  13  14
ATOM     14  C   UNL     1       2.130   5.067  19.033  0.00  0.00    +0.000 A 
ATOM     15  C   UNL     1       1.651   4.752  20.333  0.00  0.00    +0.000 A 
ATOM     16  C   UNL     1       1.395   3.429  20.959  0.00  0.00    +0.000 C 
ATOM     17  N   UNL     1       1.446   5.850  21.063  0.00  0.00    +0.000 NA
ATOM     18  N   UNL     1       1.760   6.876  20.250  0.00  0.00    +0.000 N 
ATOM     19  C   UNL     1       2.216   6.455  19.025  0.00  0.00    +0.000 A 
ATOM     20  C   UNL     1       2.721   7.334  17.938  0.00  0.00    +0.000 C 
BRANCH  18  21
ATOM     21  C   UNL     1       1.743   8.211  20.825  0.00  0.00    +0.000 C 
BRANCH  21  22
ATOM     22  C   UNL     1       0.396   8.675  21.371  0.00  0.00    +0.000 C 
BRANCH  22  23
ATOM     23  O   UNL     1       0.499   9.106  22.727  0.00  0.00    +0.000 OA
ATOM     24  C   UNL     1      -0.559   9.992  23.071  0.00  0.00    +0.000 C 
ENDBRANCH  22  23
ENDBRANCH  21  22
ENDBRANCH  18  21
ENDBRANCH  13  14
ENDBRANCH   3  13
TORSDOF 7
ENDMDL
MODEL 4
REMARK VINA RESULT:      -6.7      2.963      5.138
REMARK  Name = 
REMARK  12 active torsions:
REMARK  status: ('A' for Active; 'I' for Inactive)
REMARK    1  A    between atoms: C_1  and  C_2
REMARK    2  A    between atoms: C_2  and  C_3
REMARK    3  A    between atoms: C_6  and  C_7
REMARK    4  A    between atoms: C_8  and  C_9
REMARK    5  A    between atoms: N_11  and  C_12
REMARK    6  A    between atoms: C_12  and  C_13
REMARK    7  A    between atoms: C_14  and  C_15
REMARK    8  A    between atoms: N_17  and  C_18
REMARK    9  A    between atoms: C_18  and  C_19
REMARK   10  A    between atoms: C_19  and  O_20
REMARK   11  A    between atoms: O_20  and  C_21
REMARK   12  A    between atoms: C_22  and  C_23
REMARK                            x       y       z     vdW  Elec       q    Type
REMARK                         _______ _______ _______ _____ _____    ______ ____
ROOT
ATOM      1  C   UNL     1       2.965   5.385  19.545  0.00  0.00    +0.000 C 
ATOM      2  O   UNL     1       4.112   5.804  19.682  0.00  0.00    +0.000 OA
ATOM      3  N   UNL     1       1.894   6.097  20.046  0.00  0.00    +0.000 N 
ATOM      4  H   UNL     1       0.942   5.818  19.887  0.00  0.00    +0.000 HD
ENDROOT
BRANCH   1  10
ATOM      5  C   UNL     1       1.761   3.123  19.251  0.00  0.00    +0.000 A 
ATOM      6  N   UNL     1       1.731   2.109  18.379  0.00  0.00    +0.000 NA
ATOM      7  O   UNL     1       2.635   2.431  17.398  0.00  0.00    +0.000 OA
ATOM      8  C   UNL     1       3.212   3.631  17.672  0.00  0.00    +0.000 A 
ATOM      9  C   UNL     1       4.206   4.067  16.671  0.00  0.00    +0.000 C 
ATOM     10  C   UNL     1       2.694   4.138  18.850  0.00  0.00    +0.000 A 
BRANCH   5  12
ATOM     11  C   UNL     1       1.642   2.677  21.720  0.00  0.00    +0.000 C 
ATOM     12  C   UNL     1       0.882   3.058  20.458  0.00  0.00    +0.000 C 
ENDBRANCH   5  12
ENDBRANCH   1  10
BRANCH   3  13
ATOM     13  C   UNL     1       2.134   7.328  20.763  0.00  0.00    +0.000 C 
BRANCH  13  14
ATOM     14  C   UNL     1       1.418   8.450  20.103  0.00  0.00    +0.000 A 
ATOM     15  C   UNL     1       1.588   8.959  18.787  0.00  0.00    +0.000 A 
ATOM     16  C   UNL     1       2.526   8.537  17.716  0.00  0.00    +0.000 C 
ATOM     17  N   UNL     1       0.727   9.945  18.525  0.00  0.00    +0.000 NA
ATOM     18  N   UNL     1       0.018  10.103  19.659  0.00  0.00    +0.000 N 
ATOM     19  C   UNL     1       0.370   9.197  20.629  0.00  0.00    +0.000 A 
ATOM     20  C   UNL     1      -0.281   9.052  21.958  0.00  0.00    +0.000 C 
BRANCH  18  21
ATOM     21  C   UNL     1      -1.090  11.044  19.626  0.00  0.00    +0.000 C 
BRANCH  21  22
ATOM     22  C   UNL     1      -1.808  11.169  18.286  0.00  0.00    +0.000 C 
BRANCH  22  23
ATOM     23  O   UNL     1      -2.512   9.974  17.955  0.00  0.00    +0.000 OA
ATOM     24  C   UNL     1      -2.728   9.872  16.552  0.00  0.00    +0.000 C 
ENDBRANCH  22  23
ENDBRANCH  21  22
ENDBRANCH  18  21
ENDBRANCH  13  14
ENDBRANCH   3  13
TORSDOF 7
ENDMDL
MODEL 5
REMARK VINA RESULT:      -6.7      1.915      7.734
REMARK  Name = 
REMARK  12 active torsions:
REMARK  status: ('A' for Active; 'I' for Inactive)
REMARK    1  A    between atoms: C_1  and  C_2
REMARK    2  A    between atoms: C_2  and  C_3
REMARK    3  A    between atoms: C_6  and  C_7
REMARK    4  A    between atoms: C_8  and  C_9
REMARK    5  A    between atoms: N_11  and  C_12
REMARK    6  A    between atoms: C_12  and  C_13
REMARK    7  A    between atoms: C_14  and  C_15
REMARK    8  A    between atoms: N_17  and  C_18
REMARK    9  A    between atoms: C_18  and  C_19
REMARK   10  A    between atoms: C_19  and  O_20
REMARK   11  A    between atoms: O_20  and  C_21
REMARK   12  A    between atoms: C_22  and  C_23
REMARK                            x       y       z     vdW  Elec       q    Type
REMARK                         _______ _______ _______ _____ _____    ______ ____
ROOT
ATOM      1  C   UNL     1       1.757   7.164  20.414  0.00  0.00    +0.000 C 
ATOM      2  O   UNL     1       1.048   6.374  21.032  0.00  0.00    +0.000 OA
ATOM      3  N   UNL     1       2.947   6.747  19.853  0.00  0.00    +0.000 N 
ATOM      4  H   UNL     1       3.512   7.351  19.281  0.00  0.00    +0.000 HD
ENDROOT
BRANCH   1  10
ATOM      5  C   UNL     1       0.983   9.466  21.283  0.00  0.00    +0.000 A 
ATOM      6  N   UNL     1       0.711  10.682  20.797  0.00  0.00    +0.000 NA
ATOM      7  O   UNL     1       0.908  10.597  19.441  0.00  0.00    +0.000 OA
ATOM      8  C   UNL     1       1.296   9.337  19.105  0.00  0.00    +0.000 A 
ATOM      9  C   UNL     1       1.533   9.142  17.661  0.00  0.00    +0.000 C 
ATOM     10  C   UNL     1       1.370   8.554  20.244  0.00  0.00    +0.000 A 
BRANCH   5  12
ATOM     11  C   UNL     1      -0.496   9.708  23.299  0.00  0.00    +0.000 C 
ATOM     12  C   UNL     1       0.843   9.233  22.753  0.00  0.00    +0.000 C 
ENDBRANCH   5  12
ENDBRANCH   1  10
BRANCH   3  13
ATOM     13  C   UNL     1       3.372   5.377  20.026  0.00  0.00    +0.000 C 
BRANCH  13  14
ATOM     14  C   UNL     1       3.880   4.835  18.740  0.00  0.00    +0.000 A 
ATOM     15  C   UNL     1       3.151   4.224  17.684  0.00  0.00    +0.000 A 
ATOM     16  C   UNL     1       1.698   3.938  17.571  0.00  0.00    +0.000 C 
ATOM     17  N   UNL     1       3.943   3.907  16.657  0.00  0.00    +0.000 NA
ATOM     18  N   UNL     1       5.179   4.279  17.039  0.00  0.00    +0.000 N 
ATOM     19  C   UNL     1       5.190   4.881  18.273  0.00  0.00    +0.000 A 
ATOM     20  C   UNL     1       6.377   5.479  18.937  0.00  0.00    +0.000 C 
BRANCH  18  21
ATOM     21  C   UNL     1       6.244   4.159  16.056  0.00  0.00    +0.000 C 
BRANCH  21  22
ATOM     22  C   UNL     1       5.858   4.508  14.622  0.00  0.00    +0.000 C 
BRANCH  22  23
ATOM     23  O   UNL     1       6.487   3.638  13.682  0.00  0.00    +0.000 OA
ATOM     24  C   UNL     1       5.667   3.432  12.538  0.00  0.00    +0.000 C 
ENDBRANCH  22  23
ENDBRANCH  21  22
ENDBRANCH  18  21
ENDBRANCH  13  14
ENDBRANCH   3  13
TORSDOF 7
ENDMDL
MODEL 6
REMARK VINA RESULT:      -6.7      2.977      4.899
REMARK  Name = 
REMARK  12 active torsions:
REMARK  status: ('A' for Active; 'I' for Inactive)
REMARK    1  A    between atoms: C_1  and  C_2
REMARK    2  A    between atoms: C_2  and  C_3
REMARK    3  A    between atoms: C_6  and  C_7
REMARK    4  A    between atoms: C_8  and  C_9
REMARK    5  A    between atoms: N_11  and  C_12
REMARK    6  A    between atoms: C_12  and  C_13
REMARK    7  A    between atoms: C_14  and  C_15
REMARK    8  A    between atoms: N_17  and  C_18
REMARK    9  A    between atoms: C_18  and  C_19
REMARK   10  A    between atoms: C_19  and  O_20
REMARK   11  A    between atoms: O_20  and  C_21
REMARK   12  A    between atoms: C_22  and  C_23
REMARK                            x       y       z     vdW  Elec       q    Type
REMARK                         _______ _______ _______ _____ _____    ______ ____
ROOT
ATOM      1  C   UNL     1       2.822   5.326  19.934  0.00  0.00    +0.000 C 
ATOM      2  O   UNL     1       3.964   5.760  19.803  0.00  0.00    +0.000 OA
ATOM      3  N   UNL     1       1.831   6.113  20.483  0.00  0.00    +0.000 N 
ATOM      4  H   UNL     1       0.873   5.813  20.536  0.00  0.00    +0.000 HD
ENDROOT
BRANCH   1  10
ATOM      5  C   UNL     1       2.643   3.426  18.198  0.00  0.00    +0.000 A 
ATOM      6  N   UNL     1       2.243   2.150  18.145  0.00  0.00    +0.000 NA
ATOM      7  O   UNL     1       1.802   1.842  19.407  0.00  0.00    +0.000 OA
ATOM      8  C   UNL     1       1.931   2.924  20.223  0.00  0.00    +0.000 A 
ATOM      9  C   UNL     1       1.479   2.693  21.609  0.00  0.00    +0.000 C 
ATOM     10  C   UNL     1       2.471   3.980  19.511  0.00  0.00    +0.000 A 
BRANCH   5  12
ATOM     11  C   UNL     1       4.645   3.763  16.718  0.00  0.00    +0.000 C 
ATOM     12  C   UNL     1       3.172   4.064  16.954  0.00  0.00    +0.000 C 
ENDBRANCH   5  12
ENDBRANCH   1  10
BRANCH   3  13
ATOM     13  C   UNL     1       2.154   7.447  20.936  0.00  0.00    +0.000 C 
BRANCH  13  14
ATOM     14  C   UNL     1       1.420   8.452  20.125  0.00  0.00    +0.000 A 
ATOM     15  C   UNL     1       1.616   8.808  18.763  0.00  0.00    +0.000 A 
ATOM     16  C   UNL     1       2.606   8.301  17.779  0.00  0.00    +0.000 C 
ATOM     17  N   UNL     1       0.729   9.720  18.359  0.00  0.00    +0.000 NA
ATOM     18  N   UNL     1      -0.025   9.981  19.444  0.00  0.00    +0.000 N 
ATOM     19  C   UNL     1       0.326   9.212  20.526  0.00  0.00    +0.000 A 
ATOM     20  C   UNL     1      -0.364   9.198  21.842  0.00  0.00    +0.000 C 
BRANCH  18  21
ATOM     21  C   UNL     1      -1.166  10.865  19.265  0.00  0.00    +0.000 C 
BRANCH  21  22
ATOM     22  C   UNL     1      -2.218  10.389  18.269  0.00  0.00    +0.000 C 
BRANCH  22  23
ATOM     23  O   UNL     1      -2.200  11.168  17.074  0.00  0.00    +0.000 OA
ATOM     24  C   UNL     1      -2.526  10.379  15.936  0.00  0.00    +0.000 C 
ENDBRANCH  22  23
ENDBRANCH  21  22
ENDBRANCH  18  21
ENDBRANCH  13  14
ENDBRANCH   3  13
TORSDOF 7
ENDMDL
MODEL 7
REMARK VINA RESULT:      -6.7      2.975      5.031
REMARK  Name = 
REMARK  12 active torsions:
REMARK  status: ('A' for Active; 'I' for Inactive)
REMARK    1  A    between atoms: C_1  and  C_2
REMARK    2  A    between atoms: C_2  and  C_3
REMARK    3  A    between atoms: C_6  and  C_7
REMARK    4  A    between atoms: C_8  and  C_9
REMARK    5  A    between atoms: N_11  and  C_12
REMARK    6  A    between atoms: C_12  and  C_13
REMARK    7  A    between atoms: C_14  and  C_15
REMARK    8  A    between atoms: N_17  and  C_18
REMARK    9  A    between atoms: C_18  and  C_19
REMARK   10  A    between atoms: C_19  and  O_20
REMARK   11  A    between atoms: O_20  and  C_21
REMARK   12  A    between atoms: C_22  and  C_23
REMARK                            x       y       z     vdW  Elec       q    Type
REMARK                         _______ _______ _______ _____ _____    ______ ____
ROOT
ATOM      1  C   UNL     1       2.885   5.561  19.430  0.00  0.00    +0.000 C 
ATOM      2  O   UNL     1       4.045   5.815  19.744  0.00  0.00    +0.000 OA
ATOM      3  N   UNL     1       1.860   6.416  19.781  0.00  0.00    +0.000 N 
ATOM      4  H   UNL     1       0.912   6.273  19.476  0.00  0.00    +0.000 HD
ENDROOT
BRANCH   1  10
ATOM      5  C   UNL     1       1.560   3.385  19.025  0.00  0.00    +0.000 A 
ATOM      6  N   UNL     1       1.480   2.416  18.106  0.00  0.00    +0.000 NA
ATOM      7  O   UNL     1       2.407   2.732  17.145  0.00  0.00    +0.000 OA
ATOM      8  C   UNL     1       3.048   3.885  17.477  0.00  0.00    +0.000 A 
ATOM      9  C   UNL     1       4.071   4.311  16.502  0.00  0.00    +0.000 C 
ATOM     10  C   UNL     1       2.550   4.364  18.676  0.00  0.00    +0.000 A 
BRANCH   5  12
ATOM     11  C   UNL     1       1.389   2.792  21.460  0.00  0.00    +0.000 C 
ATOM     12  C   UNL     1       0.670   3.313  20.223  0.00  0.00    +0.000 C 
ENDBRANCH   5  12
ENDBRANCH   1  10
BRANCH   3  13
ATOM     13  C   UNL     1       2.158   7.601  20.552  0.00  0.00    +0.000 C 
BRANCH  13  14
ATOM     14  C   UNL     1       1.156   8.660  20.266  0.00  0.00    +0.000 A 
ATOM     15  C   UNL     1       0.185   9.223  21.138  0.00  0.00    +0.000 A 
ATOM     16  C   UNL     1      -0.115   8.908  22.559  0.00  0.00    +0.000 C 
ATOM     17  N   UNL     1      -0.509  10.194  20.542  0.00  0.00    +0.000 NA
ATOM     18  N   UNL     1      -0.024  10.255  19.288  0.00  0.00    +0.000 N 
ATOM     19  C   UNL     1       1.011   9.376  19.082  0.00  0.00    +0.000 A 
ATOM     20  C   UNL     1       1.814   9.257  17.837  0.00  0.00    +0.000 C 
BRANCH  18  21
ATOM     21  C   UNL     1      -0.521  11.319  18.432  0.00  0.00    +0.000 C 
BRANCH  21  22
ATOM     22  C   UNL     1      -2.039  11.439  18.345  0.00  0.00    +0.000 C 
BRANCH  22  23
ATOM     23  O   UNL     1      -2.635  10.234  17.866  0.00  0.00    +0.000 OA
ATOM     24  C   UNL     1      -2.349  10.029  16.487  0.00  0.00    +0.000 C 
ENDBRANCH  22  23
ENDBRANCH  21  22
ENDBRANCH  18  21
ENDBRANCH  13  14
ENDBRANCH   3  13
TORSDOF 7
ENDMDL
MODEL 8
REMARK VINA RESULT:      -6.6      2.355      7.911
REMARK  Name = 
REMARK  12 active torsions:
REMARK  status: ('A' for Active; 'I' for Inactive)
REMARK    1  A    between atoms: C_1  and  C_2
REMARK    2  A    between atoms: C_2  and  C_3
REMARK    3  A    between atoms: C_6  and  C_7
REMARK    4  A    between atoms: C_8  and  C_9
REMARK    5  A    between atoms: N_11  and  C_12
REMARK    6  A    between atoms: C_12  and  C_13
REMARK    7  A    between atoms: C_14  and  C_15
REMARK    8  A    between atoms: N_17  and  C_18
REMARK    9  A    between atoms: C_18  and  C_19
REMARK   10  A    between atoms: C_19  and  O_20
REMARK   11  A    between atoms: O_20  and  C_21
REMARK   12  A    between atoms: C_22  and  C_23
REMARK                            x       y       z     vdW  Elec       q    Type
REMARK                         _______ _______ _______ _____ _____    ______ ____
ROOT
ATOM      1  C   UNL     1       0.956   9.682  19.077  0.00  0.00    +0.000 C 
ATOM      2  O   UNL     1       0.273   9.818  18.064  0.00  0.00    +0.000 OA
ATOM      3  N   UNL     1       1.934   8.709  19.137  0.00  0.00    +0.000 N 
ATOM      4  H   UNL     1       2.556   8.621  19.922  0.00  0.00    +0.000 HD
ENDROOT
BRANCH   1  10
ATOM      5  C   UNL     1       1.104  11.927  20.337  0.00  0.00    +0.000 A 
ATOM      6  N   UNL     1       0.778  12.429  21.534  0.00  0.00    +0.000 NA
ATOM      7  O   UNL     1       0.229  11.388  22.241  0.00  0.00    +0.000 OA
ATOM      8  C   UNL     1       0.222  10.261  21.479  0.00  0.00    +0.000 A 
ATOM      9  C   UNL     1      -0.351   9.080  22.154  0.00  0.00    +0.000 C 
ATOM     10  C   UNL     1       0.767  10.536  20.238  0.00  0.00    +0.000 A 
BRANCH   5  12
ATOM     11  C   UNL     1       2.551  13.948  19.976  0.00  0.00    +0.000 C 
ATOM     12  C   UNL     1       1.746  12.828  19.332  0.00  0.00    +0.000 C 
ENDBRANCH   5  12
ENDBRANCH   1  10
BRANCH   3  13
ATOM     13  C   UNL     1       2.129   7.829  18.009  0.00  0.00    +0.000 C 
BRANCH  13  14
ATOM     14  C   UNL     1       3.032   6.711  18.385  0.00  0.00    +0.000 A 
ATOM     15  C   UNL     1       2.908   5.793  19.463  0.00  0.00    +0.000 A 
ATOM     16  C   UNL     1       1.867   5.701  20.519  0.00  0.00    +0.000 C 
ATOM     17  N   UNL     1       3.888   4.888  19.456  0.00  0.00    +0.000 NA
ATOM     18  N   UNL     1       4.662   5.217  18.404  0.00  0.00    +0.000 N 
ATOM     19  C   UNL     1       4.166   6.287  17.701  0.00  0.00    +0.000 A 
ATOM     20  C   UNL     1       4.738   6.840  16.445  0.00  0.00    +0.000 C 
BRANCH  18  21
ATOM     21  C   UNL     1       5.758   4.319  18.077  0.00  0.00    +0.000 C 
BRANCH  21  22
ATOM     22  C   UNL     1       7.151   4.942  18.111  0.00  0.00    +0.000 C 
BRANCH  22  23
ATOM     23  O   UNL     1       7.765   4.924  16.824  0.00  0.00    +0.000 OA
ATOM     24  C   UNL     1       6.976   4.206  15.883  0.00  0.00    +0.000 C 
ENDBRANCH  22  23
ENDBRANCH  21  22
ENDBRANCH  18  21
ENDBRANCH  13  14
ENDBRANCH   3  13
TORSDOF 7
ENDMDL
MODEL 9
REMARK VINA RESULT:      -6.6      1.070      1.132
REMARK  Name = 
REMARK  12 active torsions:
REMARK  status: ('A' for Active; 'I' for Inactive)
REMARK    1  A    between atoms: C_1  and  C_2
REMARK    2  A    between atoms: C_2  and  C_3
REMARK    3  A    between atoms: C_6  and  C_7
REMARK    4  A    between atoms: C_8  and  C_9
REMARK    5  A    between atoms: N_11  and  C_12
REMARK    6  A    between atoms: C_12  and  C_13
REMARK    7  A    between atoms: C_14  and  C_15
REMARK    8  A    between atoms: N_17  and  C_18
REMARK    9  A    between atoms: C_18  and  C_19
REMARK   10  A    between atoms: C_19  and  O_20
REMARK   11  A    between atoms: O_20  and  C_21
REMARK   12  A    between atoms: C_22  and  C_23
REMARK                            x       y       z     vdW  Elec       q    Type
REMARK                         _______ _______ _______ _____ _____    ______ ____
ROOT
ATOM      1  C   UNL     1       5.340   4.291  17.742  0.00  0.00    +0.000 C 
ATOM      2  O   UNL     1       5.701   3.787  18.804  0.00  0.00    +0.000 OA
ATOM      3  N   UNL     1       4.019   4.224  17.347  0.00  0.00    +0.000 N 
ATOM      4  H   UNL     1       3.681   4.689  16.522  0.00  0.00    +0.000 HD
ENDROOT
BRANCH   1  10
ATOM      5  C   UNL     1       6.476   4.739  15.470  0.00  0.00    +0.000 A 
ATOM      6  N   UNL     1       7.402   5.557  14.956  0.00  0.00    +0.000 NA
ATOM      7  O   UNL     1       7.832   6.339  15.998  0.00  0.00    +0.000 OA
ATOM      8  C   UNL     1       7.175   5.999  17.139  0.00  0.00    +0.000 A 
ATOM      9  C   UNL     1       7.570   6.786  18.323  0.00  0.00    +0.000 C 
ATOM     10  C   UNL     1       6.281   4.976  16.873  0.00  0.00    +0.000 A 
BRANCH   5  12
ATOM     11  C   UNL     1       6.312   3.834  13.133  0.00  0.00    +0.000 C 
ATOM     12  C   UNL     1       5.821   3.742  14.571  0.00  0.00    +0.000 C 
ENDBRANCH   5  12
ENDBRANCH   1  10
BRANCH   3  13
ATOM     13  C   UNL     1       3.065   3.528  18.178  0.00  0.00    +0.000 C 
BRANCH  13  14
ATOM     14  C   UNL     1       2.555   4.435  19.239  0.00  0.00    +0.000 A 
ATOM     15  C   UNL     1       2.295   4.145  20.606  0.00  0.00    +0.000 A 
ATOM     16  C   UNL     1       2.438   2.869  21.353  0.00  0.00    +0.000 C 
ATOM     17  N   UNL     1       1.892   5.229  21.271  0.00  0.00    +0.000 NA
ATOM     18  N   UNL     1       1.861   6.214  20.354  0.00  0.00    +0.000 N 
ATOM     19  C   UNL     1       2.290   5.795  19.118  0.00  0.00    +0.000 A 
ATOM     20  C   UNL     1       2.455   6.656  17.919  0.00  0.00    +0.000 C 
BRANCH  18  21
ATOM     21  C   UNL     1       1.565   7.556  20.827  0.00  0.00    +0.000 C 
BRANCH  21  22
ATOM     22  C   UNL     1       1.594   8.650  19.764  0.00  0.00    +0.000 C 
BRANCH  22  23
ATOM     23  O   UNL     1       0.454   9.503  19.855  0.00  0.00    +0.000 OA
ATOM     24  C   UNL     1       0.181  10.136  18.611  0.00  0.00    +0.000 C 
ENDBRANCH  22  23
ENDBRANCH  21  22
ENDBRANCH  18  21
ENDBRANCH  13  14
ENDBRANCH   3  13
TORSDOF 7
ENDMDL
