MODEL 1
REMARK VINA RESULT:      -9.0      0.000      0.000
REMARK  Name = 
REMARK  6 active torsions:
REMARK  status: ('A' for Active; 'I' for Inactive)
REMARK    1  A    between atoms: C_1  and  O_2
REMARK    2  A    between atoms: O_2  and  C_3
REMARK    3  A    between atoms: C_7  and  N_8
REMARK    4  A    between atoms: N_11  and  C_12
REMARK    5  A    between atoms: N_16  and  C_17
REMARK    6  A    between atoms: C_17  and  C_18
REMARK                            x       y       z     vdW  Elec       q    Type
REMARK                         _______ _______ _______ _____ _____    ______ ____
ROOT
ATOM      1  C   UNL     1       6.672   6.764  17.327  0.00  0.00    +0.000 A 
ATOM      2  C   UNL     1       7.466   5.680  17.329  0.00  0.00    +0.000 A 
ATOM      3  C   UNL     1       6.931   4.349  17.400  0.00  0.00    +0.000 A 
ATOM      4  C   UNL     1       5.608   4.166  17.414  0.00  0.00    +0.000 A 
ATOM      5  N   UNL     1       4.730   5.237  17.441  0.00  0.00    +0.000 N 
ATOM      6  C   UNL     1       5.183   6.562  17.492  0.00  0.00    +0.000 A 
ATOM      7  O   UNL     1       4.457   7.550  17.620  0.00  0.00    +0.000 OA
ENDROOT
BRANCH   1  11
ATOM      8  N   UNL     1       8.322   9.968  17.703  0.00  0.00    +0.000 N 
ATOM      9  C   UNL     1       8.061   8.636  17.985  0.00  0.00    +0.000 C 
ATOM     10  O   UNL     1       8.603   8.005  18.891  0.00  0.00    +0.000 OA
ATOM     11  N   UNL     1       7.126   8.064  17.140  0.00  0.00    +0.000 N 
ATOM     12  H   UNL     1       8.003  10.329  16.818  0.00  0.00    +0.000 HD
ATOM     13  H   UNL     1       7.101   8.381  16.177  0.00  0.00    +0.000 HD
BRANCH   8  18
ATOM     14  C   UNL     1      10.878  12.537  18.515  0.00  0.00    +0.000 A 
ATOM     15  C   UNL     1      11.078  12.308  19.879  0.00  0.00    +0.000 A 
ATOM     16  C   UNL     1      10.336  11.344  20.545  0.00  0.00    +0.000 A 
ATOM     17  C   UNL     1       9.403  10.586  19.840  0.00  0.00    +0.000 A 
ATOM     18  C   UNL     1       9.209  10.771  18.464  0.00  0.00    +0.000 A 
ATOM     19  C   UNL     1       9.931  11.780  17.812  0.00  0.00    +0.000 A 
BRANCH  14  21
ATOM     20  C   UNL     1      12.266  13.253  16.722  0.00  0.00    +0.000 C 
ATOM     21  O   UNL     1      11.685  13.511  17.992  0.00  0.00    +0.000 OA
ENDBRANCH  14  21
ENDBRANCH   8  18
ENDBRANCH   1  11
BRANCH   5  22
ATOM     22  C   UNL     1       3.295   4.972  17.466  0.00  0.00    +0.000 C 
BRANCH  22  23
ATOM     23  C   UNL     1       2.804   4.278  18.723  0.00  0.00    +0.000 A 
ATOM     24  C   UNL     1       2.894   4.919  19.973  0.00  0.00    +0.000 A 
ATOM     25  C   UNL     1       2.311   4.348  21.108  0.00  0.00    +0.000 A 
ATOM     26  C   UNL     1       1.648   3.132  21.001  0.00  0.00    +0.000 A 
ATOM     27  F   UNL     1       1.050   2.608  22.080  0.00  0.00    +0.000 F 
ATOM     28  C   UNL     1       1.581   2.462  19.788  0.00  0.00    +0.000 A 
ATOM     29  C   UNL     1       2.161   3.031  18.651  0.00  0.00    +0.000 A 
ENDBRANCH  22  23
ENDBRANCH   5  22
TORSDOF 5
ENDMDL
MODEL 2
REMARK VINA RESULT:      -9.0      1.050      2.036
REMARK  Name = 
REMARK  6 active torsions:
REMARK  status: ('A' for Active; 'I' for Inactive)
REMARK    1  A    between atoms: C_1  and  O_2
REMARK    2  A    between atoms: O_2  and  C_3
REMARK    3  A    between atoms: C_7  and  N_8
REMARK    4  A    between atoms: N_11  and  C_12
REMARK    5  A    between atoms: N_16  and  C_17
REMARK    6  A    between atoms: C_17  and  C_18
REMARK                            x       y       z     vdW  Elec       q    Type
REMARK                         _______ _______ _______ _____ _____    ______ ____
ROOT
ATOM      1  C   UNL     1       6.496   6.744  17.440  0.00  0.00    +0.000 A 
ATOM      2  C   UNL     1       7.250   5.637  17.541  0.00  0.00    +0.000 A 
ATOM      3  C   UNL     1       6.666   4.328  17.625  0.00  0.00    +0.000 A 
ATOM      4  C   UNL     1       5.339   4.188  17.551  0.00  0.00    +0.000 A 
ATOM      5  N   UNL     1       4.499   5.287  17.473  0.00  0.00    +0.000 N 
ATOM      6  C   UNL     1       4.994   6.597  17.505  0.00  0.00    +0.000 A 
ATOM      7  O   UNL     1       4.295   7.612  17.542  0.00  0.00    +0.000 OA
ENDROOT
BRANCH   1  11
ATOM      8  N   UNL     1       8.348   9.845  17.731  0.00  0.00    +0.000 N 
ATOM      9  C   UNL     1       8.034   8.526  18.015  0.00  0.00    +0.000 C 
ATOM     10  O   UNL     1       8.606   7.850  18.869  0.00  0.00    +0.000 OA
ATOM     11  N   UNL     1       7.007   8.021  17.236  0.00  0.00    +0.000 N 
ATOM     12  H   UNL     1       7.985  10.238  16.877  0.00  0.00    +0.000 HD
ATOM     13  H   UNL     1       6.929   8.355  16.281  0.00  0.00    +0.000 HD
BRANCH   8  18
ATOM     14  C   UNL     1      10.001  11.744  20.463  0.00  0.00    +0.000 A 
ATOM     15  C   UNL     1      11.177  12.163  19.836  0.00  0.00    +0.000 A 
ATOM     16  C   UNL     1      11.453  11.779  18.532  0.00  0.00    +0.000 A 
ATOM     17  C   UNL     1      10.538  10.990  17.839  0.00  0.00    +0.000 A 
ATOM     18  C   UNL     1       9.333  10.586  18.432  0.00  0.00    +0.000 A 
ATOM     19  C   UNL     1       9.087  10.941  19.766  0.00  0.00    +0.000 A 
BRANCH  14  21
ATOM     20  C   UNL     1       8.603  11.992  22.369  0.00  0.00    +0.000 C 
ATOM     21  O   UNL     1       9.859  12.205  21.743  0.00  0.00    +0.000 OA
ENDBRANCH  14  21
ENDBRANCH   8  18
ENDBRANCH   1  11
BRANCH   5  22
ATOM     22  C   UNL     1       3.057   5.069  17.405  0.00  0.00    +0.000 C 
BRANCH  22  23
ATOM     23  C   UNL     1       2.448   4.486  18.666  0.00  0.00    +0.000 A 
ATOM     24  C   UNL     1       1.657   3.323  18.605  0.00  0.00    +0.000 A 
ATOM     25  C   UNL     1       1.218   2.700  19.777  0.00  0.00    +0.000 A 
ATOM     26  C   UNL     1       1.557   3.241  21.011  0.00  0.00    +0.000 A 
ATOM     27  F   UNL     1       1.174   2.617  22.133  0.00  0.00    +0.000 F 
ATOM     28  C   UNL     1       2.301   4.409  21.096  0.00  0.00    +0.000 A 
ATOM     29  C   UNL     1       2.743   5.034  19.926  0.00  0.00    +0.000 A 
ENDBRANCH  22  23
ENDBRANCH   5  22
TORSDOF 5
ENDMDL
MODEL 3
REMARK VINA RESULT:      -8.8      1.717      2.226
REMARK  Name = 
REMARK  6 active torsions:
REMARK  status: ('A' for Active; 'I' for Inactive)
REMARK    1  A    between atoms: C_1  and  O_2
REMARK    2  A    between atoms: O_2  and  C_3
REMARK    3  A    between atoms: C_7  and  N_8
REMARK    4  A    between atoms: N_11  and  C_12
REMARK    5  A    between atoms: N_16  and  C_17
REMARK    6  A    between atoms: C_17  and  C_18
REMARK                            x       y       z     vdW  Elec       q    Type
REMARK                         _______ _______ _______ _____ _____    ______ ____
ROOT
ATOM      1  C   UNL     1       7.627   6.748  18.277  0.00  0.00    +0.000 A 
ATOM      2  C   UNL     1       7.174   6.873  17.018  0.00  0.00    +0.000 A 
ATOM      3  C   UNL     1       6.173   5.994  16.482  0.00  0.00    +0.000 A 
ATOM      4  C   UNL     1       5.631   5.053  17.262  0.00  0.00    +0.000 A 
ATOM      5  N   UNL     1       6.067   4.850  18.560  0.00  0.00    +0.000 N 
ATOM      6  C   UNL     1       7.122   5.592  19.109  0.00  0.00    +0.000 A 
ATOM      7  O   UNL     1       7.621   5.391  20.218  0.00  0.00    +0.000 OA
ENDROOT
BRANCH   1  11
ATOM      8  N   UNL     1       9.509   9.705  19.196  0.00  0.00    +0.000 N 
ATOM      9  C   UNL     1       8.505   8.987  18.564  0.00  0.00    +0.000 C 
ATOM     10  O   UNL     1       7.684   9.482  17.795  0.00  0.00    +0.000 OA
ATOM     11  N   UNL     1       8.503   7.640  18.883  0.00  0.00    +0.000 N 
ATOM     12  H   UNL     1       9.984   9.263  19.967  0.00  0.00    +0.000 HD
ATOM     13  H   UNL     1       8.788   7.375  19.820  0.00  0.00    +0.000 HD
BRANCH   8  18
ATOM     14  C   UNL     1      10.866  12.838  17.732  0.00  0.00    +0.000 A 
ATOM     15  C   UNL     1      10.332  13.800  18.593  0.00  0.00    +0.000 A 
ATOM     16  C   UNL     1       9.483  13.425  19.625  0.00  0.00    +0.000 A 
ATOM     17  C   UNL     1       9.183  12.077  19.813  0.00  0.00    +0.000 A 
ATOM     18  C   UNL     1       9.735  11.089  18.985  0.00  0.00    +0.000 A 
ATOM     19  C   UNL     1      10.553  11.483  17.919  0.00  0.00    +0.000 A 
BRANCH  14  21
ATOM     20  C   UNL     1      12.333  14.583  17.059  0.00  0.00    +0.000 C 
ATOM     21  O   UNL     1      11.691  13.351  16.768  0.00  0.00    +0.000 OA
ENDBRANCH  14  21
ENDBRANCH   8  18
ENDBRANCH   1  11
BRANCH   5  22
ATOM     22  C   UNL     1       5.443   3.800  19.358  0.00  0.00    +0.000 C 
BRANCH  22  23
ATOM     23  C   UNL     1       3.990   3.528  19.015  0.00  0.00    +0.000 A 
ATOM     24  C   UNL     1       3.644   2.454  18.174  0.00  0.00    +0.000 A 
ATOM     25  C   UNL     1       2.303   2.110  17.975  0.00  0.00    +0.000 A 
ATOM     26  C   UNL     1       1.306   2.843  18.604  0.00  0.00    +0.000 A 
ATOM     27  F   UNL     1       0.024   2.484  18.448  0.00  0.00    +0.000 F 
ATOM     28  C   UNL     1       1.620   3.932  19.406  0.00  0.00    +0.000 A 
ATOM     29  C   UNL     1       2.959   4.277  19.608  0.00  0.00    +0.000 A 
ENDBRANCH  22  23
ENDBRANCH   5  22
TORSDOF 5
ENDMDL
MODEL 4
REMARK VINA RESULT:      -8.7      1.944      2.639
REMARK  Name = 
REMARK  6 active torsions:
REMARK  status: ('A' for Active; 'I' for Inactive)
REMARK    1  A    between atoms: C_1  and  O_2
REMARK    2  A    between atoms: O_2  and  C_3
REMARK    3  A    between atoms: C_7  and  N_8
REMARK    4  A    between atoms: N_11  and  C_12
REMARK    5  A    between atoms: N_16  and  C_17
REMARK    6  A    between atoms: C_17  and  C_18
REMARK                            x       y       z     vdW  Elec       q    Type
REMARK                         _______ _______ _______ _____ _____    ______ ____
ROOT
ATOM      1  C   UNL     1       7.620   6.725  18.259  0.00  0.00    +0.000 A 
ATOM      2  C   UNL     1       7.193   6.815  16.989  0.00  0.00    +0.000 A 
ATOM      3  C   UNL     1       6.209   5.915  16.455  0.00  0.00    +0.000 A 
ATOM      4  C   UNL     1       5.657   4.991  17.247  0.00  0.00    +0.000 A 
ATOM      5  N   UNL     1       6.068   4.824  18.559  0.00  0.00    +0.000 N 
ATOM      6  C   UNL     1       7.105   5.588  19.110  0.00  0.00    +0.000 A 
ATOM      7  O   UNL     1       7.583   5.419  20.234  0.00  0.00    +0.000 OA
ENDROOT
BRANCH   1  11
ATOM      8  N   UNL     1       9.480   9.712  19.124  0.00  0.00    +0.000 N 
ATOM      9  C   UNL     1       8.498   8.972  18.486  0.00  0.00    +0.000 C 
ATOM     10  O   UNL     1       7.708   9.437  17.666  0.00  0.00    +0.000 OA
ATOM     11  N   UNL     1       8.477   7.639  18.861  0.00  0.00    +0.000 N 
ATOM     12  H   UNL     1       9.924   9.302  19.931  0.00  0.00    +0.000 HD
ATOM     13  H   UNL     1       8.725   7.413  19.818  0.00  0.00    +0.000 HD
BRANCH   8  18
ATOM     14  C   UNL     1       9.293  13.409  19.437  0.00  0.00    +0.000 A 
ATOM     15  C   UNL     1      10.043  13.819  18.333  0.00  0.00    +0.000 A 
ATOM     16  C   UNL     1      10.656  12.881  17.513  0.00  0.00    +0.000 A 
ATOM     17  C   UNL     1      10.498  11.524  17.784  0.00  0.00    +0.000 A 
ATOM     18  C   UNL     1       9.721  11.085  18.865  0.00  0.00    +0.000 A 
ATOM     19  C   UNL     1       9.146  12.042  19.713  0.00  0.00    +0.000 A 
BRANCH  14  21
ATOM     20  C   UNL     1       8.782  15.728  19.553  0.00  0.00    +0.000 C 
ATOM     21  O   UNL     1       8.743  14.440  20.149  0.00  0.00    +0.000 OA
ENDBRANCH  14  21
ENDBRANCH   8  18
ENDBRANCH   1  11
BRANCH   5  22
ATOM     22  C   UNL     1       5.434   3.790  19.371  0.00  0.00    +0.000 C 
BRANCH  22  23
ATOM     23  C   UNL     1       3.984   3.512  19.018  0.00  0.00    +0.000 A 
ATOM     24  C   UNL     1       3.644   2.415  18.206  0.00  0.00    +0.000 A 
ATOM     25  C   UNL     1       2.305   2.069  18.001  0.00  0.00    +0.000 A 
ATOM     26  C   UNL     1       1.303   2.825  18.595  0.00  0.00    +0.000 A 
ATOM     27  F   UNL     1       0.022   2.466  18.435  0.00  0.00    +0.000 F 
ATOM     28  C   UNL     1       1.611   3.936  19.368  0.00  0.00    +0.000 A 
ATOM     29  C   UNL     1       2.950   4.283  19.576  0.00  0.00    +0.000 A 
ENDBRANCH  22  23
ENDBRANCH   5  22
TORSDOF 5
ENDMDL
MODEL 5
REMARK VINA RESULT:      -8.4      1.691      1.965
REMARK  Name = 
REMARK  6 active torsions:
REMARK  status: ('A' for Active; 'I' for Inactive)
REMARK    1  A    between atoms: C_1  and  O_2
REMARK    2  A    between atoms: O_2  and  C_3
REMARK    3  A    between atoms: C_7  and  N_8
REMARK    4  A    between atoms: N_11  and  C_12
REMARK    5  A    between atoms: N_16  and  C_17
REMARK    6  A    between atoms: C_17  and  C_18
REMARK                            x       y       z     vdW  Elec       q    Type
REMARK                         _______ _______ _______ _____ _____    ______ ____
ROOT
ATOM      1  C   UNL     1       7.704   6.718  18.181  0.00  0.00    +0.000 A 
ATOM      2  C   UNL     1       7.410   6.857  16.878  0.00  0.00    +0.000 A 
ATOM      3  C   UNL     1       6.472   5.993  16.217  0.00  0.00    +0.000 A 
ATOM      4  C   UNL     1       5.827   5.055  16.916  0.00  0.00    +0.000 A 
ATOM      5  N   UNL     1       6.099   4.838  18.257  0.00  0.00    +0.000 N 
ATOM      6  C   UNL     1       7.087   5.563  18.936  0.00  0.00    +0.000 A 
ATOM      7  O   UNL     1       7.444   5.349  20.096  0.00  0.00    +0.000 OA
ENDROOT
BRANCH   1  11
ATOM      8  N   UNL     1       9.449   9.658  19.380  0.00  0.00    +0.000 N 
ATOM      9  C   UNL     1       8.517   8.954  18.635  0.00  0.00    +0.000 C 
ATOM     10  O   UNL     1       7.756   9.471  17.818  0.00  0.00    +0.000 OA
ATOM     11  N   UNL     1       8.509   7.595  18.898  0.00  0.00    +0.000 N 
ATOM     12  H   UNL     1       9.863   9.191  20.171  0.00  0.00    +0.000 HD
ATOM     13  H   UNL     1       8.716   7.295  19.844  0.00  0.00    +0.000 HD
BRANCH   8  18
ATOM     14  C   UNL     1      10.659  12.884  17.992  0.00  0.00    +0.000 A 
ATOM     15  C   UNL     1      10.257  13.781  18.984  0.00  0.00    +0.000 A 
ATOM     16  C   UNL     1       9.541  13.334  20.086  0.00  0.00    +0.000 A 
ATOM     17  C   UNL     1       9.246  11.979  20.210  0.00  0.00    +0.000 A 
ATOM     18  C   UNL     1       9.669  11.053  19.247  0.00  0.00    +0.000 A 
ATOM     19  C   UNL     1      10.350  11.522  18.115  0.00  0.00    +0.000 A 
BRANCH  14  21
ATOM     20  C   UNL     1      11.282  14.877  16.855  0.00  0.00    +0.000 C 
ATOM     21  O   UNL     1      11.361  13.464  16.970  0.00  0.00    +0.000 OA
ENDBRANCH  14  21
ENDBRANCH   8  18
ENDBRANCH   1  11
BRANCH   5  22
ATOM     22  C   UNL     1       5.369   3.790  18.964  0.00  0.00    +0.000 C 
BRANCH  22  23
ATOM     23  C   UNL     1       4.053   4.240  19.572  0.00  0.00    +0.000 A 
ATOM     24  C   UNL     1       3.649   5.585  19.486  0.00  0.00    +0.000 A 
ATOM     25  C   UNL     1       2.376   5.974  19.911  0.00  0.00    +0.000 A 
ATOM     26  C   UNL     1       1.507   5.025  20.435  0.00  0.00    +0.000 A 
ATOM     27  F   UNL     1       0.271   5.390  20.800  0.00  0.00    +0.000 F 
ATOM     28  C   UNL     1       1.897   3.699  20.568  0.00  0.00    +0.000 A 
ATOM     29  C   UNL     1       3.170   3.307  20.141  0.00  0.00    +0.000 A 
ENDBRANCH  22  23
ENDBRANCH   5  22
TORSDOF 5
ENDMDL
MODEL 6
REMARK VINA RESULT:      -8.3      1.531      2.119
REMARK  Name = 
REMARK  6 active torsions:
REMARK  status: ('A' for Active; 'I' for Inactive)
REMARK    1  A    between atoms: C_1  and  O_2
REMARK    2  A    between atoms: O_2  and  C_3
REMARK    3  A    between atoms: C_7  and  N_8
REMARK    4  A    between atoms: N_11  and  C_12
REMARK    5  A    between atoms: N_16  and  C_17
REMARK    6  A    between atoms: C_17  and  C_18
REMARK                            x       y       z     vdW  Elec       q    Type
REMARK                         _______ _______ _______ _____ _____    ______ ____
ROOT
ATOM      1  C   UNL     1       6.957   5.661  17.727  0.00  0.00    +0.000 A 
ATOM      2  C   UNL     1       7.363   5.020  16.618  0.00  0.00    +0.000 A 
ATOM      3  C   UNL     1       6.442   4.313  15.773  0.00  0.00    +0.000 A 
ATOM      4  C   UNL     1       5.136   4.327  16.056  0.00  0.00    +0.000 A 
ATOM      5  N   UNL     1       4.650   4.946  17.196  0.00  0.00    +0.000 N 
ATOM      6  C   UNL     1       5.504   5.553  18.127  0.00  0.00    +0.000 A 
ATOM      7  O   UNL     1       5.144   6.028  19.206  0.00  0.00    +0.000 OA
ENDROOT
BRANCH   1  11
ATOM      8  N   UNL     1       8.843   8.431  19.106  0.00  0.00    +0.000 N 
ATOM      9  C   UNL     1       7.908   7.818  18.288  0.00  0.00    +0.000 C 
ATOM     10  O   UNL     1       7.241   8.409  17.440  0.00  0.00    +0.000 OA
ATOM     11  N   UNL     1       7.780   6.458  18.514  0.00  0.00    +0.000 N 
ATOM     12  H   UNL     1       9.170   7.916  19.908  0.00  0.00    +0.000 HD
ATOM     13  H   UNL     1       7.905   6.122  19.463  0.00  0.00    +0.000 HD
BRANCH   8  18
ATOM     14  C   UNL     1       9.672  11.892  20.169  0.00  0.00    +0.000 A 
ATOM     15  C   UNL     1       9.709  12.558  18.941  0.00  0.00    +0.000 A 
ATOM     16  C   UNL     1       9.512  11.860  17.758  0.00  0.00    +0.000 A 
ATOM     17  C   UNL     1       9.254  10.491  17.802  0.00  0.00    +0.000 A 
ATOM     18  C   UNL     1       9.176   9.807  19.023  0.00  0.00    +0.000 A 
ATOM     19  C   UNL     1       9.423  10.513  20.208  0.00  0.00    +0.000 A 
BRANCH  14  21
ATOM     20  C   UNL     1       8.934  12.619  22.309  0.00  0.00    +0.000 C 
ATOM     21  O   UNL     1       9.875  12.707  21.249  0.00  0.00    +0.000 OA
ENDBRANCH  14  21
ENDBRANCH   8  18
ENDBRANCH   1  11
BRANCH   5  22
ATOM     22  C   UNL     1       3.214   4.918  17.456  0.00  0.00    +0.000 C 
BRANCH  22  23
ATOM     23  C   UNL     1       2.822   4.247  18.759  0.00  0.00    +0.000 A 
ATOM     24  C   UNL     1       1.860   4.832  19.603  0.00  0.00    +0.000 A 
ATOM     25  C   UNL     1       1.389   4.147  20.727  0.00  0.00    +0.000 A 
ATOM     26  C   UNL     1       1.885   2.883  21.018  0.00  0.00    +0.000 A 
ATOM     27  F   UNL     1       1.400   2.209  22.070  0.00  0.00    +0.000 F 
ATOM     28  C   UNL     1       2.865   2.302  20.224  0.00  0.00    +0.000 A 
ATOM     29  C   UNL     1       3.336   2.984  19.099  0.00  0.00    +0.000 A 
ENDBRANCH  22  23
ENDBRANCH   5  22
TORSDOF 5
ENDMDL
MODEL 7
REMARK VINA RESULT:      -8.3      1.546      2.094
REMARK  Name = 
REMARK  6 active torsions:
REMARK  status: ('A' for Active; 'I' for Inactive)
REMARK    1  A    between atoms: C_1  and  O_2
REMARK    2  A    between atoms: O_2  and  C_3
REMARK    3  A    between atoms: C_7  and  N_8
REMARK    4  A    between atoms: N_11  and  C_12
REMARK    5  A    between atoms: N_16  and  C_17
REMARK    6  A    between atoms: C_17  and  C_18
REMARK                            x       y       z     vdW  Elec       q    Type
REMARK                         _______ _______ _______ _____ _____    ______ ____
ROOT
ATOM      1  C   UNL     1       6.957   5.528  17.677  0.00  0.00    +0.000 A 
ATOM      2  C   UNL     1       7.406   4.825  16.624  0.00  0.00    +0.000 A 
ATOM      3  C   UNL     1       6.517   4.077  15.779  0.00  0.00    +0.000 A 
ATOM      4  C   UNL     1       5.200   4.115  16.003  0.00  0.00    +0.000 A 
ATOM      5  N   UNL     1       4.670   4.798  17.085  0.00  0.00    +0.000 N 
ATOM      6  C   UNL     1       5.487   5.450  18.018  0.00  0.00    +0.000 A 
ATOM      7  O   UNL     1       5.084   5.986  19.052  0.00  0.00    +0.000 OA
ENDROOT
BRANCH   1  11
ATOM      8  N   UNL     1       8.753   8.375  19.019  0.00  0.00    +0.000 N 
ATOM      9  C   UNL     1       7.841   7.720  18.206  0.00  0.00    +0.000 C 
ATOM     10  O   UNL     1       7.163   8.277  17.345  0.00  0.00    +0.000 OA
ATOM     11  N   UNL     1       7.752   6.362  18.455  0.00  0.00    +0.000 N 
ATOM     12  H   UNL     1       9.089   7.883  19.833  0.00  0.00    +0.000 HD
ATOM     13  H   UNL     1       7.880   6.046  19.410  0.00  0.00    +0.000 HD
BRANCH   8  18
ATOM     14  C   UNL     1       9.928  11.774  19.948  0.00  0.00    +0.000 A 
ATOM     15  C   UNL     1       9.538  12.517  18.831  0.00  0.00    +0.000 A 
ATOM     16  C   UNL     1       8.935  11.892  17.748  0.00  0.00    +0.000 A 
ATOM     17  C   UNL     1       8.698  10.520  17.791  0.00  0.00    +0.000 A 
ATOM     18  C   UNL     1       9.047   9.758  18.914  0.00  0.00    +0.000 A 
ATOM     19  C   UNL     1       9.697  10.391  19.982  0.00  0.00    +0.000 A 
BRANCH  14  21
ATOM     20  C   UNL     1       9.711  13.556  21.507  0.00  0.00    +0.000 C 
ATOM     21  O   UNL     1      10.501  12.522  20.940  0.00  0.00    +0.000 OA
ENDBRANCH  14  21
ENDBRANCH   8  18
ENDBRANCH   1  11
BRANCH   5  22
ATOM     22  C   UNL     1       3.224   4.793  17.282  0.00  0.00    +0.000 C 
BRANCH  22  23
ATOM     23  C   UNL     1       2.756   4.010  18.494  0.00  0.00    +0.000 A 
ATOM     24  C   UNL     1       3.451   2.860  18.914  0.00  0.00    +0.000 A 
ATOM     25  C   UNL     1       3.114   2.223  20.112  0.00  0.00    +0.000 A 
ATOM     26  C   UNL     1       2.076   2.722  20.887  0.00  0.00    +0.000 A 
ATOM     27  F   UNL     1       1.783   2.137  22.056  0.00  0.00    +0.000 F 
ATOM     28  C   UNL     1       1.348   3.830  20.474  0.00  0.00    +0.000 A 
ATOM     29  C   UNL     1       1.684   4.471  19.277  0.00  0.00    +0.000 A 
ENDBRANCH  22  23
ENDBRANCH   5  22
TORSDOF 5
ENDMDL
MODEL 8
REMARK VINA RESULT:      -8.3      1.709      2.153
REMARK  Name = 
REMARK  6 active torsions:
REMARK  status: ('A' for Active; 'I' for Inactive)
REMARK    1  A    between atoms: C_1  and  O_2
REMARK    2  A    between atoms: O_2  and  C_3
REMARK    3  A    between atoms: C_7  and  N_8
REMARK    4  A    between atoms: N_11  and  C_12
REMARK    5  A    between atoms: N_16  and  C_17
REMARK    6  A    between atoms: C_17  and  C_18
REMARK                            x       y       z     vdW  Elec       q    Type
REMARK                         _______ _______ _______ _____ _____    ______ ____
ROOT
ATOM      1  C   UNL     1       7.382   7.286  17.735  0.00  0.00    +0.000 A 
ATOM      2  C   UNL     1       7.967   6.558  18.701  0.00  0.00    +0.000 A 
ATOM      3  C   UNL     1       7.577   5.202  18.969  0.00  0.00    +0.000 A 
ATOM      4  C   UNL     1       6.645   4.619  18.210  0.00  0.00    +0.000 A 
ATOM      5  N   UNL     1       5.982   5.316  17.214  0.00  0.00    +0.000 N 
ATOM      6  C   UNL     1       6.227   6.675  16.976  0.00  0.00    +0.000 A 
ATOM      7  O   UNL     1       5.602   7.373  16.176  0.00  0.00    +0.000 OA
ENDROOT
BRANCH   1  11
ATOM      8  N   UNL     1       8.793  10.623  17.688  0.00  0.00    +0.000 N 
ATOM      9  C   UNL     1       8.552   9.356  18.196  0.00  0.00    +0.000 C 
ATOM     10  O   UNL     1       8.964   8.962  19.285  0.00  0.00    +0.000 OA
ATOM     11  N   UNL     1       7.799   8.556  17.354  0.00  0.00    +0.000 N 
ATOM     12  H   UNL     1       8.610  10.776  16.708  0.00  0.00    +0.000 HD
ATOM     13  H   UNL     1       7.921   8.674  16.354  0.00  0.00    +0.000 HD
BRANCH   8  18
ATOM     14  C   UNL     1       9.516  13.853  19.374  0.00  0.00    +0.000 A 
ATOM     15  C   UNL     1      10.875  13.715  19.666  0.00  0.00    +0.000 A 
ATOM     16  C   UNL     1      11.544  12.539  19.356  0.00  0.00    +0.000 A 
ATOM     17  C   UNL     1      10.857  11.503  18.729  0.00  0.00    +0.000 A 
ATOM     18  C   UNL     1       9.502  11.629  18.392  0.00  0.00    +0.000 A 
ATOM     19  C   UNL     1       8.825  12.803  18.752  0.00  0.00    +0.000 A 
BRANCH  14  21
ATOM     20  C   UNL     1       7.814  15.482  19.054  0.00  0.00    +0.000 C 
ATOM     21  O   UNL     1       8.991  15.066  19.729  0.00  0.00    +0.000 OA
ENDBRANCH  14  21
ENDBRANCH   8  18
ENDBRANCH   1  11
BRANCH   5  22
ATOM     22  C   UNL     1       4.966   4.625  16.426  0.00  0.00    +0.000 C 
BRANCH  22  23
ATOM     23  C   UNL     1       3.807   4.074  17.236  0.00  0.00    +0.000 A 
ATOM     24  C   UNL     1       2.814   4.934  17.739  0.00  0.00    +0.000 A 
ATOM     25  C   UNL     1       1.671   4.417  18.356  0.00  0.00    +0.000 A 
ATOM     26  C   UNL     1       1.523   3.042  18.484  0.00  0.00    +0.000 A 
ATOM     27  F   UNL     1       0.406   2.547  19.036  0.00  0.00    +0.000 F 
ATOM     28  C   UNL     1       2.507   2.175  18.033  0.00  0.00    +0.000 A 
ATOM     29  C   UNL     1       3.650   2.688  17.414  0.00  0.00    +0.000 A 
ENDBRANCH  22  23
ENDBRANCH   5  22
TORSDOF 5
ENDMDL
MODEL 9
REMARK VINA RESULT:      -8.2      2.004      2.634
REMARK  Name = 
REMARK  6 active torsions:
REMARK  status: ('A' for Active; 'I' for Inactive)
REMARK    1  A    between atoms: C_1  and  O_2
REMARK    2  A    between atoms: O_2  and  C_3
REMARK    3  A    between atoms: C_7  and  N_8
REMARK    4  A    between atoms: N_11  and  C_12
REMARK    5  A    between atoms: N_16  and  C_17
REMARK    6  A    between atoms: C_17  and  C_18
REMARK                            x       y       z     vdW  Elec       q    Type
REMARK                         _______ _______ _______ _____ _____    ______ ____
ROOT
ATOM      1  C   UNL     1       7.256   5.935  17.647  0.00  0.00    +0.000 A 
ATOM      2  C   UNL     1       7.278   5.823  16.308  0.00  0.00    +0.000 A 
ATOM      3  C   UNL     1       6.285   5.068  15.595  0.00  0.00    +0.000 A 
ATOM      4  C   UNL     1       5.277   4.500  16.264  0.00  0.00    +0.000 A 
ATOM      5  N   UNL     1       5.205   4.553  17.646  0.00  0.00    +0.000 N 
ATOM      6  C   UNL     1       6.202   5.170  18.414  0.00  0.00    +0.000 A 
ATOM      7  O   UNL     1       6.247   5.163  19.645  0.00  0.00    +0.000 OA
ENDROOT
BRANCH   1  11
ATOM      8  N   UNL     1       9.052   8.769  19.016  0.00  0.00    +0.000 N 
ATOM      9  C   UNL     1       8.057   8.128  18.296  0.00  0.00    +0.000 C 
ATOM     10  O   UNL     1       7.191   8.712  17.646  0.00  0.00    +0.000 OA
ATOM     11  N   UNL     1       8.117   6.747  18.376  0.00  0.00    +0.000 N 
ATOM     12  H   UNL     1       9.569   8.222  19.686  0.00  0.00    +0.000 HD
ATOM     13  H   UNL     1       8.443   6.337  19.245  0.00  0.00    +0.000 HD
BRANCH   8  18
ATOM     14  C   UNL     1       9.552  12.200  20.349  0.00  0.00    +0.000 A 
ATOM     15  C   UNL     1       9.421  12.969  19.191  0.00  0.00    +0.000 A 
ATOM     16  C   UNL     1       9.220  12.358  17.961  0.00  0.00    +0.000 A 
ATOM     17  C   UNL     1       9.126  10.970  17.891  0.00  0.00    +0.000 A 
ATOM     18  C   UNL     1       9.217  10.177  19.043  0.00  0.00    +0.000 A 
ATOM     19  C   UNL     1       9.467  10.802  20.272  0.00  0.00    +0.000 A 
BRANCH  14  21
ATOM     20  C   UNL     1      10.031  14.316  21.322  0.00  0.00    +0.000 C 
ATOM     21  O   UNL     1       9.739  12.936  21.487  0.00  0.00    +0.000 OA
ENDBRANCH  14  21
ENDBRANCH   8  18
ENDBRANCH   1  11
BRANCH   5  22
ATOM     22  C   UNL     1       4.085   3.904  18.320  0.00  0.00    +0.000 C 
BRANCH  22  23
ATOM     23  C   UNL     1       3.137   4.855  19.026  0.00  0.00    +0.000 A 
ATOM     24  C   UNL     1       2.419   4.436  20.161  0.00  0.00    +0.000 A 
ATOM     25  C   UNL     1       1.661   5.349  20.901  0.00  0.00    +0.000 A 
ATOM     26  C   UNL     1       1.608   6.679  20.502  0.00  0.00    +0.000 A 
ATOM     27  F   UNL     1       0.918   7.561  21.237  0.00  0.00    +0.000 F 
ATOM     28  C   UNL     1       2.275   7.108  19.363  0.00  0.00    +0.000 A 
ATOM     29  C   UNL     1       3.035   6.198  18.623  0.00  0.00    +0.000 A 
ENDBRANCH  22  23
ENDBRANCH   5  22
TORSDOF 5
ENDMDL
