MODEL 1
REMARK VINA RESULT:      -8.5      0.000      0.000
REMARK  Name = 
REMARK  11 active torsions:
REMARK  status: ('A' for Active; 'I' for Inactive)
REMARK    1  A    between atoms: C_1  and  O_2
REMARK    2  A    between atoms: O_2  and  C_3
REMARK    3  A    between atoms: C_6  and  N_7
REMARK    4  A    between atoms: N_7  and  C_8
REMARK    5  A    between atoms: N_7  and  C_9
REMARK    6  A    between atoms: C_11  and  C_12
REMARK    7  A    between atoms: C_21  and  O_22
REMARK    8  A    between atoms: O_22  and  C_23
REMARK    9  A    between atoms: C_23  and  C_24
REMARK   10  A    between atoms: C_24  and  SE_25
REMARK   11  A    between atoms: SE_25  and  C_26
REMARK                            x       y       z     vdW  Elec       q    Type
REMARK                         _______ _______ _______ _____ _____    ______ ____
ROOT
ATOM      1  C   UNL     1       6.625   5.248  16.260  0.00  0.00    +0.000 A 
ATOM      2  C   UNL     1       5.671   4.294  16.525  0.00  0.00    +0.000 A 
ATOM      3  C   UNL     1       4.613   4.594  17.390  0.00  0.00    +0.000 A 
ATOM      4  C   UNL     1       4.500   5.677  18.290  0.00  0.00    +0.000 A 
ATOM      5  C   UNL     1       5.576   6.626  17.963  0.00  0.00    +0.000 A 
ATOM      6  C   UNL     1       6.596   6.429  17.010  0.00  0.00    +0.000 A 
ENDROOT
BRANCH   1   8
ATOM      7  C   UNL     1       7.246   4.885  13.948  0.00  0.00    +0.000 C 
ATOM      8  O   UNL     1       7.528   4.976  15.278  0.00  0.00    +0.000 OA
ENDBRANCH   1   8
BRANCH   4   9
ATOM      9  N   UNL     1       3.198   5.757  19.650  0.00  0.00    +0.000 N 
ATOM     10  C   UNL     1       3.093   4.558  20.023  0.00  0.00    +0.000 C 
BRANCH   9  11
ATOM     11  C   UNL     1       1.907   7.209  20.587  0.00  0.00    +0.000 A 
ATOM     12  N   UNL     1       1.937   7.720  19.831  0.00  0.00    +0.000 NA
ATOM     13  C   UNL     1       1.300   8.550  20.174  0.00  0.00    +0.000 A 
ATOM     14  C   UNL     1       1.323   9.362  19.269  0.00  0.00    +0.000 C 
ATOM     15  N   UNL     1       0.562   9.111  21.040  0.00  0.00    +0.000 NA
ATOM     16  C   UNL     1      -0.131   9.866  21.601  0.00  0.00    +0.000 A 
ATOM     17  C   UNL     1      -0.410  10.899  20.823  0.00  0.00    +0.000 A 
ATOM     18  C   UNL     1      -0.906  12.019  21.025  0.00  0.00    +0.000 A 
ATOM     19  C   UNL     1      -1.576  12.078  22.146  0.00  0.00    +0.000 A 
ATOM     20  C   UNL     1      -1.304  10.811  23.160  0.00  0.00    +0.000 A 
ATOM     21  C   UNL     1      -0.108   9.469  22.188  0.00  0.00    +0.000 A 
ENDBRANCH   9  11
ENDBRANCH   4   9
BRANCH   6  22
ATOM     22  O   UNL     1       7.565   7.334  16.858  0.00  0.00    +0.000 OA
BRANCH  22  23
ATOM     23  C   UNL     1       7.749   8.523  17.471  0.00  0.00    +0.000 C 
BRANCH  23  24
ATOM     24  C   UNL     1       8.596   8.697  18.680  0.00  0.00    +0.000 C 
BRANCH  24  25
ATOM     25 SE   UNL     1       9.485  10.437  18.958  0.00  0.00    +0.000 Se
BRANCH  25  26
ATOM     26  C   UNL     1       8.510  11.789  17.873  0.00  0.00    +0.000 C 
ATOM     27  N   UNL     1       8.015  12.645  17.229  0.00  0.00    +0.000 NA
ENDBRANCH  25  26
ENDBRANCH  24  25
ENDBRANCH  23  24
ENDBRANCH  22  23
ENDBRANCH   6  22
TORSDOF 8
ENDMDL
MODEL 2
REMARK VINA RESULT:      -8.3      5.191      9.982
REMARK  Name = 
REMARK  11 active torsions:
REMARK  status: ('A' for Active; 'I' for Inactive)
REMARK    1  A    between atoms: C_1  and  O_2
REMARK    2  A    between atoms: O_2  and  C_3
REMARK    3  A    between atoms: C_6  and  N_7
REMARK    4  A    between atoms: N_7  and  C_8
REMARK    5  A    between atoms: N_7  and  C_9
REMARK    6  A    between atoms: C_11  and  C_12
REMARK    7  A    between atoms: C_21  and  O_22
REMARK    8  A    between atoms: O_22  and  C_23
REMARK    9  A    between atoms: C_23  and  C_24
REMARK   10  A    between atoms: C_24  and  SE_25
REMARK   11  A    between atoms: SE_25  and  C_26
REMARK                            x       y       z     vdW  Elec       q    Type
REMARK                         _______ _______ _______ _____ _____    ______ ____
ROOT
ATOM      1  C   UNL     1      -3.842  11.454  18.310  0.00  0.00    +0.000 A 
ATOM      2  C   UNL     1      -3.170  10.682  17.392  0.00  0.00    +0.000 A 
ATOM      3  C   UNL     1      -1.834  10.337  17.622  0.00  0.00    +0.000 A 
ATOM      4  C   UNL     1      -0.934  10.899  18.555  0.00  0.00    +0.000 A 
ATOM      5  C   UNL     1      -1.727  11.736  19.470  0.00  0.00    +0.000 A 
ATOM      6  C   UNL     1      -3.104  12.016  19.358  0.00  0.00    +0.000 A 
ENDROOT
BRANCH   1   8
ATOM      7  C   UNL     1      -6.141  10.736  18.552  0.00  0.00    +0.000 C 
ATOM      8  O   UNL     1      -5.183  11.611  18.136  0.00  0.00    +0.000 OA
ENDBRANCH   1   8
BRANCH   4   9
ATOM      9  N   UNL     1       0.925  10.596  18.507  0.00  0.00    +0.000 N 
ATOM     10  C   UNL     1       1.404  11.652  19.002  0.00  0.00    +0.000 C 
BRANCH   9  11
ATOM     11  C   UNL     1       2.315   9.097  17.821  0.00  0.00    +0.000 A 
ATOM     12  N   UNL     1       2.026   8.532  18.477  0.00  0.00    +0.000 NA
ATOM     13  C   UNL     1       2.686   7.679  18.255  0.00  0.00    +0.000 A 
ATOM     14  C   UNL     1       2.457   6.865  19.128  0.00  0.00    +0.000 C 
ATOM     15  N   UNL     1       3.582   7.107  17.563  0.00  0.00    +0.000 NA
ATOM     16  C   UNL     1       4.360   6.338  17.152  0.00  0.00    +0.000 A 
ATOM     17  C   UNL     1       4.313   5.218  17.855  0.00  0.00    +0.000 A 
ATOM     18  C   UNL     1       5.055   4.226  17.946  0.00  0.00    +0.000 A 
ATOM     19  C   UNL     1       5.867   4.111  16.927  0.00  0.00    +0.000 A 
ATOM     20  C   UNL     1       5.960   5.456  15.985  0.00  0.00    +0.000 A 
ATOM     21  C   UNL     1       4.592   6.808  16.675  0.00  0.00    +0.000 A 
ENDBRANCH   9  11
ENDBRANCH   4   9
BRANCH   6  22
ATOM     22  O   UNL     1      -3.695  12.856  20.209  0.00  0.00    +0.000 OA
BRANCH  22  23
ATOM     23  C   UNL     1      -4.283  12.618  21.401  0.00  0.00    +0.000 C 
BRANCH  23  24
ATOM     24  C   UNL     1      -3.765  13.150  22.689  0.00  0.00    +0.000 C 
BRANCH  24  25
ATOM     25 SE   UNL     1      -1.817  13.113  23.003  0.00  0.00    +0.000 Se
BRANCH  25  26
ATOM     26  C   UNL     1      -1.263  11.206  23.110  0.00  0.00    +0.000 C 
ATOM     27  N   UNL     1      -0.874  10.092  23.098  0.00  0.00    +0.000 NA
ENDBRANCH  25  26
ENDBRANCH  24  25
ENDBRANCH  23  24
ENDBRANCH  22  23
ENDBRANCH   6  22
TORSDOF 8
ENDMDL
MODEL 3
REMARK VINA RESULT:      -8.3      2.446      3.906
REMARK  Name = 
REMARK  11 active torsions:
REMARK  status: ('A' for Active; 'I' for Inactive)
REMARK    1  A    between atoms: C_1  and  O_2
REMARK    2  A    between atoms: O_2  and  C_3
REMARK    3  A    between atoms: C_6  and  N_7
REMARK    4  A    between atoms: N_7  and  C_8
REMARK    5  A    between atoms: N_7  and  C_9
REMARK    6  A    between atoms: C_11  and  C_12
REMARK    7  A    between atoms: C_21  and  O_22
REMARK    8  A    between atoms: O_22  and  C_23
REMARK    9  A    between atoms: C_23  and  C_24
REMARK   10  A    between atoms: C_24  and  SE_25
REMARK   11  A    between atoms: SE_25  and  C_26
REMARK                            x       y       z     vdW  Elec       q    Type
REMARK                         _______ _______ _______ _____ _____    ______ ____
ROOT
ATOM      1  C   UNL     1       3.771   4.226  18.941  0.00  0.00    +0.000 A 
ATOM      2  C   UNL     1       3.243   4.853  20.044  0.00  0.00    +0.000 A 
ATOM      3  C   UNL     1       2.535   6.050  19.888  0.00  0.00    +0.000 A 
ATOM      4  C   UNL     1       2.498   6.903  18.763  0.00  0.00    +0.000 A 
ATOM      5  C   UNL     1       3.114   6.171  17.644  0.00  0.00    +0.000 A 
ATOM      6  C   UNL     1       3.731   4.906  17.719  0.00  0.00    +0.000 A 
ENDROOT
BRANCH   1   8
ATOM      7  C   UNL     1       3.638   1.809  18.867  0.00  0.00    +0.000 C 
ATOM      8  O   UNL     1       4.290   2.979  19.117  0.00  0.00    +0.000 OA
ENDBRANCH   1   8
BRANCH   4   9
ATOM      9  N   UNL     1       1.805   8.654  18.817  0.00  0.00    +0.000 N 
ATOM     10  C   UNL     1       2.237   9.171  17.752  0.00  0.00    +0.000 C 
BRANCH   9  11
ATOM     11  C   UNL     1       0.646   9.908  20.135  0.00  0.00    +0.000 A 
ATOM     12  N   UNL     1       0.069  10.089  19.451  0.00  0.00    +0.000 NA
ATOM     13  C   UNL     1      -0.613  10.764  19.992  0.00  0.00    +0.000 A 
ATOM     14  C   UNL     1      -1.403  11.154  19.155  0.00  0.00    +0.000 C 
ATOM     15  N   UNL     1      -0.993  11.366  21.042  0.00  0.00    +0.000 NA
ATOM     16  C   UNL     1      -1.575  12.038  21.798  0.00  0.00    +0.000 A 
ATOM     17  C   UNL     1      -2.629  12.583  21.212  0.00  0.00    +0.000 A 
ATOM     18  C   UNL     1      -3.405  13.503  21.518  0.00  0.00    +0.000 A 
ATOM     19  C   UNL     1      -3.383  13.775  22.797  0.00  0.00    +0.000 A 
ATOM     20  C   UNL     1      -2.115  13.109  23.605  0.00  0.00    +0.000 A 
ATOM     21  C   UNL     1      -1.093  11.912  22.302  0.00  0.00    +0.000 A 
ENDBRANCH   9  11
ENDBRANCH   4   9
BRANCH   6  22
ATOM     22  O   UNL     1       4.325   4.378  16.647  0.00  0.00    +0.000 OA
BRANCH  22  23
ATOM     23  C   UNL     1       5.489   4.706  16.046  0.00  0.00    +0.000 C 
BRANCH  23  24
ATOM     24  C   UNL     1       6.823   4.339  16.592  0.00  0.00    +0.000 C 
BRANCH  24  25
ATOM     25 SE   UNL     1       7.475   5.293  18.191  0.00  0.00    +0.000 Se
BRANCH  25  26
ATOM     26  C   UNL     1       7.619   7.221  17.722  0.00  0.00    +0.000 C 
ATOM     27  N   UNL     1       7.663   8.342  17.357  0.00  0.00    +0.000 NA
ENDBRANCH  25  26
ENDBRANCH  24  25
ENDBRANCH  23  24
ENDBRANCH  22  23
ENDBRANCH   6  22
TORSDOF 8
ENDMDL
MODEL 4
REMARK VINA RESULT:      -8.2      2.728      4.659
REMARK  Name = 
REMARK  11 active torsions:
REMARK  status: ('A' for Active; 'I' for Inactive)
REMARK    1  A    between atoms: C_1  and  O_2
REMARK    2  A    between atoms: O_2  and  C_3
REMARK    3  A    between atoms: C_6  and  N_7
REMARK    4  A    between atoms: N_7  and  C_8
REMARK    5  A    between atoms: N_7  and  C_9
REMARK    6  A    between atoms: C_11  and  C_12
REMARK    7  A    between atoms: C_21  and  O_22
REMARK    8  A    between atoms: O_22  and  C_23
REMARK    9  A    between atoms: C_23  and  C_24
REMARK   10  A    between atoms: C_24  and  SE_25
REMARK   11  A    between atoms: SE_25  and  C_26
REMARK                            x       y       z     vdW  Elec       q    Type
REMARK                         _______ _______ _______ _____ _____    ______ ____
ROOT
ATOM      1  C   UNL     1       3.061   4.514  19.946  0.00  0.00    +0.000 A 
ATOM      2  C   UNL     1       2.189   5.196  20.761  0.00  0.00    +0.000 A 
ATOM      3  C   UNL     1       1.646   6.411  20.331  0.00  0.00    +0.000 A 
ATOM      4  C   UNL     1       2.071   7.228  19.259  0.00  0.00    +0.000 A 
ATOM      5  C   UNL     1       3.026   6.438  18.465  0.00  0.00    +0.000 A 
ATOM      6  C   UNL     1       3.512   5.154  18.786  0.00  0.00    +0.000 A 
ENDROOT
BRANCH   1   8
ATOM      7  C   UNL     1       2.730   2.116  20.033  0.00  0.00    +0.000 C 
ATOM      8  O   UNL     1       3.420   3.256  20.324  0.00  0.00    +0.000 OA
ENDBRANCH   1   8
BRANCH   4   9
ATOM      9  N   UNL     1       1.488   9.004  19.020  0.00  0.00    +0.000 N 
ATOM     10  C   UNL     1       2.214   9.424  18.080  0.00  0.00    +0.000 C 
BRANCH   9  11
ATOM     11  C   UNL     1       0.096  10.395  19.903  0.00  0.00    +0.000 A 
ATOM     12  N   UNL     1       0.151   9.944  20.694  0.00  0.00    +0.000 NA
ATOM     13  C   UNL     1      -0.552  10.560  21.277  0.00  0.00    +0.000 A 
ATOM     14  C   UNL     1      -0.638  10.006  22.356  0.00  0.00    +0.000 C 
ATOM     15  N   UNL     1      -1.339  11.546  21.401  0.00  0.00    +0.000 NA
ATOM     16  C   UNL     1      -2.102  12.325  21.822  0.00  0.00    +0.000 A 
ATOM     17  C   UNL     1      -2.367  12.067  23.093  0.00  0.00    +0.000 A 
ATOM     18  C   UNL     1      -3.239  12.456  23.887  0.00  0.00    +0.000 A 
ATOM     19  C   UNL     1      -3.809  13.569  23.502  0.00  0.00    +0.000 A 
ATOM     20  C   UNL     1      -3.504  13.975  21.937  0.00  0.00    +0.000 A 
ATOM     21  C   UNL     1      -2.155  12.636  21.188  0.00  0.00    +0.000 A 
ENDBRANCH   9  11
ENDBRANCH   4   9
BRANCH   6  22
ATOM     22  O   UNL     1       4.438   4.570  18.024  0.00  0.00    +0.000 OA
BRANCH  22  23
ATOM     23  C   UNL     1       4.325   3.983  16.813  0.00  0.00    +0.000 C 
BRANCH  23  24
ATOM     24  C   UNL     1       5.230   4.281  15.672  0.00  0.00    +0.000 C 
BRANCH  24  25
ATOM     25 SE   UNL     1       7.120   4.695  16.059  0.00  0.00    +0.000 Se
BRANCH  25  26
ATOM     26  C   UNL     1       7.184   6.514  16.860  0.00  0.00    +0.000 C 
ATOM     27  N   UNL     1       7.318   7.579  17.351  0.00  0.00    +0.000 NA
ENDBRANCH  25  26
ENDBRANCH  24  25
ENDBRANCH  23  24
ENDBRANCH  22  23
ENDBRANCH   6  22
TORSDOF 8
ENDMDL
MODEL 5
REMARK VINA RESULT:      -8.2      4.525      6.941
REMARK  Name = 
REMARK  11 active torsions:
REMARK  status: ('A' for Active; 'I' for Inactive)
REMARK    1  A    between atoms: C_1  and  O_2
REMARK    2  A    between atoms: O_2  and  C_3
REMARK    3  A    between atoms: C_6  and  N_7
REMARK    4  A    between atoms: N_7  and  C_8
REMARK    5  A    between atoms: N_7  and  C_9
REMARK    6  A    between atoms: C_11  and  C_12
REMARK    7  A    between atoms: C_21  and  O_22
REMARK    8  A    between atoms: O_22  and  C_23
REMARK    9  A    between atoms: C_23  and  C_24
REMARK   10  A    between atoms: C_24  and  SE_25
REMARK   11  A    between atoms: SE_25  and  C_26
REMARK                            x       y       z     vdW  Elec       q    Type
REMARK                         _______ _______ _______ _____ _____    ______ ____
ROOT
ATOM      1  C   UNL     1       2.956   7.037  18.285  0.00  0.00    +0.000 A 
ATOM      2  C   UNL     1       2.782   8.134  17.476  0.00  0.00    +0.000 A 
ATOM      3  C   UNL     1       2.164   9.281  17.988  0.00  0.00    +0.000 A 
ATOM      4  C   UNL     1       1.413   9.412  19.177  0.00  0.00    +0.000 A 
ATOM      5  C   UNL     1       1.626   8.184  19.961  0.00  0.00    +0.000 A 
ATOM      6  C   UNL     1       2.346   7.047  19.544  0.00  0.00    +0.000 A 
ENDROOT
BRANCH   1   8
ATOM      7  C   UNL     1       3.251   4.809  17.384  0.00  0.00    +0.000 C 
ATOM      8  O   UNL     1       3.720   6.018  17.803  0.00  0.00    +0.000 OA
ENDBRANCH   1   8
BRANCH   4   9
ATOM      9  N   UNL     1       0.336  10.911  19.558  0.00  0.00    +0.000 N 
ATOM     10  C   UNL     1       1.161  11.757  19.995  0.00  0.00    +0.000 C 
BRANCH   9  11
ATOM     11  C   UNL     1      -1.745  11.474  19.521  0.00  0.00    +0.000 A 
ATOM     12  N   UNL     1      -1.781  11.277  18.631  0.00  0.00    +0.000 NA
ATOM     13  C   UNL     1      -2.835  11.538  18.451  0.00  0.00    +0.000 A 
ATOM     14  C   UNL     1      -2.998  11.397  17.255  0.00  0.00    +0.000 C 
ATOM     15  N   UNL     1      -3.974  11.931  18.847  0.00  0.00    +0.000 NA
ATOM     16  C   UNL     1      -5.095  12.257  18.886  0.00  0.00    +0.000 A 
ATOM     17  C   UNL     1      -5.653  12.130  17.693  0.00  0.00    +0.000 A 
ATOM     18  C   UNL     1      -6.715  12.532  17.191  0.00  0.00    +0.000 A 
ATOM     19  C   UNL     1      -7.600  12.870  18.092  0.00  0.00    +0.000 A 
ATOM     20  C   UNL     1      -6.990  13.022  19.612  0.00  0.00    +0.000 A 
ATOM     21  C   UNL     1      -5.033  12.437  19.569  0.00  0.00    +0.000 A 
ENDBRANCH   9  11
ENDBRANCH   4   9
BRANCH   6  22
ATOM     22  O   UNL     1       2.403   5.961  20.317  0.00  0.00    +0.000 OA
BRANCH  22  23
ATOM     23  C   UNL     1       1.415   5.154  20.759  0.00  0.00    +0.000 C 
BRANCH  23  24
ATOM     24  C   UNL     1       1.589   3.694  20.982  0.00  0.00    +0.000 C 
BRANCH  24  25
ATOM     25 SE   UNL     1       1.132   2.462  19.510  0.00  0.00    +0.000 Se
BRANCH  25  26
ATOM     26  C   UNL     1       2.836   1.737  18.785  0.00  0.00    +0.000 C 
ATOM     27  N   UNL     1       3.794   1.263  18.283  0.00  0.00    +0.000 NA
ENDBRANCH  25  26
ENDBRANCH  24  25
ENDBRANCH  23  24
ENDBRANCH  22  23
ENDBRANCH   6  22
TORSDOF 8
ENDMDL
MODEL 6
REMARK VINA RESULT:      -8.2      3.400      5.325
REMARK  Name = 
REMARK  11 active torsions:
REMARK  status: ('A' for Active; 'I' for Inactive)
REMARK    1  A    between atoms: C_1  and  O_2
REMARK    2  A    between atoms: O_2  and  C_3
REMARK    3  A    between atoms: C_6  and  N_7
REMARK    4  A    between atoms: N_7  and  C_8
REMARK    5  A    between atoms: N_7  and  C_9
REMARK    6  A    between atoms: C_11  and  C_12
REMARK    7  A    between atoms: C_21  and  O_22
REMARK    8  A    between atoms: O_22  and  C_23
REMARK    9  A    between atoms: C_23  and  C_24
REMARK   10  A    between atoms: C_24  and  SE_25
REMARK   11  A    between atoms: SE_25  and  C_26
REMARK                            x       y       z     vdW  Elec       q    Type
REMARK                         _______ _______ _______ _____ _____    ______ ____
ROOT
ATOM      1  C   UNL     1       4.347   5.260  16.741  0.00  0.00    +0.000 A 
ATOM      2  C   UNL     1       4.585   6.564  17.104  0.00  0.00    +0.000 A 
ATOM      3  C   UNL     1       3.889   7.121  18.182  0.00  0.00    +0.000 A 
ATOM      4  C   UNL     1       2.732   6.627  18.825  0.00  0.00    +0.000 A 
ATOM      5  C   UNL     1       2.531   5.247  18.353  0.00  0.00    +0.000 A 
ATOM      6  C   UNL     1       3.283   4.592  17.357  0.00  0.00    +0.000 A 
ENDROOT
BRANCH   1   8
ATOM      7  C   UNL     1       6.490   5.015  15.639  0.00  0.00    +0.000 C 
ATOM      8  O   UNL     1       5.173   4.707  15.810  0.00  0.00    +0.000 OA
ENDBRANCH   1   8
BRANCH   4   9
ATOM      9  N   UNL     1       1.692   7.655  20.013  0.00  0.00    +0.000 N 
ATOM     10  C   UNL     1       1.440   6.850  20.950  0.00  0.00    +0.000 C 
BRANCH   9  11
ATOM     11  C   UNL     1       0.836   9.631  20.140  0.00  0.00    +0.000 A 
ATOM     12  N   UNL     1       1.325   9.886  19.413  0.00  0.00    +0.000 NA
ATOM     13  C   UNL     1       0.989  10.933  19.355  0.00  0.00    +0.000 A 
ATOM     14  C   UNL     1       1.642  11.427  18.456  0.00  0.00    +0.000 C 
ATOM     15  N   UNL     1       0.279  11.905  19.755  0.00  0.00    +0.000 NA
ATOM     16  C   UNL     1      -0.211  12.959  19.878  0.00  0.00    +0.000 A 
ATOM     17  C   UNL     1       0.228  13.782  18.940  0.00  0.00    +0.000 A 
ATOM     18  C   UNL     1       0.175  15.012  18.780  0.00  0.00    +0.000 A 
ATOM     19  C   UNL     1      -0.763  15.572  19.498  0.00  0.00    +0.000 A 
ATOM     20  C   UNL     1      -1.382  14.601  20.673  0.00  0.00    +0.000 A 
ATOM     21  C   UNL     1      -0.552  12.746  20.462  0.00  0.00    +0.000 A 
ENDBRANCH   9  11
ENDBRANCH   4   9
BRANCH   6  22
ATOM     22  O   UNL     1       2.953   3.362  16.959  0.00  0.00    +0.000 OA
BRANCH  22  23
ATOM     23  C   UNL     1       2.570   2.287  17.680  0.00  0.00    +0.000 C 
BRANCH  23  24
ATOM     24  C   UNL     1       3.503   1.488  18.518  0.00  0.00    +0.000 C 
BRANCH  24  25
ATOM     25 SE   UNL     1       4.219   2.307  20.164  0.00  0.00    +0.000 Se
BRANCH  25  26
ATOM     26  C   UNL     1       2.685   2.639  21.385  0.00  0.00    +0.000 C 
ATOM     27  N   UNL     1       1.838   2.885  22.169  0.00  0.00    +0.000 NA
ENDBRANCH  25  26
ENDBRANCH  24  25
ENDBRANCH  23  24
ENDBRANCH  22  23
ENDBRANCH   6  22
TORSDOF 8
ENDMDL
MODEL 7
REMARK VINA RESULT:      -8.2      5.265     10.223
REMARK  Name = 
REMARK  11 active torsions:
REMARK  status: ('A' for Active; 'I' for Inactive)
REMARK    1  A    between atoms: C_1  and  O_2
REMARK    2  A    between atoms: O_2  and  C_3
REMARK    3  A    between atoms: C_6  and  N_7
REMARK    4  A    between atoms: N_7  and  C_8
REMARK    5  A    between atoms: N_7  and  C_9
REMARK    6  A    between atoms: C_11  and  C_12
REMARK    7  A    between atoms: C_21  and  O_22
REMARK    8  A    between atoms: O_22  and  C_23
REMARK    9  A    between atoms: C_23  and  C_24
REMARK   10  A    between atoms: C_24  and  SE_25
REMARK   11  A    between atoms: SE_25  and  C_26
REMARK                            x       y       z     vdW  Elec       q    Type
REMARK                         _______ _______ _______ _____ _____    ______ ____
ROOT
ATOM      1  C   UNL     1      -3.878  10.969  17.814  0.00  0.00    +0.000 A 
ATOM      2  C   UNL     1      -3.109  10.043  17.150  0.00  0.00    +0.000 A 
ATOM      3  C   UNL     1      -1.795   9.806  17.568  0.00  0.00    +0.000 A 
ATOM      4  C   UNL     1      -0.998  10.589  18.433  0.00  0.00    +0.000 A 
ATOM      5  C   UNL     1      -1.889  11.574  19.069  0.00  0.00    +0.000 A 
ATOM      6  C   UNL     1      -3.254  11.771  18.776  0.00  0.00    +0.000 A 
ENDROOT
BRANCH   1   8
ATOM      7  C   UNL     1      -6.233  10.727  18.325  0.00  0.00    +0.000 C 
ATOM      8  O   UNL     1      -5.199  11.035  17.491  0.00  0.00    +0.000 OA
ENDBRANCH   1   8
BRANCH   4   9
ATOM      9  N   UNL     1       0.862  10.354  18.619  0.00  0.00    +0.000 N 
ATOM     10  C   UNL     1       1.211  11.342  19.319  0.00  0.00    +0.000 C 
BRANCH   9  11
ATOM     11  C   UNL     1       2.410   9.012  17.945  0.00  0.00    +0.000 A 
ATOM     12  N   UNL     1       1.902   8.300  18.204  0.00  0.00    +0.000 NA
ATOM     13  C   UNL     1       2.599   7.495  17.921  0.00  0.00    +0.000 A 
ATOM     14  C   UNL     1       2.067   6.468  18.296  0.00  0.00    +0.000 C 
ATOM     15  N   UNL     1       3.688   7.083  17.418  0.00  0.00    +0.000 NA
ATOM     16  C   UNL     1       4.563   6.406  17.044  0.00  0.00    +0.000 A 
ATOM     17  C   UNL     1       4.265   5.129  17.220  0.00  0.00    +0.000 A 
ATOM     18  C   UNL     1       4.924   4.078  17.185  0.00  0.00    +0.000 A 
ATOM     19  C   UNL     1       6.053   4.213  16.539  0.00  0.00    +0.000 A 
ATOM     20  C   UNL     1       6.482   5.776  16.255  0.00  0.00    +0.000 A 
ATOM     21  C   UNL     1       4.953   6.976  16.885  0.00  0.00    +0.000 A 
ENDBRANCH   9  11
ENDBRANCH   4   9
BRANCH   6  22
ATOM     22  O   UNL     1      -3.938  12.752  19.367  0.00  0.00    +0.000 OA
BRANCH  22  23
ATOM     23  C   UNL     1      -4.038  13.079  20.673  0.00  0.00    +0.000 C 
BRANCH  23  24
ATOM     24  C   UNL     1      -2.954  13.757  21.432  0.00  0.00    +0.000 C 
BRANCH  24  25
ATOM     25 SE   UNL     1      -2.265  12.883  23.061  0.00  0.00    +0.000 Se
BRANCH  25  26
ATOM     26  C   UNL     1      -3.830  12.373  24.177  0.00  0.00    +0.000 C 
ATOM     27  N   UNL     1      -4.703  12.090  24.919  0.00  0.00    +0.000 NA
ENDBRANCH  25  26
ENDBRANCH  24  25
ENDBRANCH  23  24
ENDBRANCH  22  23
ENDBRANCH   6  22
TORSDOF 8
ENDMDL
MODEL 8
REMARK VINA RESULT:      -8.2      2.827      4.808
REMARK  Name = 
REMARK  11 active torsions:
REMARK  status: ('A' for Active; 'I' for Inactive)
REMARK    1  A    between atoms: C_1  and  O_2
REMARK    2  A    between atoms: O_2  and  C_3
REMARK    3  A    between atoms: C_6  and  N_7
REMARK    4  A    between atoms: N_7  and  C_8
REMARK    5  A    between atoms: N_7  and  C_9
REMARK    6  A    between atoms: C_11  and  C_12
REMARK    7  A    between atoms: C_21  and  O_22
REMARK    8  A    between atoms: O_22  and  C_23
REMARK    9  A    between atoms: C_23  and  C_24
REMARK   10  A    between atoms: C_24  and  SE_25
REMARK   11  A    between atoms: SE_25  and  C_26
REMARK                            x       y       z     vdW  Elec       q    Type
REMARK                         _______ _______ _______ _____ _____    ______ ____
ROOT
ATOM      1  C   UNL     1       2.825   4.405  20.229  0.00  0.00    +0.000 A 
ATOM      2  C   UNL     1       1.930   5.208  20.895  0.00  0.00    +0.000 A 
ATOM      3  C   UNL     1       1.572   6.446  20.350  0.00  0.00    +0.000 A 
ATOM      4  C   UNL     1       2.211   7.163  19.314  0.00  0.00    +0.000 A 
ATOM      5  C   UNL     1       3.175   6.246  18.684  0.00  0.00    +0.000 A 
ATOM      6  C   UNL     1       3.483   4.939  19.115  0.00  0.00    +0.000 A 
ENDROOT
BRANCH   1   8
ATOM      7  C   UNL     1       2.243   2.539  21.658  0.00  0.00    +0.000 C 
ATOM      8  O   UNL     1       3.003   3.140  20.699  0.00  0.00    +0.000 OA
ENDBRANCH   1   8
BRANCH   4   9
ATOM      9  N   UNL     1       1.847   8.972  18.933  0.00  0.00    +0.000 N 
ATOM     10  C   UNL     1       2.235   9.101  17.741  0.00  0.00    +0.000 C 
BRANCH   9  11
ATOM     11  C   UNL     1       1.089  10.727  19.930  0.00  0.00    +0.000 A 
ATOM     12  N   UNL     1       0.685  10.196  20.553  0.00  0.00    +0.000 NA
ATOM     13  C   UNL     1       0.220  10.988  21.161  0.00  0.00    +0.000 A 
ATOM     14  C   UNL     1      -0.435  10.401  22.000  0.00  0.00    +0.000 C 
ATOM     15  N   UNL     1      -0.003  12.207  21.431  0.00  0.00    +0.000 NA
ATOM     16  C   UNL     1      -0.392  13.192  21.923  0.00  0.00    +0.000 A 
ATOM     17  C   UNL     1      -1.113  12.916  22.998  0.00  0.00    +0.000 A 
ATOM     18  C   UNL     1      -1.888  13.575  23.709  0.00  0.00    +0.000 A 
ATOM     19  C   UNL     1      -1.719  14.865  23.574  0.00  0.00    +0.000 A 
ATOM     20  C   UNL     1      -0.808  15.292  22.272  0.00  0.00    +0.000 A 
ATOM     21  C   UNL     1      -0.100  13.581  21.407  0.00  0.00    +0.000 A 
ENDBRANCH   9  11
ENDBRANCH   4   9
BRANCH   6  22
ATOM     22  O   UNL     1       4.435   4.232  18.505  0.00  0.00    +0.000 OA
BRANCH  22  23
ATOM     23  C   UNL     1       4.476   3.725  17.254  0.00  0.00    +0.000 C 
BRANCH  23  24
ATOM     24  C   UNL     1       5.046   4.457  16.092  0.00  0.00    +0.000 C 
BRANCH  24  25
ATOM     25 SE   UNL     1       6.985   4.821  16.074  0.00  0.00    +0.000 Se
BRANCH  25  26
ATOM     26  C   UNL     1       7.258   6.657  16.788  0.00  0.00    +0.000 C 
ATOM     27  N   UNL     1       7.464   7.705  17.290  0.00  0.00    +0.000 NA
ENDBRANCH  25  26
ENDBRANCH  24  25
ENDBRANCH  23  24
ENDBRANCH  22  23
ENDBRANCH   6  22
TORSDOF 8
ENDMDL
MODEL 9
REMARK VINA RESULT:      -8.1      3.826      5.288
REMARK  Name = 
REMARK  11 active torsions:
REMARK  status: ('A' for Active; 'I' for Inactive)
REMARK    1  A    between atoms: C_1  and  O_2
REMARK    2  A    between atoms: O_2  and  C_3
REMARK    3  A    between atoms: C_6  and  N_7
REMARK    4  A    between atoms: N_7  and  C_8
REMARK    5  A    between atoms: N_7  and  C_9
REMARK    6  A    between atoms: C_11  and  C_12
REMARK    7  A    between atoms: C_21  and  O_22
REMARK    8  A    between atoms: O_22  and  C_23
REMARK    9  A    between atoms: C_23  and  C_24
REMARK   10  A    between atoms: C_24  and  SE_25
REMARK   11  A    between atoms: SE_25  and  C_26
REMARK                            x       y       z     vdW  Elec       q    Type
REMARK                         _______ _______ _______ _____ _____    ______ ____
ROOT
ATOM      1  C   UNL     1       3.976   5.680  18.927  0.00  0.00    +0.000 A 
ATOM      2  C   UNL     1       2.977   6.127  19.759  0.00  0.00    +0.000 A 
ATOM      3  C   UNL     1       2.137   7.163  19.338  0.00  0.00    +0.000 A 
ATOM      4  C   UNL     1       2.319   8.052  18.256  0.00  0.00    +0.000 A 
ATOM      5  C   UNL     1       3.426   7.521  17.442  0.00  0.00    +0.000 A 
ATOM      6  C   UNL     1       4.226   6.404  17.756  0.00  0.00    +0.000 A 
ENDROOT
BRANCH   1   8
ATOM      7  C   UNL     1       4.391   3.295  18.848  0.00  0.00    +0.000 C 
ATOM      8  O   UNL     1       4.647   4.556  19.300  0.00  0.00    +0.000 OA
ENDBRANCH   1   8
BRANCH   4   9
ATOM      9  N   UNL     1       1.303   9.622  18.026  0.00  0.00    +0.000 N 
ATOM     10  C   UNL     1       2.180  10.520  17.907  0.00  0.00    +0.000 C 
BRANCH   9  11
ATOM     11  C   UNL     1      -0.764  10.236  17.997  0.00  0.00    +0.000 A 
ATOM     12  N   UNL     1      -0.615  10.761  18.729  0.00  0.00    +0.000 NA
ATOM     13  C   UNL     1      -1.636  11.156  18.852  0.00  0.00    +0.000 A 
ATOM     14  C   UNL     1      -1.598  11.824  19.867  0.00  0.00    +0.000 C 
ATOM     15  N   UNL     1      -2.847  11.261  18.490  0.00  0.00    +0.000 NA
ATOM     16  C   UNL     1      -3.977  11.551  18.429  0.00  0.00    +0.000 A 
ATOM     17  C   UNL     1      -4.285  12.403  19.394  0.00  0.00    +0.000 A 
ATOM     18  C   UNL     1      -5.355  12.821  19.865  0.00  0.00    +0.000 A 
ATOM     19  C   UNL     1      -6.365  12.641  19.055  0.00  0.00    +0.000 A 
ATOM     20  C   UNL     1      -6.053  11.612  17.809  0.00  0.00    +0.000 A 
ATOM     21  C   UNL     1      -4.075  11.108  17.885  0.00  0.00    +0.000 A 
ENDBRANCH   9  11
ENDBRANCH   4   9
BRANCH   6  22
ATOM     22  O   UNL     1       5.253   6.066  16.974  0.00  0.00    +0.000 OA
BRANCH  22  23
ATOM     23  C   UNL     1       5.272   5.669  15.684  0.00  0.00    +0.000 C 
BRANCH  23  24
ATOM     24  C   UNL     1       5.493   4.260  15.264  0.00  0.00    +0.000 C 
BRANCH  24  25
ATOM     25 SE   UNL     1       6.307   3.926  13.498  0.00  0.00    +0.000 Se
BRANCH  25  26
ATOM     26  C   UNL     1       7.790   5.229  13.265  0.00  0.00    +0.000 C 
ATOM     27  N   UNL     1       8.722   5.951  13.194  0.00  0.00    +0.000 NA
ENDBRANCH  25  26
ENDBRANCH  24  25
ENDBRANCH  23  24
ENDBRANCH  22  23
ENDBRANCH   6  22
TORSDOF 8
ENDMDL
