MODEL 1
REMARK VINA RESULT:      -7.2      0.000      0.000
REMARK  Name = 
REMARK  9 active torsions:
REMARK  status: ('A' for Active; 'I' for Inactive)
REMARK    1  A    between atoms: C_1  and  C_2
REMARK    2  A    between atoms: C_2  and  O_3
REMARK    3  A    between atoms: O_3  and  C_4
REMARK    4  A    between atoms: C_4  and  C_6
REMARK    5  A    between atoms: C_10  and  C_11
REMARK    6  A    between atoms: C_13  and  C_14
REMARK    7  A    between atoms: C_18  and  O_19
REMARK    8  A    between atoms: N_23  and  C_24
REMARK    9  A    between atoms: C_24  and  C_25
REMARK                            x       y       z     vdW  Elec       q    Type
REMARK                         _______ _______ _______ _____ _____    ______ ____
ROOT
ATOM      1  C   UNL     1       2.883   7.086  18.649  0.00  0.00    +0.000 A 
ATOM      2  N   UNL     1       3.049   8.196  17.840  0.00  0.00    +0.000 N 
ATOM      3  C   UNL     1       2.208   9.198  18.255  0.00  0.00    +0.000 A 
ATOM      4  C   UNL     1       1.506   8.727  19.340  0.00  0.00    +0.000 A 
ATOM      5  C   UNL     1       1.927   7.407  19.603  0.00  0.00    +0.000 A 
ATOM      6  C   UNL     1       1.481   6.562  20.752  0.00  0.00    +0.000 C 
ATOM      7  C   UNL     1       0.572   9.532  20.168  0.00  0.00    +0.000 C 
ATOM      8  C   UNL     1       0.283  10.968  19.617  0.00  0.00    +0.000 C 
ATOM      9  C   UNL     1       0.152  11.890  20.874  0.00  0.00    +0.000 C 
ATOM     10  C   UNL     1       0.216  13.392  20.595  0.00  0.00    +0.000 C 
ATOM     11  N   UNL     1       1.283  13.860  19.706  0.00  0.00    +0.000 NA
ATOM     12  C   UNL     1       1.424  13.001  18.509  0.00  0.00    +0.000 C 
ATOM     13  C   UNL     1       1.563  11.508  18.862  0.00  0.00    +0.000 C 
ATOM     14  C   UNL     1       2.114  10.596  17.722  0.00  0.00    +0.000 C 
ATOM     15  H   UNL     1       3.731   8.256  17.093  0.00  0.00    +0.000 HD
ENDROOT
BRANCH   8  16
ATOM     16  C   UNL     1      -1.081  10.903  18.872  0.00  0.00    +0.000 A 
ATOM     17  C   UNL     1      -1.235   9.992  17.795  0.00  0.00    +0.000 A 
ATOM     18  C   UNL     1      -2.420   9.876  17.063  0.00  0.00    +0.000 A 
ATOM     19  C   UNL     1      -3.507  10.674  17.385  0.00  0.00    +0.000 A 
ATOM     20  C   UNL     1      -3.380  11.588  18.423  0.00  0.00    +0.000 A 
ATOM     21  C   UNL     1      -2.190  11.713  19.152  0.00  0.00    +0.000 A 
BRANCH  20  22
ATOM     22  O   UNL     1      -4.428  12.396  18.767  0.00  0.00    +0.000 OA
ATOM     23  H   UNL     1      -5.220  11.841  18.868  0.00  0.00    +0.000 HD
ENDBRANCH  20  22
ENDBRANCH   8  16
BRANCH   1  24
ATOM     24  C   UNL     1       3.629   5.839  18.593  0.00  0.00    +0.000 C 
ATOM     25  O   UNL     1       4.477   5.504  19.418  0.00  0.00    +0.000 OA
BRANCH  24  26
ATOM     26  O   UNL     1       3.365   5.161  17.440  0.00  0.00    +0.000 OA
BRANCH  26  28
ATOM     27  C   UNL     1       1.469   3.825  17.979  0.00  0.00    +0.000 C 
ATOM     28  C   UNL     1       2.953   3.810  17.664  0.00  0.00    +0.000 C 
ENDBRANCH  26  28
ENDBRANCH  24  26
ENDBRANCH   1  24
BRANCH  11  29
ATOM     29  C   UNL     1       2.582  14.150  20.333  0.00  0.00    +0.000 C 
ATOM     30  C   UNL     1       3.703  14.583  19.386  0.00  0.00    +0.000 C 
ENDBRANCH  11  29
TORSDOF 6
ENDMDL
MODEL 2
REMARK VINA RESULT:      -7.0      3.244      7.160
REMARK  Name = 
REMARK  9 active torsions:
REMARK  status: ('A' for Active; 'I' for Inactive)
REMARK    1  A    between atoms: C_1  and  C_2
REMARK    2  A    between atoms: C_2  and  O_3
REMARK    3  A    between atoms: O_3  and  C_4
REMARK    4  A    between atoms: C_4  and  C_6
REMARK    5  A    between atoms: C_10  and  C_11
REMARK    6  A    between atoms: C_13  and  C_14
REMARK    7  A    between atoms: C_18  and  O_19
REMARK    8  A    between atoms: N_23  and  C_24
REMARK    9  A    between atoms: C_24  and  C_25
REMARK                            x       y       z     vdW  Elec       q    Type
REMARK                         _______ _______ _______ _____ _____    ______ ____
ROOT
ATOM      1  C   UNL     1      -4.683  11.878  18.430  0.00  0.00    +0.000 A 
ATOM      2  N   UNL     1      -4.264  12.607  19.529  0.00  0.00    +0.000 N 
ATOM      3  C   UNL     1      -2.902  12.496  19.663  0.00  0.00    +0.000 A 
ATOM      4  C   UNL     1      -2.449  11.698  18.640  0.00  0.00    +0.000 A 
ATOM      5  C   UNL     1      -3.554  11.311  17.853  0.00  0.00    +0.000 A 
ATOM      6  C   UNL     1      -3.491  10.515  16.590  0.00  0.00    +0.000 C 
ATOM      7  C   UNL     1      -1.020  11.416  18.344  0.00  0.00    +0.000 C 
ATOM      8  C   UNL     1      -0.014  11.965  19.409  0.00  0.00    +0.000 C 
ATOM      9  C   UNL     1       1.246  12.429  18.607  0.00  0.00    +0.000 C 
ATOM     10  C   UNL     1       2.223  13.318  19.377  0.00  0.00    +0.000 C 
ATOM     11  N   UNL     1       1.651  14.425  20.149  0.00  0.00    +0.000 NA
ATOM     12  C   UNL     1       0.457  14.006  20.917  0.00  0.00    +0.000 C 
ATOM     13  C   UNL     1      -0.591  13.293  20.043  0.00  0.00    +0.000 C 
ATOM     14  C   UNL     1      -2.020  13.184  20.660  0.00  0.00    +0.000 C 
ATOM     15  H   UNL     1      -4.879  13.171  20.103  0.00  0.00    +0.000 HD
ENDROOT
BRANCH   8  16
ATOM     16  C   UNL     1       0.366  10.772  20.333  0.00  0.00    +0.000 A 
ATOM     17  C   UNL     1       0.922   9.603  19.752  0.00  0.00    +0.000 A 
ATOM     18  C   UNL     1       1.280   8.480  20.504  0.00  0.00    +0.000 A 
ATOM     19  C   UNL     1       1.096   8.486  21.878  0.00  0.00    +0.000 A 
ATOM     20  C   UNL     1       0.537   9.610  22.472  0.00  0.00    +0.000 A 
ATOM     21  C   UNL     1       0.168  10.733  21.719  0.00  0.00    +0.000 A 
BRANCH  20  22
ATOM     22  O   UNL     1       0.335   9.651  23.823  0.00  0.00    +0.000 OA
ATOM     23  H   UNL     1      -0.619   9.561  23.992  0.00  0.00    +0.000 HD
ENDBRANCH  20  22
ENDBRANCH   8  16
BRANCH   1  24
ATOM     24  C   UNL     1      -6.033  11.787  17.900  0.00  0.00    +0.000 C 
ATOM     25  O   UNL     1      -6.837  10.908  18.205  0.00  0.00    +0.000 OA
BRANCH  24  26
ATOM     26  O   UNL     1      -6.241  12.715  16.922  0.00  0.00    +0.000 OA
BRANCH  26  28
ATOM     27  C   UNL     1      -6.982  14.942  16.516  0.00  0.00    +0.000 C 
ATOM     28  C   UNL     1      -7.282  13.643  17.240  0.00  0.00    +0.000 C 
ENDBRANCH  26  28
ENDBRANCH  24  26
ENDBRANCH   1  24
BRANCH  11  29
ATOM     29  C   UNL     1       1.428  15.686  19.426  0.00  0.00    +0.000 C 
ATOM     30  C   UNL     1       2.415  15.999  18.300  0.00  0.00    +0.000 C 
ENDBRANCH  11  29
TORSDOF 6
ENDMDL
MODEL 3
REMARK VINA RESULT:      -6.9      3.202      6.919
REMARK  Name = 
REMARK  9 active torsions:
REMARK  status: ('A' for Active; 'I' for Inactive)
REMARK    1  A    between atoms: C_1  and  C_2
REMARK    2  A    between atoms: C_2  and  O_3
REMARK    3  A    between atoms: O_3  and  C_4
REMARK    4  A    between atoms: C_4  and  C_6
REMARK    5  A    between atoms: C_10  and  C_11
REMARK    6  A    between atoms: C_13  and  C_14
REMARK    7  A    between atoms: C_18  and  O_19
REMARK    8  A    between atoms: N_23  and  C_24
REMARK    9  A    between atoms: C_24  and  C_25
REMARK                            x       y       z     vdW  Elec       q    Type
REMARK                         _______ _______ _______ _____ _____    ______ ____
ROOT
ATOM      1  C   UNL     1      -4.555  11.924  18.353  0.00  0.00    +0.000 A 
ATOM      2  N   UNL     1      -4.109  12.668  19.430  0.00  0.00    +0.000 N 
ATOM      3  C   UNL     1      -2.752  12.511  19.568  0.00  0.00    +0.000 A 
ATOM      4  C   UNL     1      -2.330  11.668  18.567  0.00  0.00    +0.000 A 
ATOM      5  C   UNL     1      -3.449  11.299  17.793  0.00  0.00    +0.000 A 
ATOM      6  C   UNL     1      -3.416  10.466  16.553  0.00  0.00    +0.000 C 
ATOM      7  C   UNL     1      -0.912  11.325  18.280  0.00  0.00    +0.000 C 
ATOM      8  C   UNL     1       0.115  11.867  19.329  0.00  0.00    +0.000 C 
ATOM      9  C   UNL     1       1.390  12.262  18.513  0.00  0.00    +0.000 C 
ATOM     10  C   UNL     1       2.400  13.136  19.257  0.00  0.00    +0.000 C 
ATOM     11  N   UNL     1       1.870  14.284  19.997  0.00  0.00    +0.000 NA
ATOM     12  C   UNL     1       0.663  13.932  20.777  0.00  0.00    +0.000 C 
ATOM     13  C   UNL     1      -0.413  13.233  19.924  0.00  0.00    +0.000 C 
ATOM     14  C   UNL     1      -1.844  13.196  20.544  0.00  0.00    +0.000 C 
ATOM     15  H   UNL     1      -4.702  13.271  19.988  0.00  0.00    +0.000 HD
ENDROOT
BRANCH   8  16
ATOM     16  C   UNL     1       0.452  10.688  20.286  0.00  0.00    +0.000 A 
ATOM     17  C   UNL     1       0.992   9.494  19.743  0.00  0.00    +0.000 A 
ATOM     18  C   UNL     1       1.312   8.382  20.527  0.00  0.00    +0.000 A 
ATOM     19  C   UNL     1       1.104   8.424  21.896  0.00  0.00    +0.000 A 
ATOM     20  C   UNL     1       0.559   9.573  22.454  0.00  0.00    +0.000 A 
ATOM     21  C   UNL     1       0.228  10.686  21.669  0.00  0.00    +0.000 A 
BRANCH  20  22
ATOM     22  O   UNL     1       0.334   9.651  23.800  0.00  0.00    +0.000 OA
ATOM     23  H   UNL     1       0.432  10.579  24.073  0.00  0.00    +0.000 HD
ENDBRANCH  20  22
ENDBRANCH   8  16
BRANCH   1  24
ATOM     24  C   UNL     1      -5.909  11.867  17.826  0.00  0.00    +0.000 C 
ATOM     25  O   UNL     1      -6.324  12.577  16.912  0.00  0.00    +0.000 OA
BRANCH  24  26
ATOM     26  O   UNL     1      -6.689  11.028  18.565  0.00  0.00    +0.000 OA
BRANCH  26  28
ATOM     27  C   UNL     1      -7.149  11.300  20.886  0.00  0.00    +0.000 C 
ATOM     28  C   UNL     1      -7.544  11.717  19.482  0.00  0.00    +0.000 C 
ENDBRANCH  26  28
ENDBRANCH  24  26
ENDBRANCH   1  24
BRANCH  11  29
ATOM     29  C   UNL     1       1.692  15.532  19.237  0.00  0.00    +0.000 C 
ATOM     30  C   UNL     1       2.736  15.814  18.154  0.00  0.00    +0.000 C 
ENDBRANCH  11  29
TORSDOF 6
ENDMDL
MODEL 4
REMARK VINA RESULT:      -6.9      0.852      1.480
REMARK  Name = 
REMARK  9 active torsions:
REMARK  status: ('A' for Active; 'I' for Inactive)
REMARK    1  A    between atoms: C_1  and  C_2
REMARK    2  A    between atoms: C_2  and  O_3
REMARK    3  A    between atoms: O_3  and  C_4
REMARK    4  A    between atoms: C_4  and  C_6
REMARK    5  A    between atoms: C_10  and  C_11
REMARK    6  A    between atoms: C_13  and  C_14
REMARK    7  A    between atoms: C_18  and  O_19
REMARK    8  A    between atoms: N_23  and  C_24
REMARK    9  A    between atoms: C_24  and  C_25
REMARK                            x       y       z     vdW  Elec       q    Type
REMARK                         _______ _______ _______ _____ _____    ______ ____
ROOT
ATOM      1  C   UNL     1       2.837   6.860  18.675  0.00  0.00    +0.000 A 
ATOM      2  N   UNL     1       3.033   7.942  17.836  0.00  0.00    +0.000 N 
ATOM      3  C   UNL     1       2.255   8.994  18.251  0.00  0.00    +0.000 A 
ATOM      4  C   UNL     1       1.564   8.582  19.366  0.00  0.00    +0.000 A 
ATOM      5  C   UNL     1       1.927   7.249  19.648  0.00  0.00    +0.000 A 
ATOM      6  C   UNL     1       1.474   6.452  20.828  0.00  0.00    +0.000 C 
ATOM      7  C   UNL     1       0.695   9.450  20.201  0.00  0.00    +0.000 C 
ATOM      8  C   UNL     1       0.460  10.886  19.625  0.00  0.00    +0.000 C 
ATOM      9  C   UNL     1       0.411  11.841  20.863  0.00  0.00    +0.000 C 
ATOM     10  C   UNL     1       0.541  13.331  20.548  0.00  0.00    +0.000 C 
ATOM     11  N   UNL     1       1.603  13.726  19.619  0.00  0.00    +0.000 NA
ATOM     12  C   UNL     1       1.666  12.836  18.439  0.00  0.00    +0.000 C 
ATOM     13  C   UNL     1       1.742  11.346  18.822  0.00  0.00    +0.000 C 
ATOM     14  C   UNL     1       2.214  10.382  17.689  0.00  0.00    +0.000 C 
ATOM     15  H   UNL     1       3.695   7.952  17.068  0.00  0.00    +0.000 HD
ENDROOT
BRANCH   8  16
ATOM     16  C   UNL     1      -0.927  10.873  18.921  0.00  0.00    +0.000 A 
ATOM     17  C   UNL     1      -1.138   9.988  17.833  0.00  0.00    +0.000 A 
ATOM     18  C   UNL     1      -2.347   9.919  17.135  0.00  0.00    +0.000 A 
ATOM     19  C   UNL     1      -3.401  10.738  17.505  0.00  0.00    +0.000 A 
ATOM     20  C   UNL     1      -3.219  11.629  18.556  0.00  0.00    +0.000 A 
ATOM     21  C   UNL     1      -2.004  11.707  19.251  0.00  0.00    +0.000 A 
BRANCH  20  22
ATOM     22  O   UNL     1      -4.233  12.457  18.947  0.00  0.00    +0.000 OA
ATOM     23  H   UNL     1      -4.025  12.797  19.833  0.00  0.00    +0.000 HD
ENDBRANCH  20  22
ENDBRANCH   8  16
BRANCH   1  24
ATOM     24  C   UNL     1       3.519   5.577  18.626  0.00  0.00    +0.000 C 
ATOM     25  O   UNL     1       3.126   4.611  17.975  0.00  0.00    +0.000 OA
BRANCH  24  26
ATOM     26  O   UNL     1       4.564   5.542  19.501  0.00  0.00    +0.000 OA
BRANCH  26  28
ATOM     27  C   UNL     1       6.900   5.643  19.045  0.00  0.00    +0.000 C 
ATOM     28  C   UNL     1       5.666   4.761  19.030  0.00  0.00    +0.000 C 
ENDBRANCH  26  28
ENDBRANCH  24  26
ENDBRANCH   1  24
BRANCH  11  29
ATOM     29  C   UNL     1       2.932  13.965  20.201  0.00  0.00    +0.000 C 
ATOM     30  C   UNL     1       2.953  14.631  21.579  0.00  0.00    +0.000 C 
ENDBRANCH  11  29
TORSDOF 6
ENDMDL
MODEL 5
REMARK VINA RESULT:      -6.8      3.132      7.059
REMARK  Name = 
REMARK  9 active torsions:
REMARK  status: ('A' for Active; 'I' for Inactive)
REMARK    1  A    between atoms: C_1  and  C_2
REMARK    2  A    between atoms: C_2  and  O_3
REMARK    3  A    between atoms: O_3  and  C_4
REMARK    4  A    between atoms: C_4  and  C_6
REMARK    5  A    between atoms: C_10  and  C_11
REMARK    6  A    between atoms: C_13  and  C_14
REMARK    7  A    between atoms: C_18  and  O_19
REMARK    8  A    between atoms: N_23  and  C_24
REMARK    9  A    between atoms: C_24  and  C_25
REMARK                            x       y       z     vdW  Elec       q    Type
REMARK                         _______ _______ _______ _____ _____    ______ ____
ROOT
ATOM      1  C   UNL     1      -4.926  12.146  18.503  0.00  0.00    +0.000 A 
ATOM      2  N   UNL     1      -4.481  12.990  19.504  0.00  0.00    +0.000 N 
ATOM      3  C   UNL     1      -3.141  12.784  19.719  0.00  0.00    +0.000 A 
ATOM      4  C   UNL     1      -2.728  11.808  18.843  0.00  0.00    +0.000 A 
ATOM      5  C   UNL     1      -3.836  11.405  18.069  0.00  0.00    +0.000 A 
ATOM      6  C   UNL     1      -3.801  10.429  16.938  0.00  0.00    +0.000 C 
ATOM      7  C   UNL     1      -1.321  11.364  18.660  0.00  0.00    +0.000 C 
ATOM      8  C   UNL     1      -0.306  11.976  19.682  0.00  0.00    +0.000 C 
ATOM      9  C   UNL     1       1.018  12.207  18.882  0.00  0.00    +0.000 C 
ATOM     10  C   UNL     1       2.045  13.113  19.562  0.00  0.00    +0.000 C 
ATOM     11  N   UNL     1       1.550  14.366  20.139  0.00  0.00    +0.000 NA
ATOM     12  C   UNL     1       0.297  14.169  20.901  0.00  0.00    +0.000 C 
ATOM     13  C   UNL     1      -0.781  13.428  20.090  0.00  0.00    +0.000 C 
ATOM     14  C   UNL     1      -2.235  13.534  20.647  0.00  0.00    +0.000 C 
ATOM     15  H   UNL     1      -5.062  13.683  19.961  0.00  0.00    +0.000 HD
ENDROOT
BRANCH   8  16
ATOM     16  C   UNL     1      -0.069  10.904  20.784  0.00  0.00    +0.000 A 
ATOM     17  C   UNL     1      -0.746  11.032  22.025  0.00  0.00    +0.000 A 
ATOM     18  C   UNL     1      -0.583  10.123  23.074  0.00  0.00    +0.000 A 
ATOM     19  C   UNL     1       0.269   9.041  22.920  0.00  0.00    +0.000 A 
ATOM     20  C   UNL     1       0.960   8.900  21.723  0.00  0.00    +0.000 A 
ATOM     21  C   UNL     1       0.805   9.815  20.672  0.00  0.00    +0.000 A 
BRANCH  20  22
ATOM     22  O   UNL     1       1.813   7.848  21.534  0.00  0.00    +0.000 OA
ATOM     23  H   UNL     1       1.318   7.024  21.683  0.00  0.00    +0.000 HD
ENDBRANCH  20  22
ENDBRANCH   8  16
BRANCH   1  24
ATOM     24  C   UNL     1      -6.260  12.093  17.928  0.00  0.00    +0.000 C 
ATOM     25  O   UNL     1      -6.565  12.589  16.845  0.00  0.00    +0.000 OA
BRANCH  24  26
ATOM     26  O   UNL     1      -7.152  11.548  18.803  0.00  0.00    +0.000 OA
BRANCH  26  28
ATOM     27  C   UNL     1      -7.541   9.859  20.438  0.00  0.00    +0.000 C 
ATOM     28  C   UNL     1      -6.870  10.181  19.115  0.00  0.00    +0.000 C 
ENDBRANCH  26  28
ENDBRANCH  24  26
ENDBRANCH   1  24
BRANCH  11  29
ATOM     29  C   UNL     1       1.469  15.521  19.232  0.00  0.00    +0.000 C 
ATOM     30  C   UNL     1       2.582  15.637  18.188  0.00  0.00    +0.000 C 
ENDBRANCH  11  29
TORSDOF 6
ENDMDL
MODEL 6
REMARK VINA RESULT:      -6.7      1.036      1.369
REMARK  Name = 
REMARK  9 active torsions:
REMARK  status: ('A' for Active; 'I' for Inactive)
REMARK    1  A    between atoms: C_1  and  C_2
REMARK    2  A    between atoms: C_2  and  O_3
REMARK    3  A    between atoms: O_3  and  C_4
REMARK    4  A    between atoms: C_4  and  C_6
REMARK    5  A    between atoms: C_10  and  C_11
REMARK    6  A    between atoms: C_13  and  C_14
REMARK    7  A    between atoms: C_18  and  O_19
REMARK    8  A    between atoms: N_23  and  C_24
REMARK    9  A    between atoms: C_24  and  C_25
REMARK                            x       y       z     vdW  Elec       q    Type
REMARK                         _______ _______ _______ _____ _____    ______ ____
ROOT
ATOM      1  C   UNL     1       2.610   6.994  19.006  0.00  0.00    +0.000 A 
ATOM      2  N   UNL     1       2.840   8.005  18.091  0.00  0.00    +0.000 N 
ATOM      3  C   UNL     1       2.079   9.101  18.414  0.00  0.00    +0.000 A 
ATOM      4  C   UNL     1       1.365   8.789  19.547  0.00  0.00    +0.000 A 
ATOM      5  C   UNL     1       1.696   7.474  19.934  0.00  0.00    +0.000 A 
ATOM      6  C   UNL     1       1.211   6.778  21.164  0.00  0.00    +0.000 C 
ATOM      7  C   UNL     1       0.503   9.736  20.302  0.00  0.00    +0.000 C 
ATOM      8  C   UNL     1       0.307  11.128  19.615  0.00  0.00    +0.000 C 
ATOM      9  C   UNL     1       0.263  12.174  20.777  0.00  0.00    +0.000 C 
ATOM     10  C   UNL     1       0.428  13.634  20.353  0.00  0.00    +0.000 C 
ATOM     11  N   UNL     1       1.510  13.936  19.412  0.00  0.00    +0.000 NA
ATOM     12  C   UNL     1       1.570  12.957  18.303  0.00  0.00    +0.000 C 
ATOM     13  C   UNL     1       1.609  11.499  18.798  0.00  0.00    +0.000 C 
ATOM     14  C   UNL     1       2.075  10.444  17.748  0.00  0.00    +0.000 C 
ATOM     15  H   UNL     1       3.512   7.944  17.334  0.00  0.00    +0.000 HD
ENDROOT
BRANCH   8  16
ATOM     16  C   UNL     1      -1.071  11.090  18.894  0.00  0.00    +0.000 A 
ATOM     17  C   UNL     1      -2.153  11.829  19.439  0.00  0.00    +0.000 A 
ATOM     18  C   UNL     1      -3.427  11.841  18.864  0.00  0.00    +0.000 A 
ATOM     19  C   UNL     1      -3.668  11.110  17.712  0.00  0.00    +0.000 A 
ATOM     20  C   UNL     1      -2.633  10.362  17.166  0.00  0.00    +0.000 A 
ATOM     21  C   UNL     1      -1.356  10.340  17.745  0.00  0.00    +0.000 A 
BRANCH  20  22
ATOM     22  O   UNL     1      -2.833   9.624  16.033  0.00  0.00    +0.000 OA
ATOM     23  H   UNL     1      -2.376  10.065  15.297  0.00  0.00    +0.000 HD
ENDBRANCH  20  22
ENDBRANCH   8  16
BRANCH   1  24
ATOM     24  C   UNL     1       3.265   5.697  19.065  0.00  0.00    +0.000 C 
ATOM     25  O   UNL     1       4.419   5.523  19.451  0.00  0.00    +0.000 OA
BRANCH  24  26
ATOM     26  O   UNL     1       2.484   4.728  18.508  0.00  0.00    +0.000 OA
BRANCH  26  28
ATOM     27  C   UNL     1       1.147   3.330  19.898  0.00  0.00    +0.000 C 
ATOM     28  C   UNL     1       2.504   3.500  19.241  0.00  0.00    +0.000 C 
ENDBRANCH  26  28
ENDBRANCH  24  26
ENDBRANCH   1  24
BRANCH  11  29
ATOM     29  C   UNL     1       2.837  14.191  19.994  0.00  0.00    +0.000 C 
ATOM     30  C   UNL     1       3.926  14.638  19.016  0.00  0.00    +0.000 C 
ENDBRANCH  11  29
TORSDOF 6
ENDMDL
MODEL 7
REMARK VINA RESULT:      -6.7      1.140      1.853
REMARK  Name = 
REMARK  9 active torsions:
REMARK  status: ('A' for Active; 'I' for Inactive)
REMARK    1  A    between atoms: C_1  and  C_2
REMARK    2  A    between atoms: C_2  and  O_3
REMARK    3  A    between atoms: O_3  and  C_4
REMARK    4  A    between atoms: C_4  and  C_6
REMARK    5  A    between atoms: C_10  and  C_11
REMARK    6  A    between atoms: C_13  and  C_14
REMARK    7  A    between atoms: C_18  and  O_19
REMARK    8  A    between atoms: N_23  and  C_24
REMARK    9  A    between atoms: C_24  and  C_25
REMARK                            x       y       z     vdW  Elec       q    Type
REMARK                         _______ _______ _______ _____ _____    ______ ____
ROOT
ATOM      1  C   UNL     1       2.792   6.969  18.625  0.00  0.00    +0.000 A 
ATOM      2  N   UNL     1       2.986   8.063  17.802  0.00  0.00    +0.000 N 
ATOM      3  C   UNL     1       2.212   9.110  18.235  0.00  0.00    +0.000 A 
ATOM      4  C   UNL     1       1.524   8.683  19.347  0.00  0.00    +0.000 A 
ATOM      5  C   UNL     1       1.886   7.345  19.607  0.00  0.00    +0.000 A 
ATOM      6  C   UNL     1       1.436   6.532  20.777  0.00  0.00    +0.000 C 
ATOM      7  C   UNL     1       0.660   9.540  20.199  0.00  0.00    +0.000 C 
ATOM      8  C   UNL     1       0.426  10.985  19.645  0.00  0.00    +0.000 C 
ATOM      9  C   UNL     1       0.384  11.921  20.898  0.00  0.00    +0.000 C 
ATOM     10  C   UNL     1       0.516  13.416  20.605  0.00  0.00    +0.000 C 
ATOM     11  N   UNL     1       1.575  13.822  19.678  0.00  0.00    +0.000 NA
ATOM     12  C   UNL     1       1.632  12.950  18.484  0.00  0.00    +0.000 C 
ATOM     13  C   UNL     1       1.706  11.454  18.844  0.00  0.00    +0.000 C 
ATOM     14  C   UNL     1       2.172  10.507  17.695  0.00  0.00    +0.000 C 
ATOM     15  H   UNL     1       3.645   8.084  17.031  0.00  0.00    +0.000 HD
ENDROOT
BRANCH   8  16
ATOM     16  C   UNL     1      -0.964  10.985  18.947  0.00  0.00    +0.000 A 
ATOM     17  C   UNL     1      -2.008  11.775  19.494  0.00  0.00    +0.000 A 
ATOM     18  C   UNL     1      -3.290  11.824  18.939  0.00  0.00    +0.000 A 
ATOM     19  C   UNL     1      -3.578  11.081  17.805  0.00  0.00    +0.000 A 
ATOM     20  C   UNL     1      -2.580  10.285  17.257  0.00  0.00    +0.000 A 
ATOM     21  C   UNL     1      -1.296  10.226  17.817  0.00  0.00    +0.000 A 
BRANCH  20  22
ATOM     22  O   UNL     1      -2.826   9.534  16.142  0.00  0.00    +0.000 OA
ATOM     23  H   UNL     1      -3.358  10.067  15.527  0.00  0.00    +0.000 HD
ENDBRANCH  20  22
ENDBRANCH   8  16
BRANCH   1  24
ATOM     24  C   UNL     1       3.470   5.685  18.554  0.00  0.00    +0.000 C 
ATOM     25  O   UNL     1       3.046   4.714  17.931  0.00  0.00    +0.000 OA
BRANCH  24  26
ATOM     26  O   UNL     1       4.557   5.658  19.377  0.00  0.00    +0.000 OA
BRANCH  26  28
ATOM     27  C   UNL     1       6.928   5.550  19.185  0.00  0.00    +0.000 C 
ATOM     28  C   UNL     1       5.621   4.844  18.877  0.00  0.00    +0.000 C 
ENDBRANCH  26  28
ENDBRANCH  24  26
ENDBRANCH   1  24
BRANCH  11  29
ATOM     29  C   UNL     1       2.907  14.050  20.259  0.00  0.00    +0.000 C 
ATOM     30  C   UNL     1       3.950  14.672  19.327  0.00  0.00    +0.000 C 
ENDBRANCH  11  29
TORSDOF 6
ENDMDL
MODEL 8
REMARK VINA RESULT:      -6.7      1.056      1.496
REMARK  Name = 
REMARK  9 active torsions:
REMARK  status: ('A' for Active; 'I' for Inactive)
REMARK    1  A    between atoms: C_1  and  C_2
REMARK    2  A    between atoms: C_2  and  O_3
REMARK    3  A    between atoms: O_3  and  C_4
REMARK    4  A    between atoms: C_4  and  C_6
REMARK    5  A    between atoms: C_10  and  C_11
REMARK    6  A    between atoms: C_13  and  C_14
REMARK    7  A    between atoms: C_18  and  O_19
REMARK    8  A    between atoms: N_23  and  C_24
REMARK    9  A    between atoms: C_24  and  C_25
REMARK                            x       y       z     vdW  Elec       q    Type
REMARK                         _______ _______ _______ _____ _____    ______ ____
ROOT
ATOM      1  C   UNL     1       2.849   6.919  18.703  0.00  0.00    +0.000 A 
ATOM      2  N   UNL     1       3.062   7.997  17.862  0.00  0.00    +0.000 N 
ATOM      3  C   UNL     1       2.267   9.047  18.248  0.00  0.00    +0.000 A 
ATOM      4  C   UNL     1       1.546   8.639  19.346  0.00  0.00    +0.000 A 
ATOM      5  C   UNL     1       1.909   7.309  19.647  0.00  0.00    +0.000 A 
ATOM      6  C   UNL     1       1.427   6.518  20.820  0.00  0.00    +0.000 C 
ATOM      7  C   UNL     1       0.649   9.508  20.150  0.00  0.00    +0.000 C 
ATOM      8  C   UNL     1       0.424  10.938  19.557  0.00  0.00    +0.000 C 
ATOM      9  C   UNL     1       0.334  11.901  20.787  0.00  0.00    +0.000 C 
ATOM     10  C   UNL     1       0.465  13.390  20.466  0.00  0.00    +0.000 C 
ATOM     11  N   UNL     1       1.551  13.784  19.564  0.00  0.00    +0.000 NA
ATOM     12  C   UNL     1       1.653  12.886  18.393  0.00  0.00    +0.000 C 
ATOM     13  C   UNL     1       1.725  11.400  18.788  0.00  0.00    +0.000 C 
ATOM     14  C   UNL     1       2.234  10.431  17.675  0.00  0.00    +0.000 C 
ATOM     15  H   UNL     1       3.745   8.005  17.114  0.00  0.00    +0.000 HD
ENDROOT
BRANCH   8  16
ATOM     16  C   UNL     1      -0.943  10.913  18.815  0.00  0.00    +0.000 A 
ATOM     17  C   UNL     1      -2.028  11.658  19.344  0.00  0.00    +0.000 A 
ATOM     18  C   UNL     1      -3.293  11.682  18.749  0.00  0.00    +0.000 A 
ATOM     19  C   UNL     1      -3.521  10.956  17.591  0.00  0.00    +0.000 A 
ATOM     20  C   UNL     1      -2.483  10.201  17.060  0.00  0.00    +0.000 A 
ATOM     21  C   UNL     1      -1.216  10.168  17.659  0.00  0.00    +0.000 A 
BRANCH  20  22
ATOM     22  O   UNL     1      -2.671   9.468  15.922  0.00  0.00    +0.000 OA
ATOM     23  H   UNL     1      -2.141   8.656  15.991  0.00  0.00    +0.000 HD
ENDBRANCH  20  22
ENDBRANCH   8  16
BRANCH   1  24
ATOM     24  C   UNL     1       3.538   5.639  18.683  0.00  0.00    +0.000 C 
ATOM     25  O   UNL     1       4.442   5.330  19.456  0.00  0.00    +0.000 OA
BRANCH  24  26
ATOM     26  O   UNL     1       3.148   4.888  17.614  0.00  0.00    +0.000 OA
BRANCH  26  28
ATOM     27  C   UNL     1       5.018   4.855  16.139  0.00  0.00    +0.000 C 
ATOM     28  C   UNL     1       4.186   4.042  17.112  0.00  0.00    +0.000 C 
ENDBRANCH  26  28
ENDBRANCH  24  26
ENDBRANCH   1  24
BRANCH  11  29
ATOM     29  C   UNL     1       2.862  14.035  20.183  0.00  0.00    +0.000 C 
ATOM     30  C   UNL     1       3.823  14.919  19.385  0.00  0.00    +0.000 C 
ENDBRANCH  11  29
TORSDOF 6
ENDMDL
MODEL 9
REMARK VINA RESULT:      -6.6      2.727      7.337
REMARK  Name = 
REMARK  9 active torsions:
REMARK  status: ('A' for Active; 'I' for Inactive)
REMARK    1  A    between atoms: C_1  and  C_2
REMARK    2  A    between atoms: C_2  and  O_3
REMARK    3  A    between atoms: O_3  and  C_4
REMARK    4  A    between atoms: C_4  and  C_6
REMARK    5  A    between atoms: C_10  and  C_11
REMARK    6  A    between atoms: C_13  and  C_14
REMARK    7  A    between atoms: C_18  and  O_19
REMARK    8  A    between atoms: N_23  and  C_24
REMARK    9  A    between atoms: C_24  and  C_25
REMARK                            x       y       z     vdW  Elec       q    Type
REMARK                         _______ _______ _______ _____ _____    ______ ____
ROOT
ATOM      1  C   UNL     1      -4.810  11.983  18.404  0.00  0.00    +0.000 A 
ATOM      2  N   UNL     1      -4.383  12.664  19.529  0.00  0.00    +0.000 N 
ATOM      3  C   UNL     1      -3.030  12.491  19.687  0.00  0.00    +0.000 A 
ATOM      4  C   UNL     1      -2.591  11.700  18.651  0.00  0.00    +0.000 A 
ATOM      5  C   UNL     1      -3.695  11.382  17.834  0.00  0.00    +0.000 A 
ATOM      6  C   UNL     1      -3.640  10.617  16.552  0.00  0.00    +0.000 C 
ATOM      7  C   UNL     1      -1.170  11.364  18.376  0.00  0.00    +0.000 C 
ATOM      8  C   UNL     1      -0.162  11.840  19.475  0.00  0.00    +0.000 C 
ATOM      9  C   UNL     1       1.132  12.270  18.709  0.00  0.00    +0.000 C 
ATOM     10  C   UNL     1       2.131  13.096  19.522  0.00  0.00    +0.000 C 
ATOM     11  N   UNL     1       1.591  14.205  20.312  0.00  0.00    +0.000 NA
ATOM     12  C   UNL     1       0.365  13.820  21.045  0.00  0.00    +0.000 C 
ATOM     13  C   UNL     1      -0.695  13.176  20.133  0.00  0.00    +0.000 C 
ATOM     14  C   UNL     1      -2.140  13.114  20.719  0.00  0.00    +0.000 C 
ATOM     15  H   UNL     1      -4.984  13.240  20.106  0.00  0.00    +0.000 HD
ENDROOT
BRANCH   8  16
ATOM     16  C   UNL     1       0.147  10.608  20.373  0.00  0.00    +0.000 A 
ATOM     17  C   UNL     1      -0.435  10.536  21.665  0.00  0.00    +0.000 A 
ATOM     18  C   UNL     1      -0.201   9.473  22.543  0.00  0.00    +0.000 A 
ATOM     19  C   UNL     1       0.628   8.433  22.157  0.00  0.00    +0.000 A 
ATOM     20  C   UNL     1       1.227   8.485  20.904  0.00  0.00    +0.000 A 
ATOM     21  C   UNL     1       1.002   9.554  20.026  0.00  0.00    +0.000 A 
BRANCH  20  22
ATOM     22  O   UNL     1       2.055   7.480  20.489  0.00  0.00    +0.000 OA
ATOM     23  H   UNL     1       2.955   7.840  20.411  0.00  0.00    +0.000 HD
ENDBRANCH  20  22
ENDBRANCH   8  16
BRANCH   1  24
ATOM     24  C   UNL     1      -6.152  11.964  17.845  0.00  0.00    +0.000 C 
ATOM     25  O   UNL     1      -6.982  11.086  18.073  0.00  0.00    +0.000 OA
BRANCH  24  26
ATOM     26  O   UNL     1      -6.318  12.964  16.934  0.00  0.00    +0.000 OA
BRANCH  26  28
ATOM     27  C   UNL     1      -7.541  14.840  16.120  0.00  0.00    +0.000 C 
ATOM     28  C   UNL     1      -7.393  13.850  17.261  0.00  0.00    +0.000 C 
ENDBRANCH  26  28
ENDBRANCH  24  26
ENDBRANCH   1  24
BRANCH  11  29
ATOM     29  C   UNL     1       1.437  15.493  19.618  0.00  0.00    +0.000 C 
ATOM     30  C   UNL     1       2.413  15.760  18.470  0.00  0.00    +0.000 C 
ENDBRANCH  11  29
TORSDOF 6
ENDMDL
