MODEL 1
REMARK VINA RESULT:      -8.1      0.000      0.000
REMARK  Name = 
REMARK  6 active torsions:
REMARK  status: ('A' for Active; 'I' for Inactive)
REMARK    1  A    between atoms: C_1  and  C_2
REMARK    2  A    between atoms: C_4  and  O_5
REMARK    3  A    between atoms: N_9  and  C_10
REMARK    4  A    between atoms: C_10  and  C_11
REMARK    5  A    between atoms: C_11  and  C_12
REMARK    6  A    between atoms: N_14  and  C_15
REMARK                            x       y       z     vdW  Elec       q    Type
REMARK                         _______ _______ _______ _____ _____    ______ ____
ROOT
ATOM      1  C   UNL     1       1.856   7.722  20.172  0.00  0.00    +0.000 C 
ATOM      2  O   UNL     1       1.975   8.285  19.086  0.00  0.00    +0.000 OA
ATOM      3  N   UNL     1       2.185   6.404  20.449  0.00  0.00    +0.000 N 
ATOM      4  H   UNL     1       2.142   6.101  21.413  0.00  0.00    +0.000 HD
ENDROOT
BRANCH   3   5
ATOM      5  C   UNL     1       2.818   5.526  19.539  0.00  0.00    +0.000 A 
ATOM      6  C   UNL     1       2.117   4.822  18.557  0.00  0.00    +0.000 A 
ATOM      7  C   UNL     1       2.795   4.242  17.489  0.00  0.00    +0.000 A 
ATOM      8  C   UNL     1       4.180   4.309  17.437  0.00  0.00    +0.000 A 
ATOM      9  C   UNL     1       4.887   4.755  18.556  0.00  0.00    +0.000 A 
ATOM     10  C   UNL     1       4.208   5.401  19.591  0.00  0.00    +0.000 A 
ATOM     11  O   UNL     1       6.188   4.411  18.799  0.00  0.00    +0.000 OA
ATOM     12  C   UNL     1       7.157   4.961  17.916  0.00  0.00    +0.000 C 
ATOM     13  C   UNL     1       7.082   4.431  16.493  0.00  0.00    +0.000 C 
ATOM     14  C   UNL     1       5.774   4.842  15.851  0.00  0.00    +0.000 C 
ATOM     15  O   UNL     1       4.751   3.925  16.257  0.00  0.00    +0.000 OA
ENDBRANCH   3   5
BRANCH   1  16
ATOM     16  C   UNL     1       1.405   8.501  21.386  0.00  0.00    +0.000 C 
BRANCH  16  17
ATOM     17  C   UNL     1      -0.095   8.781  21.249  0.00  0.00    +0.000 C 
BRANCH  17  25
ATOM     18  C   UNL     1      -0.874  10.210  18.783  0.00  0.00    +0.000 C 
ATOM     19  C   UNL     1      -0.820  10.908  20.114  0.00  0.00    +0.000 A 
ATOM     20  C   UNL     1      -1.168  12.202  20.202  0.00  0.00    +0.000 A 
ATOM     21  C   UNL     1      -1.159  12.884  21.468  0.00  0.00    +0.000 A 
ATOM     22  C   UNL     1      -0.853  12.239  22.594  0.00  0.00    +0.000 A 
ATOM     23  C   UNL     1      -0.506  10.805  22.547  0.00  0.00    +0.000 A 
ATOM     24  O   UNL     1      -0.283  10.215  23.600  0.00  0.00    +0.000 OA
ATOM     25  N   UNL     1      -0.445  10.210  21.276  0.00  0.00    +0.000 N 
BRANCH  21  26
ATOM     26  O   UNL     1      -1.496  14.219  21.485  0.00  0.00    +0.000 OA
ATOM     27  H   UNL     1      -2.462  14.304  21.538  0.00  0.00    +0.000 HD
ENDBRANCH  21  26
ENDBRANCH  17  25
ENDBRANCH  16  17
ENDBRANCH   1  16
TORSDOF 5
ENDMDL
MODEL 2
REMARK VINA RESULT:      -7.6      6.446      9.702
REMARK  Name = 
REMARK  6 active torsions:
REMARK  status: ('A' for Active; 'I' for Inactive)
REMARK    1  A    between atoms: C_1  and  C_2
REMARK    2  A    between atoms: C_4  and  O_5
REMARK    3  A    between atoms: N_9  and  C_10
REMARK    4  A    between atoms: C_10  and  C_11
REMARK    5  A    between atoms: C_11  and  C_12
REMARK    6  A    between atoms: N_14  and  C_15
REMARK                            x       y       z     vdW  Elec       q    Type
REMARK                         _______ _______ _______ _____ _____    ______ ____
ROOT
ATOM      1  C   UNL     1       8.051   8.315  18.123  0.00  0.00    +0.000 C 
ATOM      2  O   UNL     1       8.730   7.670  18.920  0.00  0.00    +0.000 OA
ATOM      3  N   UNL     1       8.151   9.677  17.880  0.00  0.00    +0.000 N 
ATOM      4  H   UNL     1       7.608  10.060  17.118  0.00  0.00    +0.000 HD
ENDROOT
BRANCH   3   5
ATOM      5  C   UNL     1       9.136  10.522  18.441  0.00  0.00    +0.000 A 
ATOM      6  C   UNL     1      10.256  10.954  17.728  0.00  0.00    +0.000 A 
ATOM      7  C   UNL     1      11.012  12.028  18.188  0.00  0.00    +0.000 A 
ATOM      8  C   UNL     1      10.687  12.627  19.397  0.00  0.00    +0.000 A 
ATOM      9  C   UNL     1       9.757  12.013  20.239  0.00  0.00    +0.000 A 
ATOM     10  C   UNL     1       8.952  10.985  19.746  0.00  0.00    +0.000 A 
ATOM     11  O   UNL     1       9.727  12.220  21.591  0.00  0.00    +0.000 OA
ATOM     12  C   UNL     1       9.323  13.514  22.018  0.00  0.00    +0.000 C 
ATOM     13  C   UNL     1      10.304  14.624  21.677  0.00  0.00    +0.000 C 
ATOM     14  C   UNL     1      10.409  14.786  20.175  0.00  0.00    +0.000 C 
ATOM     15  O   UNL     1      11.322  13.807  19.666  0.00  0.00    +0.000 OA
ENDBRANCH   3   5
BRANCH   1  16
ATOM     16  C   UNL     1       7.062   7.611  17.223  0.00  0.00    +0.000 C 
BRANCH  16  17
ATOM     17  C   UNL     1       7.345   6.106  17.281  0.00  0.00    +0.000 C 
BRANCH  17  25
ATOM     18  C   UNL     1       5.653   5.084  15.085  0.00  0.00    +0.000 C 
ATOM     19  C   UNL     1       5.340   4.784  16.525  0.00  0.00    +0.000 A 
ATOM     20  C   UNL     1       4.291   4.002  16.831  0.00  0.00    +0.000 A 
ATOM     21  C   UNL     1       3.992   3.671  18.198  0.00  0.00    +0.000 A 
ATOM     22  C   UNL     1       4.773   4.089  19.194  0.00  0.00    +0.000 A 
ATOM     23  C   UNL     1       5.961   4.915  18.898  0.00  0.00    +0.000 A 
ATOM     24  O   UNL     1       6.699   5.242  19.822  0.00  0.00    +0.000 OA
ATOM     25  N   UNL     1       6.157   5.282  17.557  0.00  0.00    +0.000 N 
BRANCH  21  26
ATOM     26  O   UNL     1       2.884   2.892  18.446  0.00  0.00    +0.000 OA
ATOM     27  H   UNL     1       2.120   3.265  17.975  0.00  0.00    +0.000 HD
ENDBRANCH  21  26
ENDBRANCH  17  25
ENDBRANCH  16  17
ENDBRANCH   1  16
TORSDOF 5
ENDMDL
MODEL 3
REMARK VINA RESULT:      -7.6      1.202      1.792
REMARK  Name = 
REMARK  6 active torsions:
REMARK  status: ('A' for Active; 'I' for Inactive)
REMARK    1  A    between atoms: C_1  and  C_2
REMARK    2  A    between atoms: C_4  and  O_5
REMARK    3  A    between atoms: N_9  and  C_10
REMARK    4  A    between atoms: C_10  and  C_11
REMARK    5  A    between atoms: C_11  and  C_12
REMARK    6  A    between atoms: N_14  and  C_15
REMARK                            x       y       z     vdW  Elec       q    Type
REMARK                         _______ _______ _______ _____ _____    ______ ____
ROOT
ATOM      1  C   UNL     1       1.918   7.811  19.915  0.00  0.00    +0.000 C 
ATOM      2  O   UNL     1       2.229   8.351  18.855  0.00  0.00    +0.000 OA
ATOM      3  N   UNL     1       2.124   6.480  20.244  0.00  0.00    +0.000 N 
ATOM      4  H   UNL     1       1.921   6.192  21.193  0.00  0.00    +0.000 HD
ENDROOT
BRANCH   3   5
ATOM      5  C   UNL     1       2.830   5.554  19.441  0.00  0.00    +0.000 A 
ATOM      6  C   UNL     1       2.201   4.737  18.499  0.00  0.00    +0.000 A 
ATOM      7  C   UNL     1       2.947   4.097  17.515  0.00  0.00    +0.000 A 
ATOM      8  C   UNL     1       4.330   4.219  17.512  0.00  0.00    +0.000 A 
ATOM      9  C   UNL     1       4.969   4.791  18.614  0.00  0.00    +0.000 A 
ATOM     10  C   UNL     1       4.220   5.496  19.559  0.00  0.00    +0.000 A 
ATOM     11  O   UNL     1       6.271   4.527  18.938  0.00  0.00    +0.000 OA
ATOM     12  C   UNL     1       7.255   5.040  18.048  0.00  0.00    +0.000 C 
ATOM     13  C   UNL     1       7.263   4.386  16.676  0.00  0.00    +0.000 C 
ATOM     14  C   UNL     1       5.968   4.681  15.948  0.00  0.00    +0.000 C 
ATOM     15  O   UNL     1       4.966   3.759  16.394  0.00  0.00    +0.000 OA
ENDBRANCH   3   5
BRANCH   1  16
ATOM     16  C   UNL     1       1.341   8.631  21.046  0.00  0.00    +0.000 C 
BRANCH  16  17
ATOM     17  C   UNL     1      -0.164   8.791  20.805  0.00  0.00    +0.000 C 
BRANCH  17  25
ATOM     18  C   UNL     1      -0.725  10.567  23.099  0.00  0.00    +0.000 C 
ATOM     19  C   UNL     1      -0.865  11.045  21.680  0.00  0.00    +0.000 A 
ATOM     20  C   UNL     1      -1.216  12.319  21.437  0.00  0.00    +0.000 A 
ATOM     21  C   UNL     1      -1.323  12.811  20.091  0.00  0.00    +0.000 A 
ATOM     22  C   UNL     1      -1.029  12.033  19.049  0.00  0.00    +0.000 A 
ATOM     23  C   UNL     1      -0.597  10.639  19.272  0.00  0.00    +0.000 A 
ATOM     24  O   UNL     1      -0.277   9.955  18.305  0.00  0.00    +0.000 OA
ATOM     25  N   UNL     1      -0.595  10.183  20.601  0.00  0.00    +0.000 N 
BRANCH  21  26
ATOM     26  O   UNL     1      -1.718  14.117  19.910  0.00  0.00    +0.000 OA
ATOM     27  H   UNL     1      -2.237  14.183  19.091  0.00  0.00    +0.000 HD
ENDBRANCH  21  26
ENDBRANCH  17  25
ENDBRANCH  16  17
ENDBRANCH   1  16
TORSDOF 5
ENDMDL
MODEL 4
REMARK VINA RESULT:      -7.6      2.645      7.751
REMARK  Name = 
REMARK  6 active torsions:
REMARK  status: ('A' for Active; 'I' for Inactive)
REMARK    1  A    between atoms: C_1  and  C_2
REMARK    2  A    between atoms: C_4  and  O_5
REMARK    3  A    between atoms: N_9  and  C_10
REMARK    4  A    between atoms: C_10  and  C_11
REMARK    5  A    between atoms: C_11  and  C_12
REMARK    6  A    between atoms: N_14  and  C_15
REMARK                            x       y       z     vdW  Elec       q    Type
REMARK                         _______ _______ _______ _____ _____    ______ ____
ROOT
ATOM      1  C   UNL     1       4.348   5.300  18.504  0.00  0.00    +0.000 C 
ATOM      2  O   UNL     1       4.854   5.564  19.593  0.00  0.00    +0.000 OA
ATOM      3  N   UNL     1       3.366   6.038  17.860  0.00  0.00    +0.000 N 
ATOM      4  H   UNL     1       3.119   5.770  16.916  0.00  0.00    +0.000 HD
ENDROOT
BRANCH   3   5
ATOM      5  C   UNL     1       2.869   7.282  18.314  0.00  0.00    +0.000 A 
ATOM      6  C   UNL     1       2.837   8.422  17.510  0.00  0.00    +0.000 A 
ATOM      7  C   UNL     1       2.052   9.514  17.868  0.00  0.00    +0.000 A 
ATOM      8  C   UNL     1       1.350   9.491  19.066  0.00  0.00    +0.000 A 
ATOM      9  C   UNL     1       1.612   8.481  19.994  0.00  0.00    +0.000 A 
ATOM     10  C   UNL     1       2.339   7.355  19.604  0.00  0.00    +0.000 A 
ATOM     11  O   UNL     1       1.373   8.623  21.334  0.00  0.00    +0.000 OA
ATOM     12  C   UNL     1       0.008   8.686  21.724  0.00  0.00    +0.000 C 
ATOM     13  C   UNL     1      -0.719   9.940  21.267  0.00  0.00    +0.000 C 
ATOM     14  C   UNL     1      -0.802   9.975  19.755  0.00  0.00    +0.000 C 
ATOM     15  O   UNL     1       0.431  10.487  19.235  0.00  0.00    +0.000 OA
ENDBRANCH   3   5
BRANCH   1  16
ATOM     16  C   UNL     1       4.859   4.133  17.691  0.00  0.00    +0.000 C 
BRANCH  16  17
ATOM     17  C   UNL     1       3.812   3.016  17.742  0.00  0.00    +0.000 C 
BRANCH  17  25
ATOM     18  C   UNL     1       0.956   3.756  17.895  0.00  0.00    +0.000 C 
ATOM     19  C   UNL     1       1.714   3.288  19.106  0.00  0.00    +0.000 A 
ATOM     20  C   UNL     1       1.079   3.163  20.283  0.00  0.00    +0.000 A 
ATOM     21  C   UNL     1       1.772   2.683  21.448  0.00  0.00    +0.000 A 
ATOM     22  C   UNL     1       3.048   2.304  21.382  0.00  0.00    +0.000 A 
ATOM     23  C   UNL     1       3.772   2.384  20.098  0.00  0.00    +0.000 A 
ATOM     24  O   UNL     1       4.928   1.978  20.044  0.00  0.00    +0.000 OA
ATOM     25  N   UNL     1       3.075   2.942  19.013  0.00  0.00    +0.000 N 
BRANCH  21  26
ATOM     26  O   UNL     1       1.071   2.609  22.631  0.00  0.00    +0.000 OA
ATOM     27  H   UNL     1       1.065   1.689  22.941  0.00  0.00    +0.000 HD
ENDBRANCH  21  26
ENDBRANCH  17  25
ENDBRANCH  16  17
ENDBRANCH   1  16
TORSDOF 5
ENDMDL
MODEL 5
REMARK VINA RESULT:      -7.5      2.168      3.375
REMARK  Name = 
REMARK  6 active torsions:
REMARK  status: ('A' for Active; 'I' for Inactive)
REMARK    1  A    between atoms: C_1  and  C_2
REMARK    2  A    between atoms: C_4  and  O_5
REMARK    3  A    between atoms: N_9  and  C_10
REMARK    4  A    between atoms: C_10  and  C_11
REMARK    5  A    between atoms: C_11  and  C_12
REMARK    6  A    between atoms: N_14  and  C_15
REMARK                            x       y       z     vdW  Elec       q    Type
REMARK                         _______ _______ _______ _____ _____    ______ ____
ROOT
ATOM      1  C   UNL     1       0.328   8.567  21.556  0.00  0.00    +0.000 C 
ATOM      2  O   UNL     1      -0.664   7.855  21.418  0.00  0.00    +0.000 OA
ATOM      3  N   UNL     1       1.595   8.310  21.052  0.00  0.00    +0.000 N 
ATOM      4  H   UNL     1       2.294   9.034  21.144  0.00  0.00    +0.000 HD
ENDROOT
BRANCH   3   5
ATOM      5  C   UNL     1       1.914   7.226  20.201  0.00  0.00    +0.000 A 
ATOM      6  C   UNL     1       2.381   7.403  18.897  0.00  0.00    +0.000 A 
ATOM      7  C   UNL     1       2.990   6.351  18.220  0.00  0.00    +0.000 A 
ATOM      8  C   UNL     1       3.073   5.103  18.822  0.00  0.00    +0.000 A 
ATOM      9  C   UNL     1       2.354   4.859  19.994  0.00  0.00    +0.000 A 
ATOM     10  C   UNL     1       1.809   5.929  20.706  0.00  0.00    +0.000 A 
ATOM     11  O   UNL     1       1.971   3.605  20.384  0.00  0.00    +0.000 OA
ATOM     12  C   UNL     1       3.014   2.729  20.792  0.00  0.00    +0.000 C 
ATOM     13  C   UNL     1       3.950   2.303  19.672  0.00  0.00    +0.000 C 
ATOM     14  C   UNL     1       4.709   3.501  19.141  0.00  0.00    +0.000 C 
ATOM     15  O   UNL     1       3.880   4.194  18.199  0.00  0.00    +0.000 OA
ENDBRANCH   3   5
BRANCH   1  16
ATOM     16  C   UNL     1       0.213   9.908  22.243  0.00  0.00    +0.000 C 
BRANCH  16  17
ATOM     17  C   UNL     1       0.517  11.004  21.216  0.00  0.00    +0.000 C 
BRANCH  17  25
ATOM     18  C   UNL     1      -1.794  12.678  21.982  0.00  0.00    +0.000 C 
ATOM     19  C   UNL     1      -1.689  12.058  20.616  0.00  0.00    +0.000 A 
ATOM     20  C   UNL     1      -2.644  12.295  19.701  0.00  0.00    +0.000 A 
ATOM     21  C   UNL     1      -2.550  11.743  18.377  0.00  0.00    +0.000 A 
ATOM     22  C   UNL     1      -1.491  11.024  18.005  0.00  0.00    +0.000 A 
ATOM     23  C   UNL     1      -0.398  10.776  18.966  0.00  0.00    +0.000 A 
ATOM     24  O   UNL     1       0.593  10.159  18.588  0.00  0.00    +0.000 OA
ATOM     25  N   UNL     1      -0.582  11.262  20.271  0.00  0.00    +0.000 N 
BRANCH  21  26
ATOM     26  O   UNL     1      -3.578  11.997  17.497  0.00  0.00    +0.000 OA
ATOM     27  H   UNL     1      -3.619  11.284  16.839  0.00  0.00    +0.000 HD
ENDBRANCH  21  26
ENDBRANCH  17  25
ENDBRANCH  16  17
ENDBRANCH   1  16
TORSDOF 5
ENDMDL
MODEL 6
REMARK VINA RESULT:      -7.4      2.731      7.794
REMARK  Name = 
REMARK  6 active torsions:
REMARK  status: ('A' for Active; 'I' for Inactive)
REMARK    1  A    between atoms: C_1  and  C_2
REMARK    2  A    between atoms: C_4  and  O_5
REMARK    3  A    between atoms: N_9  and  C_10
REMARK    4  A    between atoms: C_10  and  C_11
REMARK    5  A    between atoms: C_11  and  C_12
REMARK    6  A    between atoms: N_14  and  C_15
REMARK                            x       y       z     vdW  Elec       q    Type
REMARK                         _______ _______ _______ _____ _____    ______ ____
ROOT
ATOM      1  C   UNL     1       4.320   5.188  18.403  0.00  0.00    +0.000 C 
ATOM      2  O   UNL     1       4.981   5.511  19.388  0.00  0.00    +0.000 OA
ATOM      3  N   UNL     1       3.245   5.888  17.876  0.00  0.00    +0.000 N 
ATOM      4  H   UNL     1       2.861   5.569  16.996  0.00  0.00    +0.000 HD
ENDROOT
BRANCH   3   5
ATOM      5  C   UNL     1       2.809   7.154  18.333  0.00  0.00    +0.000 A 
ATOM      6  C   UNL     1       2.827   8.295  17.530  0.00  0.00    +0.000 A 
ATOM      7  C   UNL     1       2.096   9.422  17.893  0.00  0.00    +0.000 A 
ATOM      8  C   UNL     1       1.399   9.431  19.093  0.00  0.00    +0.000 A 
ATOM      9  C   UNL     1       1.617   8.410  20.020  0.00  0.00    +0.000 A 
ATOM     10  C   UNL     1       2.288   7.251  19.626  0.00  0.00    +0.000 A 
ATOM     11  O   UNL     1       1.392   8.561  21.361  0.00  0.00    +0.000 OA
ATOM     12  C   UNL     1       0.033   8.688  21.757  0.00  0.00    +0.000 C 
ATOM     13  C   UNL     1      -0.636   9.976  21.305  0.00  0.00    +0.000 C 
ATOM     14  C   UNL     1      -0.725  10.016  19.793  0.00  0.00    +0.000 C 
ATOM     15  O   UNL     1       0.529  10.469  19.268  0.00  0.00    +0.000 OA
ENDBRANCH   3   5
BRANCH   1  16
ATOM     16  C   UNL     1       4.715   3.981  17.585  0.00  0.00    +0.000 C 
BRANCH  16  17
ATOM     17  C   UNL     1       3.536   3.002  17.572  0.00  0.00    +0.000 C 
BRANCH  17  25
ATOM     18  C   UNL     1       4.947   1.988  19.961  0.00  0.00    +0.000 C 
ATOM     19  C   UNL     1       3.501   2.397  20.015  0.00  0.00    +0.000 A 
ATOM     20  C   UNL     1       2.835   2.340  21.181  0.00  0.00    +0.000 A 
ATOM     21  C   UNL     1       1.462   2.759  21.267  0.00  0.00    +0.000 A 
ATOM     22  C   UNL     1       0.828   3.260  20.207  0.00  0.00    +0.000 A 
ATOM     23  C   UNL     1       1.536   3.380  18.917  0.00  0.00    +0.000 A 
ATOM     24  O   UNL     1       0.954   3.895  17.968  0.00  0.00    +0.000 OA
ATOM     25  N   UNL     1       2.846   2.875  18.866  0.00  0.00    +0.000 N 
BRANCH  21  26
ATOM     26  O   UNL     1       0.828   2.645  22.484  0.00  0.00    +0.000 OA
ATOM     27  H   UNL     1       0.763   3.523  22.893  0.00  0.00    +0.000 HD
ENDBRANCH  21  26
ENDBRANCH  17  25
ENDBRANCH  16  17
ENDBRANCH   1  16
TORSDOF 5
ENDMDL
MODEL 7
REMARK VINA RESULT:      -7.4      1.854      2.391
REMARK  Name = 
REMARK  6 active torsions:
REMARK  status: ('A' for Active; 'I' for Inactive)
REMARK    1  A    between atoms: C_1  and  C_2
REMARK    2  A    between atoms: C_4  and  O_5
REMARK    3  A    between atoms: N_9  and  C_10
REMARK    4  A    between atoms: C_10  and  C_11
REMARK    5  A    between atoms: C_11  and  C_12
REMARK    6  A    between atoms: N_14  and  C_15
REMARK                            x       y       z     vdW  Elec       q    Type
REMARK                         _______ _______ _______ _____ _____    ______ ____
ROOT
ATOM      1  C   UNL     1       1.788   8.196  19.043  0.00  0.00    +0.000 C 
ATOM      2  O   UNL     1       2.114   8.533  17.906  0.00  0.00    +0.000 OA
ATOM      3  N   UNL     1       2.064   6.977  19.644  0.00  0.00    +0.000 N 
ATOM      4  H   UNL     1       1.835   6.873  20.624  0.00  0.00    +0.000 HD
ENDROOT
BRANCH   3   5
ATOM      5  C   UNL     1       2.869   5.964  19.072  0.00  0.00    +0.000 A 
ATOM      6  C   UNL     1       2.382   5.055  18.130  0.00  0.00    +0.000 A 
ATOM      7  C   UNL     1       3.263   4.305  17.357  0.00  0.00    +0.000 A 
ATOM      8  C   UNL     1       4.630   4.415  17.572  0.00  0.00    +0.000 A 
ATOM      9  C   UNL     1       5.094   5.098  18.698  0.00  0.00    +0.000 A 
ATOM     10  C   UNL     1       4.219   5.907  19.425  0.00  0.00    +0.000 A 
ATOM     11  O   UNL     1       6.318   4.860  19.261  0.00  0.00    +0.000 OA
ATOM     12  C   UNL     1       7.447   5.264  18.498  0.00  0.00    +0.000 C 
ATOM     13  C   UNL     1       7.664   4.465  17.223  0.00  0.00    +0.000 C 
ATOM     14  C   UNL     1       6.515   4.690  16.263  0.00  0.00    +0.000 C 
ATOM     15  O   UNL     1       5.429   3.831  16.631  0.00  0.00    +0.000 OA
ENDBRANCH   3   5
BRANCH   1  16
ATOM     16  C   UNL     1       1.103   9.182  19.961  0.00  0.00    +0.000 C 
BRANCH  16  17
ATOM     17  C   UNL     1       0.940  10.507  19.209  0.00  0.00    +0.000 C 
BRANCH  17  25
ATOM     18  C   UNL     1       0.267  12.578  21.206  0.00  0.00    +0.000 C 
ATOM     19  C   UNL     1      -0.754  12.066  20.227  0.00  0.00    +0.000 A 
ATOM     20  C   UNL     1      -1.995  12.582  20.227  0.00  0.00    +0.000 A 
ATOM     21  C   UNL     1      -2.979  12.135  19.279  0.00  0.00    +0.000 A 
ATOM     22  C   UNL     1      -2.675  11.234  18.345  0.00  0.00    +0.000 A 
ATOM     23  C   UNL     1      -1.311  10.673  18.283  0.00  0.00    +0.000 A 
ATOM     24  O   UNL     1      -1.034   9.887  17.381  0.00  0.00    +0.000 OA
ATOM     25  N   UNL     1      -0.415  11.078  19.286  0.00  0.00    +0.000 N 
BRANCH  21  26
ATOM     26  O   UNL     1      -4.241  12.681  19.352  0.00  0.00    +0.000 OA
ATOM     27  H   UNL     1      -4.462  12.850  20.283  0.00  0.00    +0.000 HD
ENDBRANCH  21  26
ENDBRANCH  17  25
ENDBRANCH  16  17
ENDBRANCH   1  16
TORSDOF 5
ENDMDL
MODEL 8
REMARK VINA RESULT:      -7.3      1.357      1.524
REMARK  Name = 
REMARK  6 active torsions:
REMARK  status: ('A' for Active; 'I' for Inactive)
REMARK    1  A    between atoms: C_1  and  C_2
REMARK    2  A    between atoms: C_4  and  O_5
REMARK    3  A    between atoms: N_9  and  C_10
REMARK    4  A    between atoms: C_10  and  C_11
REMARK    5  A    between atoms: C_11  and  C_12
REMARK    6  A    between atoms: N_14  and  C_15
REMARK                            x       y       z     vdW  Elec       q    Type
REMARK                         _______ _______ _______ _____ _____    ______ ____
ROOT
ATOM      1  C   UNL     1       1.747   8.153  19.140  0.00  0.00    +0.000 C 
ATOM      2  O   UNL     1       2.022   8.490  17.990  0.00  0.00    +0.000 OA
ATOM      3  N   UNL     1       2.068   6.942  19.735  0.00  0.00    +0.000 N 
ATOM      4  H   UNL     1       1.880   6.839  20.723  0.00  0.00    +0.000 HD
ENDROOT
BRANCH   3   5
ATOM      5  C   UNL     1       2.866   5.940  19.135  0.00  0.00    +0.000 A 
ATOM      6  C   UNL     1       2.366   5.043  18.189  0.00  0.00    +0.000 A 
ATOM      7  C   UNL     1       3.236   4.306  17.390  0.00  0.00    +0.000 A 
ATOM      8  C   UNL     1       4.606   4.418  17.583  0.00  0.00    +0.000 A 
ATOM      9  C   UNL     1       5.087   5.087  18.711  0.00  0.00    +0.000 A 
ATOM     10  C   UNL     1       4.222   5.883  19.464  0.00  0.00    +0.000 A 
ATOM     11  O   UNL     1       6.321   4.846  19.248  0.00  0.00    +0.000 OA
ATOM     12  C   UNL     1       7.436   5.265  18.472  0.00  0.00    +0.000 C 
ATOM     13  C   UNL     1       7.633   4.484  17.183  0.00  0.00    +0.000 C 
ATOM     14  C   UNL     1       6.467   4.718  16.246  0.00  0.00    +0.000 C 
ATOM     15  O   UNL     1       5.391   3.850  16.620  0.00  0.00    +0.000 OA
ENDBRANCH   3   5
BRANCH   1  16
ATOM     16  C   UNL     1       1.083   9.132  20.081  0.00  0.00    +0.000 C 
BRANCH  16  17
ATOM     17  C   UNL     1       1.086  10.514  19.419  0.00  0.00    +0.000 C 
BRANCH  17  25
ATOM     18  C   UNL     1      -1.179  10.078  17.572  0.00  0.00    +0.000 C 
ATOM     19  C   UNL     1      -1.266  11.062  18.707  0.00  0.00    +0.000 A 
ATOM     20  C   UNL     1      -2.408  11.736  18.918  0.00  0.00    +0.000 A 
ATOM     21  C   UNL     1      -2.529  12.656  20.017  0.00  0.00    +0.000 A 
ATOM     22  C   UNL     1      -1.530  12.828  20.883  0.00  0.00    +0.000 A 
ATOM     23  C   UNL     1      -0.273  12.074  20.712  0.00  0.00    +0.000 A 
ATOM     24  O   UNL     1       0.614  12.203  21.551  0.00  0.00    +0.000 OA
ATOM     25  N   UNL     1      -0.176  11.256  19.574  0.00  0.00    +0.000 N 
BRANCH  21  26
ATOM     26  O   UNL     1      -3.716  13.340  20.159  0.00  0.00    +0.000 OA
ATOM     27  H   UNL     1      -3.957  13.740  19.308  0.00  0.00    +0.000 HD
ENDBRANCH  21  26
ENDBRANCH  17  25
ENDBRANCH  16  17
ENDBRANCH   1  16
TORSDOF 5
ENDMDL
MODEL 9
REMARK VINA RESULT:      -7.2      2.252      8.671
REMARK  Name = 
REMARK  6 active torsions:
REMARK  status: ('A' for Active; 'I' for Inactive)
REMARK    1  A    between atoms: C_1  and  C_2
REMARK    2  A    between atoms: C_4  and  O_5
REMARK    3  A    between atoms: N_9  and  C_10
REMARK    4  A    between atoms: C_10  and  C_11
REMARK    5  A    between atoms: C_11  and  C_12
REMARK    6  A    between atoms: N_14  and  C_15
REMARK                            x       y       z     vdW  Elec       q    Type
REMARK                         _______ _______ _______ _____ _____    ______ ____
ROOT
ATOM      1  C   UNL     1       1.978   8.741  18.712  0.00  0.00    +0.000 C 
ATOM      2  O   UNL     1       1.823   9.843  18.189  0.00  0.00    +0.000 OA
ATOM      3  N   UNL     1       1.485   8.346  19.947  0.00  0.00    +0.000 N 
ATOM      4  H   UNL     1       1.591   7.375  20.207  0.00  0.00    +0.000 HD
ENDROOT
BRANCH   3   5
ATOM      5  C   UNL     1       0.626   9.126  20.755  0.00  0.00    +0.000 A 
ATOM      6  C   UNL     1       0.583   9.009  22.145  0.00  0.00    +0.000 A 
ATOM      7  C   UNL     1      -0.014  10.002  22.916  0.00  0.00    +0.000 A 
ATOM      8  C   UNL     1      -0.627  11.080  22.293  0.00  0.00    +0.000 A 
ATOM      9  C   UNL     1      -0.835  11.046  20.913  0.00  0.00    +0.000 A 
ATOM     10  C   UNL     1      -0.174  10.092  20.137  0.00  0.00    +0.000 A 
ATOM     11  O   UNL     1      -1.816  11.768  20.290  0.00  0.00    +0.000 OA
ATOM     12  C   UNL     1      -1.640  13.178  20.272  0.00  0.00    +0.000 C 
ATOM     13  C   UNL     1      -1.749  13.843  21.634  0.00  0.00    +0.000 C 
ATOM     14  C   UNL     1      -0.624  13.379  22.535  0.00  0.00    +0.000 C 
ATOM     15  O   UNL     1      -0.982  12.116  23.109  0.00  0.00    +0.000 OA
ENDBRANCH   3   5
BRANCH   1  16
ATOM     16  C   UNL     1       2.678   7.634  17.958  0.00  0.00    +0.000 C 
BRANCH  16  17
ATOM     17  C   UNL     1       3.198   6.613  18.976  0.00  0.00    +0.000 C 
BRANCH  17  25
ATOM     18  C   UNL     1       4.164   4.801  16.852  0.00  0.00    +0.000 C 
ATOM     19  C   UNL     1       3.083   4.385  17.811  0.00  0.00    +0.000 A 
ATOM     20  C   UNL     1       2.563   3.149  17.733  0.00  0.00    +0.000 A 
ATOM     21  C   UNL     1       1.553   2.714  18.660  0.00  0.00    +0.000 A 
ATOM     22  C   UNL     1       1.142   3.506  19.650  0.00  0.00    +0.000 A 
ATOM     23  C   UNL     1       1.718   4.856  19.798  0.00  0.00    +0.000 A 
ATOM     24  O   UNL     1       1.368   5.549  20.748  0.00  0.00    +0.000 OA
ATOM     25  N   UNL     1       2.635   5.263  18.814  0.00  0.00    +0.000 N 
BRANCH  21  26
ATOM     26  O   UNL     1       1.038   1.446  18.506  0.00  0.00    +0.000 OA
ATOM     27  H   UNL     1       1.768   0.805  18.487  0.00  0.00    +0.000 HD
ENDBRANCH  21  26
ENDBRANCH  17  25
ENDBRANCH  16  17
ENDBRANCH   1  16
TORSDOF 5
ENDMDL
