MODEL 1
REMARK VINA RESULT:      -6.8      0.000      0.000
REMARK  Name = 
REMARK  6 active torsions:
REMARK  status: ('A' for Active; 'I' for Inactive)
REMARK    1  A    between atoms: C_1  and  N_2
REMARK    2  A    between atoms: N_2  and  C_3
REMARK    3  A    between atoms: N_2  and  C_4
REMARK    4  A    between atoms: C_4  and  C_5
REMARK    5  A    between atoms: C_12  and  C_13
REMARK    6  A    between atoms: N_20  and  C_21
REMARK                            x       y       z     vdW  Elec       q    Type
REMARK                         _______ _______ _______ _____ _____    ______ ____
ROOT
ATOM      1  C   UNL     1       2.907   4.153  18.924  0.00  0.00    +0.000 C 
ATOM      2  C   UNL     1       3.036   5.578  18.360  0.00  0.00    +0.000 A 
ATOM      3  C   UNL     1       1.898   6.395  18.238  0.00  0.00    +0.000 A 
ATOM      4  C   UNL     1       1.999   7.727  17.837  0.00  0.00    +0.000 A 
ATOM      5  C   UNL     1       3.241   8.271  17.540  0.00  0.00    +0.000 A 
ATOM      6  C   UNL     1       4.377   7.468  17.598  0.00  0.00    +0.000 A 
ATOM      7  C   UNL     1       4.283   6.119  17.986  0.00  0.00    +0.000 A 
ATOM      8  C   UNL     1       5.513   5.234  17.900  0.00  0.00    +0.000 C 
ATOM      9  C   UNL     1       5.354   3.965  18.774  0.00  0.00    +0.000 C 
ATOM     10  N   UNL     1       4.065   3.299  18.541  0.00  0.00    +0.000 NA
ATOM     11  C   UNL     1       4.050   1.952  19.093  0.00  0.00    +0.000 C 
ENDROOT
BRANCH   8  12
ATOM     12  C   UNL     1       5.871   4.896  16.449  0.00  0.00    +0.000 A 
ATOM     13  C   UNL     1       7.150   5.187  15.950  0.00  0.00    +0.000 A 
ATOM     14  C   UNL     1       7.472   4.917  14.615  0.00  0.00    +0.000 A 
ATOM     15  C   UNL     1       6.524   4.352  13.765  0.00  0.00    +0.000 A 
ATOM     16  C   UNL     1       5.254   4.048  14.247  0.00  0.00    +0.000 A 
ATOM     17  C   UNL     1       4.931   4.321  15.577  0.00  0.00    +0.000 A 
ENDBRANCH   8  12
BRANCH   1  18
ATOM     18  C   UNL     1       2.616   4.187  20.475  0.00  0.00    +0.000 C 
BRANCH  18  20
ATOM     19  C   UNL     1       0.537   3.042  19.872  0.00  0.00    +0.000 C 
ATOM     20  N   UNL     1       1.348   3.587  20.961  0.00  0.00    +0.000 NA
ATOM     21  C   UNL     1       1.641   2.526  21.929  0.00  0.00    +0.000 C 
ENDBRANCH  18  20
ENDBRANCH   1  18
TORSDOF 3
ENDMDL
MODEL 2
REMARK VINA RESULT:      -6.7      0.071      1.054
REMARK  Name = 
REMARK  6 active torsions:
REMARK  status: ('A' for Active; 'I' for Inactive)
REMARK    1  A    between atoms: C_1  and  N_2
REMARK    2  A    between atoms: N_2  and  C_3
REMARK    3  A    between atoms: N_2  and  C_4
REMARK    4  A    between atoms: C_4  and  C_5
REMARK    5  A    between atoms: C_12  and  C_13
REMARK    6  A    between atoms: N_20  and  C_21
REMARK                            x       y       z     vdW  Elec       q    Type
REMARK                         _______ _______ _______ _____ _____    ______ ____
ROOT
ATOM      1  C   UNL     1       2.913   4.123  18.857  0.00  0.00    +0.000 C 
ATOM      2  C   UNL     1       3.033   5.560  18.322  0.00  0.00    +0.000 A 
ATOM      3  C   UNL     1       1.891   6.373  18.220  0.00  0.00    +0.000 A 
ATOM      4  C   UNL     1       1.984   7.714  17.846  0.00  0.00    +0.000 A 
ATOM      5  C   UNL     1       3.223   8.271  17.557  0.00  0.00    +0.000 A 
ATOM      6  C   UNL     1       4.363   7.473  17.596  0.00  0.00    +0.000 A 
ATOM      7  C   UNL     1       4.277   6.116  17.956  0.00  0.00    +0.000 A 
ATOM      8  C   UNL     1       5.511   5.238  17.849  0.00  0.00    +0.000 C 
ATOM      9  C   UNL     1       5.361   3.951  18.697  0.00  0.00    +0.000 C 
ATOM     10  N   UNL     1       4.075   3.283  18.454  0.00  0.00    +0.000 NA
ATOM     11  C   UNL     1       4.068   1.925  18.977  0.00  0.00    +0.000 C 
ENDROOT
BRANCH   8  12
ATOM     12  C   UNL     1       5.868   4.932  16.391  0.00  0.00    +0.000 A 
ATOM     13  C   UNL     1       4.909   4.376  15.529  0.00  0.00    +0.000 A 
ATOM     14  C   UNL     1       5.238   4.057  14.208  0.00  0.00    +0.000 A 
ATOM     15  C   UNL     1       6.526   4.291  13.729  0.00  0.00    +0.000 A 
ATOM     16  C   UNL     1       7.486   4.850  14.567  0.00  0.00    +0.000 A 
ATOM     17  C   UNL     1       7.159   5.164  15.887  0.00  0.00    +0.000 A 
ENDBRANCH   8  12
BRANCH   1  18
ATOM     18  C   UNL     1       2.626   4.124  20.409  0.00  0.00    +0.000 C 
BRANCH  18  20
ATOM     19  C   UNL     1       0.566   2.953  19.793  0.00  0.00    +0.000 C 
ATOM     20  N   UNL     1       1.348   3.536  20.883  0.00  0.00    +0.000 NA
ATOM     21  C   UNL     1       1.620   2.509  21.893  0.00  0.00    +0.000 C 
ENDBRANCH  18  20
ENDBRANCH   1  18
TORSDOF 3
ENDMDL
MODEL 3
REMARK VINA RESULT:      -6.4      1.959      5.886
REMARK  Name = 
REMARK  6 active torsions:
REMARK  status: ('A' for Active; 'I' for Inactive)
REMARK    1  A    between atoms: C_1  and  N_2
REMARK    2  A    between atoms: N_2  and  C_3
REMARK    3  A    between atoms: N_2  and  C_4
REMARK    4  A    between atoms: C_4  and  C_5
REMARK    5  A    between atoms: C_12  and  C_13
REMARK    6  A    between atoms: N_20  and  C_21
REMARK                            x       y       z     vdW  Elec       q    Type
REMARK                         _______ _______ _______ _____ _____    ______ ____
ROOT
ATOM      1  C   UNL     1       3.997   5.009  17.178  0.00  0.00    +0.000 C 
ATOM      2  C   UNL     1       2.827   4.484  18.027  0.00  0.00    +0.000 A 
ATOM      3  C   UNL     1       2.061   3.394  17.577  0.00  0.00    +0.000 A 
ATOM      4  C   UNL     1       1.069   2.824  18.375  0.00  0.00    +0.000 A 
ATOM      5  C   UNL     1       0.812   3.339  19.638  0.00  0.00    +0.000 A 
ATOM      6  C   UNL     1       1.517   4.453  20.085  0.00  0.00    +0.000 A 
ATOM      7  C   UNL     1       2.509   5.044  19.281  0.00  0.00    +0.000 A 
ATOM      8  C   UNL     1       3.157   6.341  19.734  0.00  0.00    +0.000 C 
ATOM      9  C   UNL     1       4.498   6.585  18.999  0.00  0.00    +0.000 C 
ATOM     10  N   UNL     1       4.366   6.404  17.546  0.00  0.00    +0.000 NA
ATOM     11  C   UNL     1       5.510   6.950  16.832  0.00  0.00    +0.000 C 
ENDROOT
BRANCH   8  12
ATOM     12  C   UNL     1       2.201   7.531  19.603  0.00  0.00    +0.000 A 
ATOM     13  C   UNL     1       2.031   8.170  18.365  0.00  0.00    +0.000 A 
ATOM     14  C   UNL     1       1.190   9.281  18.246  0.00  0.00    +0.000 A 
ATOM     15  C   UNL     1       0.507   9.767  19.360  0.00  0.00    +0.000 A 
ATOM     16  C   UNL     1       0.658   9.140  20.593  0.00  0.00    +0.000 A 
ATOM     17  C   UNL     1       1.500   8.033  20.713  0.00  0.00    +0.000 A 
ENDBRANCH   8  12
BRANCH   1  18
ATOM     18  C   UNL     1       5.207   3.995  17.201  0.00  0.00    +0.000 C 
BRANCH  18  20
ATOM     19  C   UNL     1       5.158   4.215  14.762  0.00  0.00    +0.000 C 
ATOM     20  N   UNL     1       5.891   3.696  15.918  0.00  0.00    +0.000 NA
ATOM     21  C   UNL     1       7.243   4.264  15.934  0.00  0.00    +0.000 C 
ENDBRANCH  18  20
ENDBRANCH   1  18
TORSDOF 3
ENDMDL
MODEL 4
REMARK VINA RESULT:      -6.3      1.968      5.885
REMARK  Name = 
REMARK  6 active torsions:
REMARK  status: ('A' for Active; 'I' for Inactive)
REMARK    1  A    between atoms: C_1  and  N_2
REMARK    2  A    between atoms: N_2  and  C_3
REMARK    3  A    between atoms: N_2  and  C_4
REMARK    4  A    between atoms: C_4  and  C_5
REMARK    5  A    between atoms: C_12  and  C_13
REMARK    6  A    between atoms: N_20  and  C_21
REMARK                            x       y       z     vdW  Elec       q    Type
REMARK                         _______ _______ _______ _____ _____    ______ ____
ROOT
ATOM      1  C   UNL     1       4.007   5.021  17.158  0.00  0.00    +0.000 C 
ATOM      2  C   UNL     1       2.834   4.512  18.013  0.00  0.00    +0.000 A 
ATOM      3  C   UNL     1       2.060   3.424  17.574  0.00  0.00    +0.000 A 
ATOM      4  C   UNL     1       1.064   2.868  18.377  0.00  0.00    +0.000 A 
ATOM      5  C   UNL     1       0.813   3.396  19.637  0.00  0.00    +0.000 A 
ATOM      6  C   UNL     1       1.527   4.509  20.073  0.00  0.00    +0.000 A 
ATOM      7  C   UNL     1       2.522   5.086  19.263  0.00  0.00    +0.000 A 
ATOM      8  C   UNL     1       3.180   6.381  19.703  0.00  0.00    +0.000 C 
ATOM      9  C   UNL     1       4.522   6.609  18.964  0.00  0.00    +0.000 C 
ATOM     10  N   UNL     1       4.387   6.417  17.513  0.00  0.00    +0.000 NA
ATOM     11  C   UNL     1       5.534   6.948  16.793  0.00  0.00    +0.000 C 
ENDROOT
BRANCH   8  12
ATOM     12  C   UNL     1       2.233   7.577  19.563  0.00  0.00    +0.000 A 
ATOM     13  C   UNL     1       1.525   8.054  20.677  0.00  0.00    +0.000 A 
ATOM     14  C   UNL     1       0.628   9.120  20.548  0.00  0.00    +0.000 A 
ATOM     15  C   UNL     1       0.430   9.725  19.309  0.00  0.00    +0.000 A 
ATOM     16  C   UNL     1       1.131   9.271  18.196  0.00  0.00    +0.000 A 
ATOM     17  C   UNL     1       2.022   8.204  18.323  0.00  0.00    +0.000 A 
ENDBRANCH   8  12
BRANCH   1  18
ATOM     18  C   UNL     1       5.209   3.998  17.188  0.00  0.00    +0.000 C 
BRANCH  18  20
ATOM     19  C   UNL     1       5.157   4.191  14.747  0.00  0.00    +0.000 C 
ATOM     20  N   UNL     1       5.893   3.686  15.907  0.00  0.00    +0.000 NA
ATOM     21  C   UNL     1       7.243   4.256  15.915  0.00  0.00    +0.000 C 
ENDBRANCH  18  20
ENDBRANCH   1  18
TORSDOF 3
ENDMDL
MODEL 5
REMARK VINA RESULT:      -6.1      2.109      4.211
REMARK  Name = 
REMARK  6 active torsions:
REMARK  status: ('A' for Active; 'I' for Inactive)
REMARK    1  A    between atoms: C_1  and  N_2
REMARK    2  A    between atoms: N_2  and  C_3
REMARK    3  A    between atoms: N_2  and  C_4
REMARK    4  A    between atoms: C_4  and  C_5
REMARK    5  A    between atoms: C_12  and  C_13
REMARK    6  A    between atoms: N_20  and  C_21
REMARK                            x       y       z     vdW  Elec       q    Type
REMARK                         _______ _______ _______ _____ _____    ______ ____
ROOT
ATOM      1  C   UNL     1       4.060   4.216  17.718  0.00  0.00    +0.000 C 
ATOM      2  C   UNL     1       4.936   4.352  16.461  0.00  0.00    +0.000 A 
ATOM      3  C   UNL     1       5.341   3.206  15.755  0.00  0.00    +0.000 A 
ATOM      4  C   UNL     1       6.040   3.302  14.551  0.00  0.00    +0.000 A 
ATOM      5  C   UNL     1       6.358   4.549  14.030  0.00  0.00    +0.000 A 
ATOM      6  C   UNL     1       6.018   5.699  14.738  0.00  0.00    +0.000 A 
ATOM      7  C   UNL     1       5.328   5.611  15.961  0.00  0.00    +0.000 A 
ATOM      8  C   UNL     1       5.100   6.870  16.778  0.00  0.00    +0.000 C 
ATOM      9  C   UNL     1       3.963   6.672  17.811  0.00  0.00    +0.000 C 
ATOM     10  N   UNL     1       4.132   5.430  18.578  0.00  0.00    +0.000 NA
ATOM     11  C   UNL     1       3.278   5.405  19.755  0.00  0.00    +0.000 C 
ENDROOT
BRANCH   8  12
ATOM     12  C   UNL     1       6.394   7.368  17.430  0.00  0.00    +0.000 A 
ATOM     13  C   UNL     1       7.176   6.498  18.205  0.00  0.00    +0.000 A 
ATOM     14  C   UNL     1       8.338   6.955  18.836  0.00  0.00    +0.000 A 
ATOM     15  C   UNL     1       8.734   8.284  18.699  0.00  0.00    +0.000 A 
ATOM     16  C   UNL     1       7.975   9.157  17.927  0.00  0.00    +0.000 A 
ATOM     17  C   UNL     1       6.813   8.703  17.301  0.00  0.00    +0.000 A 
ENDBRANCH   8  12
BRANCH   1  18
ATOM     18  C   UNL     1       2.590   3.786  17.333  0.00  0.00    +0.000 C 
BRANCH  18  20
ATOM     19  C   UNL     1       3.189   1.653  18.377  0.00  0.00    +0.000 C 
ATOM     20  N   UNL     1       2.127   2.437  17.746  0.00  0.00    +0.000 NA
ATOM     21  C   UNL     1       0.997   2.563  18.671  0.00  0.00    +0.000 C 
ENDBRANCH  18  20
ENDBRANCH   1  18
TORSDOF 3
ENDMDL
MODEL 6
REMARK VINA RESULT:      -6.1      2.076      4.178
REMARK  Name = 
REMARK  6 active torsions:
REMARK  status: ('A' for Active; 'I' for Inactive)
REMARK    1  A    between atoms: C_1  and  N_2
REMARK    2  A    between atoms: N_2  and  C_3
REMARK    3  A    between atoms: N_2  and  C_4
REMARK    4  A    between atoms: C_4  and  C_5
REMARK    5  A    between atoms: C_12  and  C_13
REMARK    6  A    between atoms: N_20  and  C_21
REMARK                            x       y       z     vdW  Elec       q    Type
REMARK                         _______ _______ _______ _____ _____    ______ ____
ROOT
ATOM      1  C   UNL     1       4.113   4.042  17.629  0.00  0.00    +0.000 C 
ATOM      2  C   UNL     1       4.968   4.284  16.373  0.00  0.00    +0.000 A 
ATOM      3  C   UNL     1       5.405   3.198  15.596  0.00  0.00    +0.000 A 
ATOM      4  C   UNL     1       6.084   3.391  14.392  0.00  0.00    +0.000 A 
ATOM      5  C   UNL     1       6.351   4.677  13.944  0.00  0.00    +0.000 A 
ATOM      6  C   UNL     1       5.979   5.770  14.723  0.00  0.00    +0.000 A 
ATOM      7  C   UNL     1       5.308   5.584  15.945  0.00  0.00    +0.000 A 
ATOM      8  C   UNL     1       5.046   6.783  16.839  0.00  0.00    +0.000 C 
ATOM      9  C   UNL     1       3.931   6.483  17.870  0.00  0.00    +0.000 C 
ATOM     10  N   UNL     1       4.154   5.204  18.560  0.00  0.00    +0.000 NA
ATOM     11  C   UNL     1       3.316   5.079  19.743  0.00  0.00    +0.000 C 
ENDROOT
BRANCH   8  12
ATOM     12  C   UNL     1       6.330   7.288  17.506  0.00  0.00    +0.000 A 
ATOM     13  C   UNL     1       6.759   8.609  17.306  0.00  0.00    +0.000 A 
ATOM     14  C   UNL     1       7.951   9.065  17.879  0.00  0.00    +0.000 A 
ATOM     15  C   UNL     1       8.726   8.211  18.660  0.00  0.00    +0.000 A 
ATOM     16  C   UNL     1       8.310   6.901  18.876  0.00  0.00    +0.000 A 
ATOM     17  C   UNL     1       7.123   6.444  18.301  0.00  0.00    +0.000 A 
ENDBRANCH   8  12
BRANCH   1  18
ATOM     18  C   UNL     1       2.655   3.582  17.235  0.00  0.00    +0.000 C 
BRANCH  18  20
ATOM     19  C   UNL     1       3.245   1.507  18.393  0.00  0.00    +0.000 C 
ATOM     20  N   UNL     1       2.187   2.258  17.715  0.00  0.00    +0.000 NA
ATOM     21  C   UNL     1       1.052   2.434  18.626  0.00  0.00    +0.000 C 
ENDBRANCH  18  20
ENDBRANCH   1  18
TORSDOF 3
ENDMDL
MODEL 7
REMARK VINA RESULT:      -6.1      1.969      4.996
REMARK  Name = 
REMARK  6 active torsions:
REMARK  status: ('A' for Active; 'I' for Inactive)
REMARK    1  A    between atoms: C_1  and  N_2
REMARK    2  A    between atoms: N_2  and  C_3
REMARK    3  A    between atoms: N_2  and  C_4
REMARK    4  A    between atoms: C_4  and  C_5
REMARK    5  A    between atoms: C_12  and  C_13
REMARK    6  A    between atoms: N_20  and  C_21
REMARK                            x       y       z     vdW  Elec       q    Type
REMARK                         _______ _______ _______ _____ _____    ______ ____
ROOT
ATOM      1  C   UNL     1       4.150   4.543  19.979  0.00  0.00    +0.000 C 
ATOM      2  C   UNL     1       4.869   5.490  19.003  0.00  0.00    +0.000 A 
ATOM      3  C   UNL     1       6.269   5.615  19.043  0.00  0.00    +0.000 A 
ATOM      4  C   UNL     1       6.958   6.377  18.099  0.00  0.00    +0.000 A 
ATOM      5  C   UNL     1       6.260   7.040  17.098  0.00  0.00    +0.000 A 
ATOM      6  C   UNL     1       4.870   6.978  17.070  0.00  0.00    +0.000 A 
ATOM      7  C   UNL     1       4.166   6.225  18.027  0.00  0.00    +0.000 A 
ATOM      8  C   UNL     1       2.649   6.293  18.057  0.00  0.00    +0.000 C 
ATOM      9  C   UNL     1       2.047   5.092  18.827  0.00  0.00    +0.000 C 
ATOM     10  N   UNL     1       2.708   4.887  20.123  0.00  0.00    +0.000 NA
ATOM     11  C   UNL     1       1.942   3.995  20.981  0.00  0.00    +0.000 C 
ENDROOT
BRANCH   8  12
ATOM     12  C   UNL     1       2.151   7.636  18.601  0.00  0.00    +0.000 A 
ATOM     13  C   UNL     1       1.835   7.776  19.962  0.00  0.00    +0.000 A 
ATOM     14  C   UNL     1       1.342   8.987  20.458  0.00  0.00    +0.000 A 
ATOM     15  C   UNL     1       1.161  10.074  19.605  0.00  0.00    +0.000 A 
ATOM     16  C   UNL     1       1.477   9.955  18.255  0.00  0.00    +0.000 A 
ATOM     17  C   UNL     1       1.965   8.745  17.758  0.00  0.00    +0.000 A 
ENDBRANCH   8  12
BRANCH   1  18
ATOM     18  C   UNL     1       4.417   3.034  19.597  0.00  0.00    +0.000 C 
BRANCH  18  20
ATOM     19  C   UNL     1       4.430   2.835  17.156  0.00  0.00    +0.000 C 
ATOM     20  N   UNL     1       3.736   2.487  18.397  0.00  0.00    +0.000 NA
ATOM     21  C   UNL     1       3.635   1.029  18.507  0.00  0.00    +0.000 C 
ENDBRANCH  18  20
ENDBRANCH   1  18
TORSDOF 3
ENDMDL
MODEL 8
REMARK VINA RESULT:      -6.0      0.840      1.057
REMARK  Name = 
REMARK  6 active torsions:
REMARK  status: ('A' for Active; 'I' for Inactive)
REMARK    1  A    between atoms: C_1  and  N_2
REMARK    2  A    between atoms: N_2  and  C_3
REMARK    3  A    between atoms: N_2  and  C_4
REMARK    4  A    between atoms: C_4  and  C_5
REMARK    5  A    between atoms: C_12  and  C_13
REMARK    6  A    between atoms: N_20  and  C_21
REMARK                            x       y       z     vdW  Elec       q    Type
REMARK                         _______ _______ _______ _____ _____    ______ ____
ROOT
ATOM      1  C   UNL     1       2.054   3.992  18.073  0.00  0.00    +0.000 C 
ATOM      2  C   UNL     1       2.491   5.457  17.908  0.00  0.00    +0.000 A 
ATOM      3  C   UNL     1       1.527   6.466  17.731  0.00  0.00    +0.000 A 
ATOM      4  C   UNL     1       1.885   7.814  17.692  0.00  0.00    +0.000 A 
ATOM      5  C   UNL     1       3.217   8.184  17.819  0.00  0.00    +0.000 A 
ATOM      6  C   UNL     1       4.196   7.202  17.939  0.00  0.00    +0.000 A 
ATOM      7  C   UNL     1       3.847   5.839  17.963  0.00  0.00    +0.000 A 
ATOM      8  C   UNL     1       4.945   4.790  17.949  0.00  0.00    +0.000 C 
ATOM      9  C   UNL     1       4.418   3.419  18.437  0.00  0.00    +0.000 C 
ATOM     10  N   UNL     1       3.163   3.045  17.769  0.00  0.00    +0.000 NA
ATOM     11  C   UNL     1       2.847   1.639  17.967  0.00  0.00    +0.000 C 
ENDROOT
BRANCH   8  12
ATOM     12  C   UNL     1       5.622   4.694  16.578  0.00  0.00    +0.000 A 
ATOM     13  C   UNL     1       6.954   5.108  16.416  0.00  0.00    +0.000 A 
ATOM     14  C   UNL     1       7.566   5.061  15.159  0.00  0.00    +0.000 A 
ATOM     15  C   UNL     1       6.860   4.598  14.051  0.00  0.00    +0.000 A 
ATOM     16  C   UNL     1       5.543   4.176  14.196  0.00  0.00    +0.000 A 
ATOM     17  C   UNL     1       4.929   4.226  15.449  0.00  0.00    +0.000 A 
ENDBRANCH   8  12
BRANCH   1  18
ATOM     18  C   UNL     1       1.379   3.763  19.482  0.00  0.00    +0.000 C 
BRANCH  18  20
ATOM     19  C   UNL     1       2.111   5.266  21.272  0.00  0.00    +0.000 C 
ATOM     20  N   UNL     1       2.221   3.926  20.694  0.00  0.00    +0.000 NA
ATOM     21  C   UNL     1       1.841   2.928  21.698  0.00  0.00    +0.000 C 
ENDBRANCH  18  20
ENDBRANCH   1  18
TORSDOF 3
ENDMDL
MODEL 9
REMARK VINA RESULT:      -6.0      1.973      4.984
REMARK  Name = 
REMARK  6 active torsions:
REMARK  status: ('A' for Active; 'I' for Inactive)
REMARK    1  A    between atoms: C_1  and  N_2
REMARK    2  A    between atoms: N_2  and  C_3
REMARK    3  A    between atoms: N_2  and  C_4
REMARK    4  A    between atoms: C_4  and  C_5
REMARK    5  A    between atoms: C_12  and  C_13
REMARK    6  A    between atoms: N_20  and  C_21
REMARK                            x       y       z     vdW  Elec       q    Type
REMARK                         _______ _______ _______ _____ _____    ______ ____
ROOT
ATOM      1  C   UNL     1       4.131   4.528  19.983  0.00  0.00    +0.000 C 
ATOM      2  C   UNL     1       4.839   5.485  19.009  0.00  0.00    +0.000 A 
ATOM      3  C   UNL     1       6.237   5.627  19.049  0.00  0.00    +0.000 A 
ATOM      4  C   UNL     1       6.917   6.398  18.107  0.00  0.00    +0.000 A 
ATOM      5  C   UNL     1       6.212   7.054  17.106  0.00  0.00    +0.000 A 
ATOM      6  C   UNL     1       4.822   6.976  17.078  0.00  0.00    +0.000 A 
ATOM      7  C   UNL     1       4.127   6.213  18.033  0.00  0.00    +0.000 A 
ATOM      8  C   UNL     1       2.610   6.263  18.064  0.00  0.00    +0.000 C 
ATOM      9  C   UNL     1       2.023   5.054  18.832  0.00  0.00    +0.000 C 
ATOM     10  N   UNL     1       2.685   4.855  20.128  0.00  0.00    +0.000 NA
ATOM     11  C   UNL     1       1.930   3.953  20.985  0.00  0.00    +0.000 C 
ENDROOT
BRANCH   8  12
ATOM     12  C   UNL     1       2.096   7.600  18.610  0.00  0.00    +0.000 A 
ATOM     13  C   UNL     1       1.916   8.694  17.749  0.00  0.00    +0.000 A 
ATOM     14  C   UNL     1       1.485   9.928  18.247  0.00  0.00    +0.000 A 
ATOM     15  C   UNL     1       1.225  10.085  19.607  0.00  0.00    +0.000 A 
ATOM     16  C   UNL     1       1.390   9.008  20.472  0.00  0.00    +0.000 A 
ATOM     17  C   UNL     1       1.824   7.777  19.977  0.00  0.00    +0.000 A 
ENDBRANCH   8  12
BRANCH   1  18
ATOM     18  C   UNL     1       4.417   3.023  19.600  0.00  0.00    +0.000 C 
BRANCH  18  20
ATOM     19  C   UNL     1       4.425   2.824  17.159  0.00  0.00    +0.000 C 
ATOM     20  N   UNL     1       3.739   2.468  18.401  0.00  0.00    +0.000 NA
ATOM     21  C   UNL     1       3.654   1.009  18.512  0.00  0.00    +0.000 C 
ENDBRANCH  18  20
ENDBRANCH   1  18
TORSDOF 3
ENDMDL
