MODEL 1
REMARK VINA RESULT:      -7.6      0.000      0.000
REMARK  Name = 
REMARK  7 active torsions:
REMARK  status: ('A' for Active; 'I' for Inactive)
REMARK    1  A    between atoms: C_1  and  C_2
REMARK    2  A    between atoms: C_2  and  C_13
REMARK    3  A    between atoms: C_3  and  C_4
REMARK    4  A    between atoms: C_7  and  C_8
REMARK    5  A    between atoms: C_8  and  O_10
REMARK    6  A    between atoms: C_16  and  C_17
REMARK    7  A    between atoms: C_18  and  C_19
REMARK                            x       y       z     vdW  Elec       q    Type
REMARK                         _______ _______ _______ _____ _____    ______ ____
ROOT
ATOM      1  C   UNL     1       2.031   8.948  17.453  0.00  0.00    +0.000 C 
ATOM      2  C   UNL     1       2.089   8.174  18.738  0.00  0.00    +0.000 C 
ATOM      3  C   UNL     1       2.806   7.053  18.950  0.00  0.00    +0.000 C 
ENDROOT
BRANCH   2   4
ATOM      4  C   UNL     1       1.293   8.727  19.854  0.00  0.00    +0.000 A 
ATOM      5  C   UNL     1       1.375   8.182  21.136  0.00  0.00    +0.000 A 
ATOM      6  C   UNL     1       0.629   8.730  22.186  0.00  0.00    +0.000 A 
ATOM      7  C   UNL     1      -0.213   9.835  21.983  0.00  0.00    +0.000 A 
ATOM      8  C   UNL     1      -0.972  10.403  23.152  0.00  0.00    +0.000 C 
ATOM      9  C   UNL     1      -0.310  10.386  20.690  0.00  0.00    +0.000 A 
ATOM     10  C   UNL     1      -1.184  11.567  20.365  0.00  0.00    +0.000 C 
ATOM     11  C   UNL     1       0.450   9.825  19.643  0.00  0.00    +0.000 A 
ENDBRANCH   2   4
BRANCH   3  12
ATOM     12  C   UNL     1       3.686   6.417  17.963  0.00  0.00    +0.000 A 
ATOM     13  C   UNL     1       4.693   7.158  17.339  0.00  0.00    +0.000 A 
ATOM     14  C   UNL     1       5.569   6.546  16.436  0.00  0.00    +0.000 A 
ATOM     15  C   UNL     1       5.443   5.180  16.141  0.00  0.00    +0.000 A 
ATOM     16  C   UNL     1       4.427   4.438  16.756  0.00  0.00    +0.000 A 
ATOM     17  C   UNL     1       3.547   5.059  17.655  0.00  0.00    +0.000 A 
BRANCH  15  18
ATOM     18  C   UNL     1       6.451   4.576  15.225  0.00  0.00    +0.000 C 
ATOM     19  O   UNL     1       7.484   5.148  14.921  0.00  0.00    +0.000 OA
BRANCH  18  20
ATOM     20  O   UNL     1       6.123   3.362  14.737  0.00  0.00    +0.000 OA
ATOM     21  H   UNL     1       5.433   2.878  15.222  0.00  0.00    +0.000 HD
ENDBRANCH  18  20
ENDBRANCH  15  18
ENDBRANCH   3  12
TORSDOF 4
ENDMDL
MODEL 2
REMARK VINA RESULT:      -7.4      0.531      1.203
REMARK  Name = 
REMARK  7 active torsions:
REMARK  status: ('A' for Active; 'I' for Inactive)
REMARK    1  A    between atoms: C_1  and  C_2
REMARK    2  A    between atoms: C_2  and  C_13
REMARK    3  A    between atoms: C_3  and  C_4
REMARK    4  A    between atoms: C_7  and  C_8
REMARK    5  A    between atoms: C_8  and  O_10
REMARK    6  A    between atoms: C_16  and  C_17
REMARK    7  A    between atoms: C_18  and  C_19
REMARK                            x       y       z     vdW  Elec       q    Type
REMARK                         _______ _______ _______ _____ _____    ______ ____
ROOT
ATOM      1  C   UNL     1       1.891   8.945  17.564  0.00  0.00    +0.000 C 
ATOM      2  C   UNL     1       1.916   8.243  18.891  0.00  0.00    +0.000 C 
ATOM      3  C   UNL     1       2.597   7.116  19.173  0.00  0.00    +0.000 C 
ENDROOT
BRANCH   2   4
ATOM      4  C   UNL     1       1.127   8.881  19.965  0.00  0.00    +0.000 A 
ATOM      5  C   UNL     1       1.162   8.391  21.272  0.00  0.00    +0.000 A 
ATOM      6  C   UNL     1       0.424   9.020  22.282  0.00  0.00    +0.000 A 
ATOM      7  C   UNL     1      -0.362  10.151  22.015  0.00  0.00    +0.000 A 
ATOM      8  C   UNL     1      -1.114  10.805  23.143  0.00  0.00    +0.000 C 
ATOM      9  C   UNL     1      -0.411  10.648  20.697  0.00  0.00    +0.000 A 
ATOM     10  C   UNL     1      -1.224  11.851  20.304  0.00  0.00    +0.000 C 
ATOM     11  C   UNL     1       0.340  10.006  19.690  0.00  0.00    +0.000 A 
ENDBRANCH   2   4
BRANCH   3  12
ATOM     12  C   UNL     1       3.466   6.399  18.231  0.00  0.00    +0.000 A 
ATOM     13  C   UNL     1       3.264   5.038  17.988  0.00  0.00    +0.000 A 
ATOM     14  C   UNL     1       4.054   4.359  17.054  0.00  0.00    +0.000 A 
ATOM     15  C   UNL     1       5.064   5.037  16.354  0.00  0.00    +0.000 A 
ATOM     16  C   UNL     1       5.276   6.398  16.605  0.00  0.00    +0.000 A 
ATOM     17  C   UNL     1       4.485   7.072  17.548  0.00  0.00    +0.000 A 
BRANCH  15  18
ATOM     18  C   UNL     1       5.821   4.273  15.323  0.00  0.00    +0.000 C 
ATOM     19  O   UNL     1       6.197   4.778  14.279  0.00  0.00    +0.000 OA
BRANCH  18  20
ATOM     20  O   UNL     1       6.035   2.974  15.619  0.00  0.00    +0.000 OA
ATOM     21  H   UNL     1       6.917   2.626  15.401  0.00  0.00    +0.000 HD
ENDBRANCH  18  20
ENDBRANCH  15  18
ENDBRANCH   3  12
TORSDOF 4
ENDMDL
MODEL 3
REMARK VINA RESULT:      -7.2      4.573      8.287
REMARK  Name = 
REMARK  7 active torsions:
REMARK  status: ('A' for Active; 'I' for Inactive)
REMARK    1  A    between atoms: C_1  and  C_2
REMARK    2  A    between atoms: C_2  and  C_13
REMARK    3  A    between atoms: C_3  and  C_4
REMARK    4  A    between atoms: C_7  and  C_8
REMARK    5  A    between atoms: C_8  and  O_10
REMARK    6  A    between atoms: C_16  and  C_17
REMARK    7  A    between atoms: C_18  and  C_19
REMARK                            x       y       z     vdW  Elec       q    Type
REMARK                         _______ _______ _______ _____ _____    ______ ____
ROOT
ATOM      1  C   UNL     1       2.087   7.431  19.882  0.00  0.00    +0.000 C 
ATOM      2  C   UNL     1       2.344   7.671  18.422  0.00  0.00    +0.000 C 
ATOM      3  C   UNL     1       1.853   8.692  17.694  0.00  0.00    +0.000 C 
ENDROOT
BRANCH   2   4
ATOM      4  C   UNL     1       3.232   6.693  17.761  0.00  0.00    +0.000 A 
ATOM      5  C   UNL     1       4.333   7.111  17.012  0.00  0.00    +0.000 A 
ATOM      6  C   UNL     1       5.176   6.170  16.408  0.00  0.00    +0.000 A 
ATOM      7  C   UNL     1       4.943   4.792  16.539  0.00  0.00    +0.000 A 
ATOM      8  C   UNL     1       5.895   3.823  15.892  0.00  0.00    +0.000 C 
ATOM      9  C   UNL     1       3.829   4.360  17.285  0.00  0.00    +0.000 A 
ATOM     10  C   UNL     1       3.489   2.908  17.484  0.00  0.00    +0.000 C 
ATOM     11  C   UNL     1       2.990   5.319  17.890  0.00  0.00    +0.000 A 
ENDBRANCH   2   4
BRANCH   3  12
ATOM     12  C   UNL     1       1.006   9.770  18.219  0.00  0.00    +0.000 A 
ATOM     13  C   UNL     1       1.581  10.840  18.910  0.00  0.00    +0.000 A 
ATOM     14  C   UNL     1       0.787  11.897  19.368  0.00  0.00    +0.000 A 
ATOM     15  C   UNL     1      -0.598  11.893  19.143  0.00  0.00    +0.000 A 
ATOM     16  C   UNL     1      -1.178  10.816  18.462  0.00  0.00    +0.000 A 
ATOM     17  C   UNL     1      -0.378   9.755  18.011  0.00  0.00    +0.000 A 
BRANCH  15  18
ATOM     18  C   UNL     1      -1.374  13.082  19.595  0.00  0.00    +0.000 C 
ATOM     19  O   UNL     1      -2.316  12.995  20.363  0.00  0.00    +0.000 OA
BRANCH  18  20
ATOM     20  O   UNL     1      -0.973  14.258  19.069  0.00  0.00    +0.000 OA
ATOM     21  H   UNL     1      -0.224  14.692  19.512  0.00  0.00    +0.000 HD
ENDBRANCH  18  20
ENDBRANCH  15  18
ENDBRANCH   3  12
TORSDOF 4
ENDMDL
MODEL 4
REMARK VINA RESULT:      -7.2      2.855      3.392
REMARK  Name = 
REMARK  7 active torsions:
REMARK  status: ('A' for Active; 'I' for Inactive)
REMARK    1  A    between atoms: C_1  and  C_2
REMARK    2  A    between atoms: C_2  and  C_13
REMARK    3  A    between atoms: C_3  and  C_4
REMARK    4  A    between atoms: C_7  and  C_8
REMARK    5  A    between atoms: C_8  and  O_10
REMARK    6  A    between atoms: C_16  and  C_17
REMARK    7  A    between atoms: C_18  and  C_19
REMARK                            x       y       z     vdW  Elec       q    Type
REMARK                         _______ _______ _______ _____ _____    ______ ____
ROOT
ATOM      1  C   UNL     1       1.867   8.347  19.006  0.00  0.00    +0.000 C 
ATOM      2  C   UNL     1       1.258   8.070  20.350  0.00  0.00    +0.000 C 
ATOM      3  C   UNL     1       1.264   6.883  20.987  0.00  0.00    +0.000 C 
ENDROOT
BRANCH   2   4
ATOM      4  C   UNL     1       0.619   9.226  21.013  0.00  0.00    +0.000 A 
ATOM      5  C   UNL     1      -0.085   9.072  22.208  0.00  0.00    +0.000 A 
ATOM      6  C   UNL     1      -0.667  10.181  22.833  0.00  0.00    +0.000 A 
ATOM      7  C   UNL     1      -0.559  11.468  22.284  0.00  0.00    +0.000 A 
ATOM      8  C   UNL     1      -1.180  12.630  23.010  0.00  0.00    +0.000 C 
ATOM      9  C   UNL     1       0.142  11.632  21.072  0.00  0.00    +0.000 A 
ATOM     10  C   UNL     1       0.314  12.966  20.399  0.00  0.00    +0.000 C 
ATOM     11  C   UNL     1       0.726  10.506  20.456  0.00  0.00    +0.000 A 
ENDBRANCH   2   4
BRANCH   3  12
ATOM     12  C   UNL     1       1.905   5.661  20.486  0.00  0.00    +0.000 A 
ATOM     13  C   UNL     1       3.208   5.707  19.984  0.00  0.00    +0.000 A 
ATOM     14  C   UNL     1       3.844   4.538  19.553  0.00  0.00    +0.000 A 
ATOM     15  C   UNL     1       3.178   3.304  19.615  0.00  0.00    +0.000 A 
ATOM     16  C   UNL     1       1.868   3.257  20.107  0.00  0.00    +0.000 A 
ATOM     17  C   UNL     1       1.233   4.434  20.531  0.00  0.00    +0.000 A 
BRANCH  15  18
ATOM     18  C   UNL     1       3.937   2.089  19.206  0.00  0.00    +0.000 C 
ATOM     19  O   UNL     1       3.552   1.345  18.321  0.00  0.00    +0.000 OA
BRANCH  18  20
ATOM     20  O   UNL     1       5.067   1.860  19.906  0.00  0.00    +0.000 OA
ATOM     21  H   UNL     1       5.902   2.006  19.429  0.00  0.00    +0.000 HD
ENDBRANCH  18  20
ENDBRANCH  15  18
ENDBRANCH   3  12
TORSDOF 4
ENDMDL
MODEL 5
REMARK VINA RESULT:      -7.1      4.708      8.324
REMARK  Name = 
REMARK  7 active torsions:
REMARK  status: ('A' for Active; 'I' for Inactive)
REMARK    1  A    between atoms: C_1  and  C_2
REMARK    2  A    between atoms: C_2  and  C_13
REMARK    3  A    between atoms: C_3  and  C_4
REMARK    4  A    between atoms: C_7  and  C_8
REMARK    5  A    between atoms: C_8  and  O_10
REMARK    6  A    between atoms: C_16  and  C_17
REMARK    7  A    between atoms: C_18  and  C_19
REMARK                            x       y       z     vdW  Elec       q    Type
REMARK                         _______ _______ _______ _____ _____    ______ ____
ROOT
ATOM      1  C   UNL     1       1.866   7.765  20.069  0.00  0.00    +0.000 C 
ATOM      2  C   UNL     1       2.116   7.916  18.596  0.00  0.00    +0.000 C 
ATOM      3  C   UNL     1       1.668   8.923  17.821  0.00  0.00    +0.000 C 
ENDROOT
BRANCH   2   4
ATOM      4  C   UNL     1       2.946   6.861  17.978  0.00  0.00    +0.000 A 
ATOM      5  C   UNL     1       4.160   7.168  17.363  0.00  0.00    +0.000 A 
ATOM      6  C   UNL     1       4.943   6.154  16.799  0.00  0.00    +0.000 A 
ATOM      7  C   UNL     1       4.536   4.811  16.838  0.00  0.00    +0.000 A 
ATOM      8  C   UNL     1       5.428   3.756  16.241  0.00  0.00    +0.000 C 
ATOM      9  C   UNL     1       3.306   4.492  17.448  0.00  0.00    +0.000 A 
ATOM     10  C   UNL     1       2.777   3.087  17.541  0.00  0.00    +0.000 C 
ATOM     11  C   UNL     1       2.530   5.525  18.015  0.00  0.00    +0.000 A 
ENDBRANCH   2   4
BRANCH   3  12
ATOM     12  C   UNL     1       0.884  10.068  18.297  0.00  0.00    +0.000 A 
ATOM     13  C   UNL     1      -0.512  10.035  18.239  0.00  0.00    +0.000 A 
ATOM     14  C   UNL     1      -1.268  11.102  18.738  0.00  0.00    +0.000 A 
ATOM     15  C   UNL     1      -0.632  12.220  19.299  0.00  0.00    +0.000 A 
ATOM     16  C   UNL     1       0.766  12.260  19.347  0.00  0.00    +0.000 A 
ATOM     17  C   UNL     1       1.519  11.191  18.839  0.00  0.00    +0.000 A 
BRANCH  15  18
ATOM     18  C   UNL     1      -1.497  13.288  19.876  0.00  0.00    +0.000 C 
ATOM     19  O   UNL     1      -1.045  14.217  20.523  0.00  0.00    +0.000 OA
BRANCH  18  20
ATOM     20  O   UNL     1      -2.818  13.135  19.651  0.00  0.00    +0.000 OA
ATOM     21  H   UNL     1      -3.338  13.954  19.582  0.00  0.00    +0.000 HD
ENDBRANCH  18  20
ENDBRANCH  15  18
ENDBRANCH   3  12
TORSDOF 4
ENDMDL
MODEL 6
REMARK VINA RESULT:      -7.1      4.729      8.444
REMARK  Name = 
REMARK  7 active torsions:
REMARK  status: ('A' for Active; 'I' for Inactive)
REMARK    1  A    between atoms: C_1  and  C_2
REMARK    2  A    between atoms: C_2  and  C_13
REMARK    3  A    between atoms: C_3  and  C_4
REMARK    4  A    between atoms: C_7  and  C_8
REMARK    5  A    between atoms: C_8  and  O_10
REMARK    6  A    between atoms: C_16  and  C_17
REMARK    7  A    between atoms: C_18  and  C_19
REMARK                            x       y       z     vdW  Elec       q    Type
REMARK                         _______ _______ _______ _____ _____    ______ ____
ROOT
ATOM      1  C   UNL     1       1.291   9.224  17.954  0.00  0.00    +0.000 C 
ATOM      2  C   UNL     1       1.888   8.204  18.880  0.00  0.00    +0.000 C 
ATOM      3  C   UNL     1       1.759   8.188  20.221  0.00  0.00    +0.000 C 
ENDROOT
BRANCH   2   4
ATOM      4  C   UNL     1       2.662   7.127  18.230  0.00  0.00    +0.000 A 
ATOM      5  C   UNL     1       3.866   7.398  17.578  0.00  0.00    +0.000 A 
ATOM      6  C   UNL     1       4.598   6.363  16.984  0.00  0.00    +0.000 A 
ATOM      7  C   UNL     1       4.148   5.034  17.029  0.00  0.00    +0.000 A 
ATOM      8  C   UNL     1       4.986   3.955  16.399  0.00  0.00    +0.000 C 
ATOM      9  C   UNL     1       2.929   4.751  17.677  0.00  0.00    +0.000 A 
ATOM     10  C   UNL     1       2.358   3.363  17.778  0.00  0.00    +0.000 C 
ATOM     11  C   UNL     1       2.205   5.804  18.273  0.00  0.00    +0.000 A 
ENDBRANCH   2   4
BRANCH   3  12
ATOM     12  C   UNL     1       0.978   9.153  21.005  0.00  0.00    +0.000 A 
ATOM     13  C   UNL     1       0.983  10.506  20.656  0.00  0.00    +0.000 A 
ATOM     14  C   UNL     1       0.201  11.424  21.366  0.00  0.00    +0.000 A 
ATOM     15  C   UNL     1      -0.595  10.996  22.440  0.00  0.00    +0.000 A 
ATOM     16  C   UNL     1      -0.592   9.642  22.798  0.00  0.00    +0.000 A 
ATOM     17  C   UNL     1       0.200   8.728  22.087  0.00  0.00    +0.000 A 
BRANCH  15  18
ATOM     18  C   UNL     1      -1.457  12.012  23.108  0.00  0.00    +0.000 C 
ATOM     19  O   UNL     1      -2.643  11.824  23.320  0.00  0.00    +0.000 OA
BRANCH  18  20
ATOM     20  O   UNL     1      -0.834  13.163  23.434  0.00  0.00    +0.000 OA
ATOM     21  H   UNL     1      -1.152  13.608  24.238  0.00  0.00    +0.000 HD
ENDBRANCH  18  20
ENDBRANCH  15  18
ENDBRANCH   3  12
TORSDOF 4
ENDMDL
MODEL 7
REMARK VINA RESULT:      -7.1      4.548      8.363
REMARK  Name = 
REMARK  7 active torsions:
REMARK  status: ('A' for Active; 'I' for Inactive)
REMARK    1  A    between atoms: C_1  and  C_2
REMARK    2  A    between atoms: C_2  and  C_13
REMARK    3  A    between atoms: C_3  and  C_4
REMARK    4  A    between atoms: C_7  and  C_8
REMARK    5  A    between atoms: C_8  and  O_10
REMARK    6  A    between atoms: C_16  and  C_17
REMARK    7  A    between atoms: C_18  and  C_19
REMARK                            x       y       z     vdW  Elec       q    Type
REMARK                         _______ _______ _______ _____ _____    ______ ____
ROOT
ATOM      1  C   UNL     1       2.251   9.258  17.870  0.00  0.00    +0.000 C 
ATOM      2  C   UNL     1       2.352   7.984  18.658  0.00  0.00    +0.000 C 
ATOM      3  C   UNL     1       1.824   7.770  19.879  0.00  0.00    +0.000 C 
ENDROOT
BRANCH   2   4
ATOM      4  C   UNL     1       3.086   6.883  18.001  0.00  0.00    +0.000 A 
ATOM      5  C   UNL     1       4.273   7.123  17.306  0.00  0.00    +0.000 A 
ATOM      6  C   UNL     1       4.967   6.065  16.706  0.00  0.00    +0.000 A 
ATOM      7  C   UNL     1       4.497   4.745  16.787  0.00  0.00    +0.000 A 
ATOM      8  C   UNL     1       5.295   3.641  16.148  0.00  0.00    +0.000 C 
ATOM      9  C   UNL     1       3.295   4.494  17.479  0.00  0.00    +0.000 A 
ATOM     10  C   UNL     1       2.703   3.118  17.621  0.00  0.00    +0.000 C 
ATOM     11  C   UNL     1       2.608   5.569  18.080  0.00  0.00    +0.000 A 
ENDBRANCH   2   4
BRANCH   3  12
ATOM     12  C   UNL     1       1.023   8.742  20.633  0.00  0.00    +0.000 A 
ATOM     13  C   UNL     1       1.029   8.721  22.030  0.00  0.00    +0.000 A 
ATOM     14  C   UNL     1       0.310   9.676  22.757  0.00  0.00    +0.000 A 
ATOM     15  C   UNL     1      -0.430  10.664  22.090  0.00  0.00    +0.000 A 
ATOM     16  C   UNL     1      -0.447  10.680  20.690  0.00  0.00    +0.000 A 
ATOM     17  C   UNL     1       0.271   9.715  19.967  0.00  0.00    +0.000 A 
BRANCH  15  18
ATOM     18  C   UNL     1      -1.115  11.693  22.923  0.00  0.00    +0.000 C 
ATOM     19  O   UNL     1      -0.605  12.769  23.184  0.00  0.00    +0.000 OA
BRANCH  18  20
ATOM     20  O   UNL     1      -2.329  11.333  23.389  0.00  0.00    +0.000 OA
ATOM     21  H   UNL     1      -2.515  10.379  23.405  0.00  0.00    +0.000 HD
ENDBRANCH  18  20
ENDBRANCH  15  18
ENDBRANCH   3  12
TORSDOF 4
ENDMDL
MODEL 8
REMARK VINA RESULT:      -7.0      2.763      3.475
REMARK  Name = 
REMARK  7 active torsions:
REMARK  status: ('A' for Active; 'I' for Inactive)
REMARK    1  A    between atoms: C_1  and  C_2
REMARK    2  A    between atoms: C_2  and  C_13
REMARK    3  A    between atoms: C_3  and  C_4
REMARK    4  A    between atoms: C_7  and  C_8
REMARK    5  A    between atoms: C_8  and  O_10
REMARK    6  A    between atoms: C_16  and  C_17
REMARK    7  A    between atoms: C_18  and  C_19
REMARK                            x       y       z     vdW  Elec       q    Type
REMARK                         _______ _______ _______ _____ _____    ______ ____
ROOT
ATOM      1  C   UNL     1       1.965   8.181  18.197  0.00  0.00    +0.000 C 
ATOM      2  C   UNL     1       1.554   8.172  19.641  0.00  0.00    +0.000 C 
ATOM      3  C   UNL     1       1.656   7.124  20.481  0.00  0.00    +0.000 C 
ENDROOT
BRANCH   2   4
ATOM      4  C   UNL     1       1.011   9.444  20.159  0.00  0.00    +0.000 A 
ATOM      5  C   UNL     1       1.200  10.642  19.468  0.00  0.00    +0.000 A 
ATOM      6  C   UNL     1       0.662  11.836  19.962  0.00  0.00    +0.000 A 
ATOM      7  C   UNL     1      -0.079  11.864  21.154  0.00  0.00    +0.000 A 
ATOM      8  C   UNL     1      -0.658  13.169  21.627  0.00  0.00    +0.000 C 
ATOM      9  C   UNL     1      -0.266  10.661  21.865  0.00  0.00    +0.000 A 
ATOM     10  C   UNL     1      -1.040  10.582  23.153  0.00  0.00    +0.000 C 
ATOM     11  C   UNL     1       0.280   9.466  21.353  0.00  0.00    +0.000 A 
ENDBRANCH   2   4
BRANCH   3  12
ATOM     12  C   UNL     1       2.224   5.816  20.133  0.00  0.00    +0.000 A 
ATOM     13  C   UNL     1       3.528   5.727  19.638  0.00  0.00    +0.000 A 
ATOM     14  C   UNL     1       4.095   4.480  19.352  0.00  0.00    +0.000 A 
ATOM     15  C   UNL     1       3.358   3.303  19.555  0.00  0.00    +0.000 A 
ATOM     16  C   UNL     1       2.048   3.391  20.040  0.00  0.00    +0.000 A 
ATOM     17  C   UNL     1       1.482   4.644  20.317  0.00  0.00    +0.000 A 
BRANCH  15  18
ATOM     18  C   UNL     1       4.045   2.006  19.298  0.00  0.00    +0.000 C 
ATOM     19  O   UNL     1       3.635   1.200  18.480  0.00  0.00    +0.000 OA
BRANCH  18  20
ATOM     20  O   UNL     1       5.137   1.779  20.056  0.00  0.00    +0.000 OA
ATOM     21  H   UNL     1       4.998   1.785  21.019  0.00  0.00    +0.000 HD
ENDBRANCH  18  20
ENDBRANCH  15  18
ENDBRANCH   3  12
TORSDOF 4
ENDMDL
MODEL 9
REMARK VINA RESULT:      -7.0      0.868      1.850
REMARK  Name = 
REMARK  7 active torsions:
REMARK  status: ('A' for Active; 'I' for Inactive)
REMARK    1  A    between atoms: C_1  and  C_2
REMARK    2  A    between atoms: C_2  and  C_13
REMARK    3  A    between atoms: C_3  and  C_4
REMARK    4  A    between atoms: C_7  and  C_8
REMARK    5  A    between atoms: C_8  and  O_10
REMARK    6  A    between atoms: C_16  and  C_17
REMARK    7  A    between atoms: C_18  and  C_19
REMARK                            x       y       z     vdW  Elec       q    Type
REMARK                         _______ _______ _______ _____ _____    ______ ____
ROOT
ATOM      1  C   UNL     1       2.205   6.704  20.300  0.00  0.00    +0.000 C 
ATOM      2  C   UNL     1       2.081   7.858  19.349  0.00  0.00    +0.000 C 
ATOM      3  C   UNL     1       2.740   7.990  18.181  0.00  0.00    +0.000 C 
ENDROOT
BRANCH   2   4
ATOM      4  C   UNL     1       1.132   8.917  19.749  0.00  0.00    +0.000 A 
ATOM      5  C   UNL     1       0.634   9.828  18.817  0.00  0.00    +0.000 A 
ATOM      6  C   UNL     1      -0.280  10.813  19.209  0.00  0.00    +0.000 A 
ATOM      7  C   UNL     1      -0.720  10.912  20.538  0.00  0.00    +0.000 A 
ATOM      8  C   UNL     1      -1.724  11.972  20.902  0.00  0.00    +0.000 C 
ATOM      9  C   UNL     1      -0.215  10.003  21.489  0.00  0.00    +0.000 A 
ATOM     10  C   UNL     1      -0.619  10.024  22.938  0.00  0.00    +0.000 C 
ATOM     11  C   UNL     1       0.703   9.014  21.079  0.00  0.00    +0.000 A 
ENDBRANCH   2   4
BRANCH   3  12
ATOM     12  C   UNL     1       3.670   7.001  17.621  0.00  0.00    +0.000 A 
ATOM     13  C   UNL     1       4.904   7.409  17.110  0.00  0.00    +0.000 A 
ATOM     14  C   UNL     1       5.817   6.468  16.623  0.00  0.00    +0.000 A 
ATOM     15  C   UNL     1       5.501   5.101  16.637  0.00  0.00    +0.000 A 
ATOM     16  C   UNL     1       4.259   4.690  17.138  0.00  0.00    +0.000 A 
ATOM     17  C   UNL     1       3.345   5.640  17.619  0.00  0.00    +0.000 A 
BRANCH  15  18
ATOM     18  C   UNL     1       6.545   4.146  16.169  0.00  0.00    +0.000 C 
ATOM     19  O   UNL     1       7.735   4.344  16.339  0.00  0.00    +0.000 OA
BRANCH  18  20
ATOM     20  O   UNL     1       6.075   3.061  15.519  0.00  0.00    +0.000 OA
ATOM     21  H   UNL     1       6.665   2.289  15.496  0.00  0.00    +0.000 HD
ENDBRANCH  18  20
ENDBRANCH  15  18
ENDBRANCH   3  12
TORSDOF 4
ENDMDL
