MODEL 1
REMARK VINA RESULT:      -7.2      0.000      0.000
REMARK  Name = 
REMARK  12 active torsions:
REMARK  status: ('A' for Active; 'I' for Inactive)
REMARK    1  A    between atoms: C_1  and  C_2
REMARK    2  A    between atoms: N_4  and  C_5
REMARK    3  A    between atoms: C_5  and  C_6
REMARK    4  A    between atoms: C_5  and  C_10
REMARK    5  A    between atoms: C_6  and  O_7
REMARK    6  A    between atoms: C_6  and  C_8
REMARK    7  A    between atoms: C_8  and  O_9
REMARK    8  A    between atoms: C_12  and  C_13
REMARK    9  A    between atoms: C_13  and  O_15
REMARK   10  A    between atoms: C_17  and  N_18
REMARK   11  A    between atoms: C_22  and  N_23
REMARK   12  A    between atoms: C_24  and  C_25
REMARK                            x       y       z     vdW  Elec       q    Type
REMARK                         _______ _______ _______ _____ _____    ______ ____
ROOT
ATOM      1  C   UNL     1       4.533   4.946  19.458  0.00  0.00    +0.000 C 
ATOM      2  O   UNL     1       4.110   3.569  19.622  0.00  0.00    +0.000 OA
ATOM      3  C   UNL     1       3.828   2.861  18.466  0.00  0.00    +0.000 C 
ATOM      4  C   UNL     1       4.089   3.296  17.224  0.00  0.00    +0.000 C 
ATOM      5  C   UNL     1       4.753   4.604  16.937  0.00  0.00    +0.000 C 
ATOM      6  C   UNL     1       5.431   5.148  18.211  0.00  0.00    +0.000 C 
ENDROOT
BRANCH   5   7
ATOM      7  N   UNL     1       5.774   4.404  15.899  0.00  0.00    +0.000 NA
ATOM      8  C   UNL     1       5.972   5.302  15.012  0.00  0.00    +0.000 C 
ATOM      9  N   UNL     1       5.352   6.484  14.804  0.00  0.00    +0.000 N 
ATOM     10  N   UNL     1       6.920   5.131  14.061  0.00  0.00    +0.000 N 
ATOM     11  H   UNL     1       4.686   6.773  15.507  0.00  0.00    +0.000 HD
ATOM     12  H   UNL     1       6.001   7.232  14.589  0.00  0.00    +0.000 HD
ATOM     13  H   UNL     1       7.217   4.161  14.015  0.00  0.00    +0.000 HD
ATOM     14  H   UNL     1       6.626   5.464  13.151  0.00  0.00    +0.000 HD
ENDBRANCH   5   7
BRANCH   6  15
ATOM     15  N   UNL     1       5.950   6.507  18.056  0.00  0.00    +0.000 N 
ATOM     16  C   UNL     1       7.289   6.761  17.885  0.00  0.00    +0.000 C 
ATOM     17  C   UNL     1       7.654   8.218  17.788  0.00  0.00    +0.000 C 
ATOM     18  O   UNL     1       8.145   5.883  17.872  0.00  0.00    +0.000 OA
ATOM     19  H   UNL     1       5.305   7.273  18.225  0.00  0.00    +0.000 HD
ENDBRANCH   6  15
BRANCH   3  20
ATOM     20  C   UNL     1       3.132   1.542  18.629  0.00  0.00    +0.000 C 
ATOM     21  O   UNL     1       1.971   1.386  18.947  0.00  0.00    +0.000 OA
BRANCH  20  22
ATOM     22  O   UNL     1       4.005   0.527  18.425  0.00  0.00    +0.000 OA
ATOM     23  H   UNL     1       3.942   0.206  17.503  0.00  0.00    +0.000 HD
ENDBRANCH  20  22
ENDBRANCH   3  20
BRANCH   1  24
ATOM     24  C   UNL     1       3.325   5.885  19.793  0.00  0.00    +0.000 C 
BRANCH  24  28
ATOM     25  C   UNL     1       1.958   8.721  17.597  0.00  0.00    +0.000 C 
ATOM     26  C   UNL     1       2.196   7.957  18.869  0.00  0.00    +0.000 C 
ATOM     27  O   UNL     1       1.808   8.363  19.960  0.00  0.00    +0.000 OA
ATOM     28  N   UNL     1       2.904   6.793  18.708  0.00  0.00    +0.000 N 
ATOM     29  H   UNL     1       2.956   6.425  17.763  0.00  0.00    +0.000 HD
ENDBRANCH  24  28
BRANCH  24  30
ATOM     30  C   UNL     1       2.168   5.305  20.666  0.00  0.00    +0.000 C 
BRANCH  30  31
ATOM     31  O   UNL     1       2.585   4.406  21.695  0.00  0.00    +0.000 OA
ATOM     32  H   UNL     1       1.780   4.066  22.145  0.00  0.00    +0.000 HD
ENDBRANCH  30  31
BRANCH  30  33
ATOM     33  C   UNL     1       1.107   4.608  19.792  0.00  0.00    +0.000 C 
BRANCH  33  34
ATOM     34  O   UNL     1       0.610   3.443  20.445  0.00  0.00    +0.000 OA
ATOM     35  H   UNL     1      -0.361   3.462  20.339  0.00  0.00    +0.000 HD
ENDBRANCH  33  34
ENDBRANCH  30  33
ENDBRANCH  24  30
ENDBRANCH   1  24
TORSDOF 10
ENDMDL
MODEL 2
REMARK VINA RESULT:      -6.8      1.779      2.983
REMARK  Name = 
REMARK  12 active torsions:
REMARK  status: ('A' for Active; 'I' for Inactive)
REMARK    1  A    between atoms: C_1  and  C_2
REMARK    2  A    between atoms: N_4  and  C_5
REMARK    3  A    between atoms: C_5  and  C_6
REMARK    4  A    between atoms: C_5  and  C_10
REMARK    5  A    between atoms: C_6  and  O_7
REMARK    6  A    between atoms: C_6  and  C_8
REMARK    7  A    between atoms: C_8  and  O_9
REMARK    8  A    between atoms: C_12  and  C_13
REMARK    9  A    between atoms: C_13  and  O_15
REMARK   10  A    between atoms: C_17  and  N_18
REMARK   11  A    between atoms: C_22  and  N_23
REMARK   12  A    between atoms: C_24  and  C_25
REMARK                            x       y       z     vdW  Elec       q    Type
REMARK                         _______ _______ _______ _____ _____    ______ ____
ROOT
ATOM      1  C   UNL     1       3.206   5.659  19.601  0.00  0.00    +0.000 C 
ATOM      2  O   UNL     1       2.262   4.618  19.955  0.00  0.00    +0.000 OA
ATOM      3  C   UNL     1       1.942   3.703  18.967  0.00  0.00    +0.000 C 
ATOM      4  C   UNL     1       2.570   3.608  17.785  0.00  0.00    +0.000 C 
ATOM      5  C   UNL     1       3.729   4.471  17.402  0.00  0.00    +0.000 C 
ATOM      6  C   UNL     1       4.321   5.153  18.652  0.00  0.00    +0.000 C 
ENDROOT
BRANCH   5   7
ATOM      7  N   UNL     1       4.762   3.635  16.776  0.00  0.00    +0.000 NA
ATOM      8  C   UNL     1       5.407   4.063  15.759  0.00  0.00    +0.000 C 
ATOM      9  N   UNL     1       5.292   5.218  15.069  0.00  0.00    +0.000 N 
ATOM     10  N   UNL     1       6.369   3.304  15.186  0.00  0.00    +0.000 N 
ATOM     11  H   UNL     1       4.670   5.915  15.456  0.00  0.00    +0.000 HD
ATOM     12  H   UNL     1       6.190   5.624  14.835  0.00  0.00    +0.000 HD
ATOM     13  H   UNL     1       6.304   2.340  15.497  0.00  0.00    +0.000 HD
ATOM     14  H   UNL     1       6.363   3.361  14.176  0.00  0.00    +0.000 HD
ENDBRANCH   5   7
BRANCH   6  15
ATOM     15  N   UNL     1       5.345   6.151  18.338  0.00  0.00    +0.000 N 
ATOM     16  C   UNL     1       6.685   5.891  18.485  0.00  0.00    +0.000 C 
ATOM     17  C   UNL     1       7.596   7.045  18.160  0.00  0.00    +0.000 C 
ATOM     18  O   UNL     1       7.123   4.826  18.907  0.00  0.00    +0.000 OA
ATOM     19  H   UNL     1       5.028   7.096  18.144  0.00  0.00    +0.000 HD
ENDBRANCH   6  15
BRANCH   3  20
ATOM     20  C   UNL     1       0.773   2.800  19.228  0.00  0.00    +0.000 C 
ATOM     21  O   UNL     1       0.242   2.071  18.416  0.00  0.00    +0.000 OA
BRANCH  20  22
ATOM     22  O   UNL     1       0.345   2.951  20.504  0.00  0.00    +0.000 OA
ATOM     23  H   UNL     1       0.994   2.565  21.127  0.00  0.00    +0.000 HD
ENDBRANCH  20  22
ENDBRANCH   3  20
BRANCH   1  24
ATOM     24  C   UNL     1       2.416   6.987  19.347  0.00  0.00    +0.000 C 
BRANCH  24  28
ATOM     25  C   UNL     1       1.478   9.133  22.388  0.00  0.00    +0.000 C 
ATOM     26  C   UNL     1       1.241   8.190  21.243  0.00  0.00    +0.000 C 
ATOM     27  O   UNL     1       0.143   7.686  21.026  0.00  0.00    +0.000 OA
ATOM     28  N   UNL     1       2.354   7.920  20.490  0.00  0.00    +0.000 N 
ATOM     29  H   UNL     1       3.132   8.566  20.590  0.00  0.00    +0.000 HD
ENDBRANCH  24  28
BRANCH  24  30
ATOM     30  C   UNL     1       2.543   7.657  17.943  0.00  0.00    +0.000 C 
BRANCH  30  31
ATOM     31  O   UNL     1       3.795   8.299  17.694  0.00  0.00    +0.000 OA
ATOM     32  H   UNL     1       3.798   9.156  18.174  0.00  0.00    +0.000 HD
ENDBRANCH  30  31
BRANCH  30  33
ATOM     33  C   UNL     1       1.405   8.670  17.704  0.00  0.00    +0.000 C 
BRANCH  33  34
ATOM     34  O   UNL     1       1.938   9.959  17.413  0.00  0.00    +0.000 OA
ATOM     35  H   UNL     1       2.610  10.139  18.100  0.00  0.00    +0.000 HD
ENDBRANCH  33  34
ENDBRANCH  30  33
ENDBRANCH  24  30
ENDBRANCH   1  24
TORSDOF 10
ENDMDL
MODEL 3
REMARK VINA RESULT:      -6.7      2.428      6.008
REMARK  Name = 
REMARK  12 active torsions:
REMARK  status: ('A' for Active; 'I' for Inactive)
REMARK    1  A    between atoms: C_1  and  C_2
REMARK    2  A    between atoms: N_4  and  C_5
REMARK    3  A    between atoms: C_5  and  C_6
REMARK    4  A    between atoms: C_5  and  C_10
REMARK    5  A    between atoms: C_6  and  O_7
REMARK    6  A    between atoms: C_6  and  C_8
REMARK    7  A    between atoms: C_8  and  O_9
REMARK    8  A    between atoms: C_12  and  C_13
REMARK    9  A    between atoms: C_13  and  O_15
REMARK   10  A    between atoms: C_17  and  N_18
REMARK   11  A    between atoms: C_22  and  N_23
REMARK   12  A    between atoms: C_24  and  C_25
REMARK                            x       y       z     vdW  Elec       q    Type
REMARK                         _______ _______ _______ _____ _____    ______ ____
ROOT
ATOM      1  C   UNL     1       5.094   5.125  19.216  0.00  0.00    +0.000 C 
ATOM      2  O   UNL     1       4.415   6.403  19.129  0.00  0.00    +0.000 OA
ATOM      3  C   UNL     1       3.231   6.434  18.412  0.00  0.00    +0.000 C 
ATOM      4  C   UNL     1       2.590   5.347  17.956  0.00  0.00    +0.000 C 
ATOM      5  C   UNL     1       3.067   3.952  18.198  0.00  0.00    +0.000 C 
ATOM      6  C   UNL     1       4.109   3.936  19.336  0.00  0.00    +0.000 C 
ENDROOT
BRANCH   5   7
ATOM      7  N   UNL     1       1.923   3.115  18.583  0.00  0.00    +0.000 NA
ATOM      8  C   UNL     1       1.277   3.364  19.657  0.00  0.00    +0.000 C 
ATOM      9  N   UNL     1       1.477   4.306  20.604  0.00  0.00    +0.000 N 
ATOM     10  N   UNL     1       0.214   2.606  20.012  0.00  0.00    +0.000 N 
ATOM     11  H   UNL     1       2.186   5.000  20.407  0.00  0.00    +0.000 HD
ATOM     12  H   UNL     1       0.615   4.744  20.907  0.00  0.00    +0.000 HD
ATOM     13  H   UNL     1       0.194   1.739  19.483  0.00  0.00    +0.000 HD
ATOM     14  H   UNL     1       0.176   2.425  21.007  0.00  0.00    +0.000 HD
ENDBRANCH   5   7
BRANCH   6  15
ATOM     15  N   UNL     1       4.753   2.634  19.513  0.00  0.00    +0.000 N 
ATOM     16  C   UNL     1       4.519   1.848  20.614  0.00  0.00    +0.000 C 
ATOM     17  C   UNL     1       5.300   0.562  20.657  0.00  0.00    +0.000 C 
ATOM     18  O   UNL     1       3.779   2.180  21.534  0.00  0.00    +0.000 OA
ATOM     19  H   UNL     1       5.495   2.391  18.864  0.00  0.00    +0.000 HD
ENDBRANCH   6  15
BRANCH   3  20
ATOM     20  C   UNL     1       2.670   7.785  18.082  0.00  0.00    +0.000 C 
ATOM     21  O   UNL     1       2.875   8.411  17.061  0.00  0.00    +0.000 OA
BRANCH  20  22
ATOM     22  O   UNL     1       1.935   8.250  19.120  0.00  0.00    +0.000 OA
ATOM     23  H   UNL     1       1.739   9.201  18.998  0.00  0.00    +0.000 HD
ENDBRANCH  20  22
ENDBRANCH   3  20
BRANCH   1  24
ATOM     24  C   UNL     1       6.300   5.129  18.217  0.00  0.00    +0.000 C 
BRANCH  24  28
ATOM     25  C   UNL     1       5.370   5.064  14.494  0.00  0.00    +0.000 C 
ATOM     26  C   UNL     1       5.771   4.489  15.823  0.00  0.00    +0.000 C 
ATOM     27  O   UNL     1       5.887   3.281  16.007  0.00  0.00    +0.000 OA
ATOM     28  N   UNL     1       5.961   5.422  16.810  0.00  0.00    +0.000 N 
ATOM     29  H   UNL     1       6.088   6.381  16.504  0.00  0.00    +0.000 HD
ENDBRANCH  24  28
BRANCH  24  30
ATOM     30  C   UNL     1       7.659   5.715  18.713  0.00  0.00    +0.000 C 
BRANCH  30  31
ATOM     31  O   UNL     1       7.878   5.615  20.121  0.00  0.00    +0.000 OA
ATOM     32  H   UNL     1       8.775   5.966  20.315  0.00  0.00    +0.000 HD
ENDBRANCH  30  31
BRANCH  30  33
ATOM     33  C   UNL     1       7.820   7.187  18.284  0.00  0.00    +0.000 C 
BRANCH  33  34
ATOM     34  O   UNL     1       7.955   7.281  16.869  0.00  0.00    +0.000 OA
ATOM     35  H   UNL     1       7.505   8.108  16.605  0.00  0.00    +0.000 HD
ENDBRANCH  33  34
ENDBRANCH  30  33
ENDBRANCH  24  30
ENDBRANCH   1  24
TORSDOF 10
ENDMDL
MODEL 4
REMARK VINA RESULT:      -6.6      2.265      6.126
REMARK  Name = 
REMARK  12 active torsions:
REMARK  status: ('A' for Active; 'I' for Inactive)
REMARK    1  A    between atoms: C_1  and  C_2
REMARK    2  A    between atoms: N_4  and  C_5
REMARK    3  A    between atoms: C_5  and  C_6
REMARK    4  A    between atoms: C_5  and  C_10
REMARK    5  A    between atoms: C_6  and  O_7
REMARK    6  A    between atoms: C_6  and  C_8
REMARK    7  A    between atoms: C_8  and  O_9
REMARK    8  A    between atoms: C_12  and  C_13
REMARK    9  A    between atoms: C_13  and  O_15
REMARK   10  A    between atoms: C_17  and  N_18
REMARK   11  A    between atoms: C_22  and  N_23
REMARK   12  A    between atoms: C_24  and  C_25
REMARK                            x       y       z     vdW  Elec       q    Type
REMARK                         _______ _______ _______ _____ _____    ______ ____
ROOT
ATOM      1  C   UNL     1       4.797   5.385  19.077  0.00  0.00    +0.000 C 
ATOM      2  O   UNL     1       4.095   6.653  19.103  0.00  0.00    +0.000 OA
ATOM      3  C   UNL     1       2.894   6.716  18.417  0.00  0.00    +0.000 C 
ATOM      4  C   UNL     1       2.260   5.655  17.894  0.00  0.00    +0.000 C 
ATOM      5  C   UNL     1       2.767   4.255  18.018  0.00  0.00    +0.000 C 
ATOM      6  C   UNL     1       3.836   4.172  19.127  0.00  0.00    +0.000 C 
ENDROOT
BRANCH   5   7
ATOM      7  N   UNL     1       1.648   3.369  18.364  0.00  0.00    +0.000 NA
ATOM      8  C   UNL     1       1.090   3.455  19.511  0.00  0.00    +0.000 C 
ATOM      9  N   UNL     1       1.374   4.246  20.568  0.00  0.00    +0.000 N 
ATOM     10  N   UNL     1       0.049   2.652  19.832  0.00  0.00    +0.000 N 
ATOM     11  H   UNL     1       2.074   4.962  20.421  0.00  0.00    +0.000 HD
ATOM     12  H   UNL     1       0.544   4.634  20.999  0.00  0.00    +0.000 HD
ATOM     13  H   UNL     1      -0.021   1.874  19.184  0.00  0.00    +0.000 HD
ATOM     14  H   UNL     1       0.087   2.325  20.789  0.00  0.00    +0.000 HD
ENDBRANCH   5   7
BRANCH   6  15
ATOM     15  N   UNL     1       4.507   2.873  19.190  0.00  0.00    +0.000 N 
ATOM     16  C   UNL     1       4.398   2.047  20.281  0.00  0.00    +0.000 C 
ATOM     17  C   UNL     1       5.191   0.771  20.196  0.00  0.00    +0.000 C 
ATOM     18  O   UNL     1       3.758   2.340  21.286  0.00  0.00    +0.000 OA
ATOM     19  H   UNL     1       5.177   2.661  18.457  0.00  0.00    +0.000 HD
ENDBRANCH   6  15
BRANCH   3  20
ATOM     20  C   UNL     1       2.302   8.077  18.205  0.00  0.00    +0.000 C 
ATOM     21  O   UNL     1       2.392   8.742  17.193  0.00  0.00    +0.000 OA
BRANCH  20  22
ATOM     22  O   UNL     1       1.688   8.499  19.336  0.00  0.00    +0.000 OA
ATOM     23  H   UNL     1       2.289   9.071  19.854  0.00  0.00    +0.000 HD
ENDBRANCH  20  22
ENDBRANCH   3  20
BRANCH   1  24
ATOM     24  C   UNL     1       5.979   5.488  18.054  0.00  0.00    +0.000 C 
BRANCH  24  28
ATOM     25  C   UNL     1       6.020   3.971  14.528  0.00  0.00    +0.000 C 
ATOM     26  C   UNL     1       6.603   4.453  15.826  0.00  0.00    +0.000 C 
ATOM     27  O   UNL     1       7.796   4.339  16.092  0.00  0.00    +0.000 OA
ATOM     28  N   UNL     1       5.688   4.994  16.693  0.00  0.00    +0.000 N 
ATOM     29  H   UNL     1       4.797   5.269  16.292  0.00  0.00    +0.000 HD
ENDBRANCH  24  28
BRANCH  24  30
ATOM     30  C   UNL     1       6.902   6.745  18.126  0.00  0.00    +0.000 C 
BRANCH  30  31
ATOM     31  O   UNL     1       7.294   7.275  16.859  0.00  0.00    +0.000 OA
ATOM     32  H   UNL     1       7.387   6.525  16.231  0.00  0.00    +0.000 HD
ENDBRANCH  30  31
BRANCH  30  33
ATOM     33  C   UNL     1       8.164   6.462  18.963  0.00  0.00    +0.000 C 
BRANCH  33  34
ATOM     34  O   UNL     1       8.325   5.060  19.164  0.00  0.00    +0.000 OA
ATOM     35  H   UNL     1       9.156   4.948  19.666  0.00  0.00    +0.000 HD
ENDBRANCH  33  34
ENDBRANCH  30  33
ENDBRANCH  24  30
ENDBRANCH   1  24
TORSDOF 10
ENDMDL
MODEL 5
REMARK VINA RESULT:      -6.5      2.186      6.035
REMARK  Name = 
REMARK  12 active torsions:
REMARK  status: ('A' for Active; 'I' for Inactive)
REMARK    1  A    between atoms: C_1  and  C_2
REMARK    2  A    between atoms: N_4  and  C_5
REMARK    3  A    between atoms: C_5  and  C_6
REMARK    4  A    between atoms: C_5  and  C_10
REMARK    5  A    between atoms: C_6  and  O_7
REMARK    6  A    between atoms: C_6  and  C_8
REMARK    7  A    between atoms: C_8  and  O_9
REMARK    8  A    between atoms: C_12  and  C_13
REMARK    9  A    between atoms: C_13  and  O_15
REMARK   10  A    between atoms: C_17  and  N_18
REMARK   11  A    between atoms: C_22  and  N_23
REMARK   12  A    between atoms: C_24  and  C_25
REMARK                            x       y       z     vdW  Elec       q    Type
REMARK                         _______ _______ _______ _____ _____    ______ ____
ROOT
ATOM      1  C   UNL     1       4.759   5.516  18.616  0.00  0.00    +0.000 C 
ATOM      2  O   UNL     1       4.114   6.805  18.769  0.00  0.00    +0.000 OA
ATOM      3  C   UNL     1       2.813   6.910  18.309  0.00  0.00    +0.000 C 
ATOM      4  C   UNL     1       2.062   5.874  17.907  0.00  0.00    +0.000 C 
ATOM      5  C   UNL     1       2.538   4.458  17.936  0.00  0.00    +0.000 C 
ATOM      6  C   UNL     1       3.784   4.333  18.836  0.00  0.00    +0.000 C 
ENDROOT
BRANCH   5   7
ATOM      7  N   UNL     1       1.469   3.605  18.476  0.00  0.00    +0.000 NA
ATOM      8  C   UNL     1       1.096   3.734  19.691  0.00  0.00    +0.000 C 
ATOM      9  N   UNL     1       1.553   4.546  20.669  0.00  0.00    +0.000 N 
ATOM     10  N   UNL     1       0.104   2.962  20.191  0.00  0.00    +0.000 N 
ATOM     11  H   UNL     1       2.234   5.243  20.395  0.00  0.00    +0.000 HD
ATOM     12  H   UNL     1       0.806   4.963  21.210  0.00  0.00    +0.000 HD
ATOM     13  H   UNL     1      -0.078   2.168  19.585  0.00  0.00    +0.000 HD
ATOM     14  H   UNL     1       0.283   2.660  21.140  0.00  0.00    +0.000 HD
ENDBRANCH   5   7
BRANCH   6  15
ATOM     15  N   UNL     1       4.413   3.013  18.776  0.00  0.00    +0.000 N 
ATOM     16  C   UNL     1       4.342   2.123  19.819  0.00  0.00    +0.000 C 
ATOM     17  C   UNL     1       5.084   0.831  19.606  0.00  0.00    +0.000 C 
ATOM     18  O   UNL     1       3.773   2.370  20.878  0.00  0.00    +0.000 OA
ATOM     19  H   UNL     1       5.030   2.829  17.991  0.00  0.00    +0.000 HD
ENDBRANCH   6  15
BRANCH   3  20
ATOM     20  C   UNL     1       2.237   8.292  18.208  0.00  0.00    +0.000 C 
ATOM     21  O   UNL     1       2.319   9.027  17.245  0.00  0.00    +0.000 OA
BRANCH  20  22
ATOM     22  O   UNL     1       1.649   8.638  19.378  0.00  0.00    +0.000 OA
ATOM     23  H   UNL     1       1.023   9.377  19.237  0.00  0.00    +0.000 HD
ENDBRANCH  20  22
ENDBRANCH   3  20
BRANCH   1  24
ATOM     24  C   UNL     1       5.742   5.589  17.399  0.00  0.00    +0.000 C 
BRANCH  24  28
ATOM     25  C   UNL     1       8.195   8.531  17.640  0.00  0.00    +0.000 C 
ATOM     26  C   UNL     1       7.572   7.222  18.036  0.00  0.00    +0.000 C 
ATOM     27  O   UNL     1       8.013   6.538  18.954  0.00  0.00    +0.000 OA
ATOM     28  N   UNL     1       6.500   6.849  17.266  0.00  0.00    +0.000 N 
ATOM     29  H   UNL     1       6.066   7.582  16.713  0.00  0.00    +0.000 HD
ENDBRANCH  24  28
BRANCH  24  30
ATOM     30  C   UNL     1       6.524   4.295  17.011  0.00  0.00    +0.000 C 
BRANCH  30  31
ATOM     31  O   UNL     1       7.743   4.092  17.727  0.00  0.00    +0.000 OA
ATOM     32  H   UNL     1       8.419   3.770  17.091  0.00  0.00    +0.000 HD
ENDBRANCH  30  31
BRANCH  30  33
ATOM     33  C   UNL     1       6.818   4.254  15.498  0.00  0.00    +0.000 C 
BRANCH  33  34
ATOM     34  O   UNL     1       7.636   5.358  15.120  0.00  0.00    +0.000 OA
ATOM     35  H   UNL     1       8.561   5.054  15.202  0.00  0.00    +0.000 HD
ENDBRANCH  33  34
ENDBRANCH  30  33
ENDBRANCH  24  30
ENDBRANCH   1  24
TORSDOF 10
ENDMDL
MODEL 6
REMARK VINA RESULT:      -6.5      1.889      5.786
REMARK  Name = 
REMARK  12 active torsions:
REMARK  status: ('A' for Active; 'I' for Inactive)
REMARK    1  A    between atoms: C_1  and  C_2
REMARK    2  A    between atoms: N_4  and  C_5
REMARK    3  A    between atoms: C_5  and  C_6
REMARK    4  A    between atoms: C_5  and  C_10
REMARK    5  A    between atoms: C_6  and  O_7
REMARK    6  A    between atoms: C_6  and  C_8
REMARK    7  A    between atoms: C_8  and  O_9
REMARK    8  A    between atoms: C_12  and  C_13
REMARK    9  A    between atoms: C_13  and  O_15
REMARK   10  A    between atoms: C_17  and  N_18
REMARK   11  A    between atoms: C_22  and  N_23
REMARK   12  A    between atoms: C_24  and  C_25
REMARK                            x       y       z     vdW  Elec       q    Type
REMARK                         _______ _______ _______ _____ _____    ______ ____
ROOT
ATOM      1  C   UNL     1       4.495   4.603  18.380  0.00  0.00    +0.000 C 
ATOM      2  O   UNL     1       5.742   5.311  18.163  0.00  0.00    +0.000 OA
ATOM      3  C   UNL     1       5.648   6.644  17.803  0.00  0.00    +0.000 C 
ATOM      4  C   UNL     1       4.513   7.358  17.818  0.00  0.00    +0.000 C 
ATOM      5  C   UNL     1       3.199   6.800  18.260  0.00  0.00    +0.000 C 
ATOM      6  C   UNL     1       3.415   5.491  19.047  0.00  0.00    +0.000 C 
ENDROOT
BRANCH   5   7
ATOM      7  N   UNL     1       2.532   7.777  19.130  0.00  0.00    +0.000 NA
ATOM      8  C   UNL     1       1.817   8.707  18.623  0.00  0.00    +0.000 C 
ATOM      9  N   UNL     1       1.559   9.012  17.333  0.00  0.00    +0.000 N 
ATOM     10  N   UNL     1       1.189   9.603  19.419  0.00  0.00    +0.000 N 
ATOM     11  H   UNL     1       1.895   8.357  16.639  0.00  0.00    +0.000 HD
ATOM     12  H   UNL     1       0.586   9.242  17.173  0.00  0.00    +0.000 HD
ATOM     13  H   UNL     1       1.566   9.579  20.361  0.00  0.00    +0.000 HD
ATOM     14  H   UNL     1       1.211  10.543  19.044  0.00  0.00    +0.000 HD
ENDBRANCH   5   7
BRANCH   6  15
ATOM     15  N   UNL     1       2.169   4.791  19.361  0.00  0.00    +0.000 N 
ATOM     16  C   UNL     1       1.987   4.121  20.546  0.00  0.00    +0.000 C 
ATOM     17  C   UNL     1       0.663   3.419  20.684  0.00  0.00    +0.000 C 
ATOM     18  O   UNL     1       2.852   4.038  21.412  0.00  0.00    +0.000 OA
ATOM     19  H   UNL     1       1.490   4.692  18.612  0.00  0.00    +0.000 HD
ENDBRANCH   6  15
BRANCH   3  20
ATOM     20  C   UNL     1       6.902   7.305  17.313  0.00  0.00    +0.000 C 
ATOM     21  O   UNL     1       7.288   8.415  17.621  0.00  0.00    +0.000 OA
BRANCH  20  22
ATOM     22  O   UNL     1       7.530   6.506  16.417  0.00  0.00    +0.000 OA
ATOM     23  H   UNL     1       7.475   5.571  16.701  0.00  0.00    +0.000 HD
ENDBRANCH  20  22
ENDBRANCH   3  20
BRANCH   1  24
ATOM     24  C   UNL     1       4.202   3.710  17.126  0.00  0.00    +0.000 C 
BRANCH  24  28
ATOM     25  C   UNL     1       6.871   3.965  14.379  0.00  0.00    +0.000 C 
ATOM     26  C   UNL     1       5.622   4.341  15.124  0.00  0.00    +0.000 C 
ATOM     27  O   UNL     1       4.940   5.312  14.811  0.00  0.00    +0.000 OA
ATOM     28  N   UNL     1       5.333   3.533  16.193  0.00  0.00    +0.000 N 
ATOM     29  H   UNL     1       5.801   2.632  16.215  0.00  0.00    +0.000 HD
ENDBRANCH  24  28
BRANCH  24  30
ATOM     30  C   UNL     1       3.289   2.459  17.316  0.00  0.00    +0.000 C 
BRANCH  30  31
ATOM     31  O   UNL     1       1.887   2.726  17.274  0.00  0.00    +0.000 OA
ATOM     32  H   UNL     1       1.709   3.507  17.842  0.00  0.00    +0.000 HD
ENDBRANCH  30  31
BRANCH  30  33
ATOM     33  C   UNL     1       3.619   1.723  18.630  0.00  0.00    +0.000 C 
BRANCH  33  34
ATOM     34  O   UNL     1       4.379   0.547  18.365  0.00  0.00    +0.000 OA
ATOM     35  H   UNL     1       3.904   0.067  17.659  0.00  0.00    +0.000 HD
ENDBRANCH  33  34
ENDBRANCH  30  33
ENDBRANCH  24  30
ENDBRANCH   1  24
TORSDOF 10
ENDMDL
MODEL 7
REMARK VINA RESULT:      -6.5      2.451      5.833
REMARK  Name = 
REMARK  12 active torsions:
REMARK  status: ('A' for Active; 'I' for Inactive)
REMARK    1  A    between atoms: C_1  and  C_2
REMARK    2  A    between atoms: N_4  and  C_5
REMARK    3  A    between atoms: C_5  and  C_6
REMARK    4  A    between atoms: C_5  and  C_10
REMARK    5  A    between atoms: C_6  and  O_7
REMARK    6  A    between atoms: C_6  and  C_8
REMARK    7  A    between atoms: C_8  and  O_9
REMARK    8  A    between atoms: C_12  and  C_13
REMARK    9  A    between atoms: C_13  and  O_15
REMARK   10  A    between atoms: C_17  and  N_18
REMARK   11  A    between atoms: C_22  and  N_23
REMARK   12  A    between atoms: C_24  and  C_25
REMARK                            x       y       z     vdW  Elec       q    Type
REMARK                         _______ _______ _______ _____ _____    ______ ____
ROOT
ATOM      1  C   UNL     1       4.931   5.614  19.265  0.00  0.00    +0.000 C 
ATOM      2  O   UNL     1       4.194   6.862  19.219  0.00  0.00    +0.000 OA
ATOM      3  C   UNL     1       2.981   6.846  18.552  0.00  0.00    +0.000 C 
ATOM      4  C   UNL     1       2.370   5.736  18.111  0.00  0.00    +0.000 C 
ATOM      5  C   UNL     1       2.918   4.362  18.318  0.00  0.00    +0.000 C 
ATOM      6  C   UNL     1       4.005   4.381  19.412  0.00  0.00    +0.000 C 
ENDROOT
BRANCH   5   7
ATOM      7  N   UNL     1       1.829   3.471  18.740  0.00  0.00    +0.000 NA
ATOM      8  C   UNL     1       1.765   2.276  18.293  0.00  0.00    +0.000 C 
ATOM      9  N   UNL     1       2.552   1.627  17.407  0.00  0.00    +0.000 N 
ATOM     10  N   UNL     1       0.773   1.445  18.688  0.00  0.00    +0.000 N 
ATOM     11  H   UNL     1       3.389   2.110  17.109  0.00  0.00    +0.000 HD
ATOM     12  H   UNL     1       2.764   0.679  17.695  0.00  0.00    +0.000 HD
ATOM     13  H   UNL     1       0.021   1.964  19.131  0.00  0.00    +0.000 HD
ATOM     14  H   UNL     1       0.421   0.869  17.934  0.00  0.00    +0.000 HD
ENDBRANCH   5   7
BRANCH   6  15
ATOM     15  N   UNL     1       4.713   3.108  19.548  0.00  0.00    +0.000 N 
ATOM     16  C   UNL     1       4.418   2.213  20.546  0.00  0.00    +0.000 C 
ATOM     17  C   UNL     1       5.275   0.976  20.566  0.00  0.00    +0.000 C 
ATOM     18  O   UNL     1       3.565   2.417  21.404  0.00  0.00    +0.000 OA
ATOM     19  H   UNL     1       5.533   2.968  18.966  0.00  0.00    +0.000 HD
ENDBRANCH   6  15
BRANCH   3  20
ATOM     20  C   UNL     1       2.348   8.174  18.260  0.00  0.00    +0.000 C 
ATOM     21  O   UNL     1       2.453   8.800  17.225  0.00  0.00    +0.000 OA
BRANCH  20  22
ATOM     22  O   UNL     1       1.675   8.618  19.348  0.00  0.00    +0.000 OA
ATOM     23  H   UNL     1       0.778   8.914  19.095  0.00  0.00    +0.000 HD
ENDBRANCH  20  22
ENDBRANCH   3  20
BRANCH   1  24
ATOM     24  C   UNL     1       6.094   5.681  18.218  0.00  0.00    +0.000 C 
BRANCH  24  28
ATOM     25  C   UNL     1       8.578   8.604  18.362  0.00  0.00    +0.000 C 
ATOM     26  C   UNL     1       7.473   7.763  17.787  0.00  0.00    +0.000 C 
ATOM     27  O   UNL     1       6.878   8.076  16.760  0.00  0.00    +0.000 OA
ATOM     28  N   UNL     1       7.170   6.646  18.522  0.00  0.00    +0.000 N 
ATOM     29  H   UNL     1       7.868   6.347  19.195  0.00  0.00    +0.000 HD
ENDBRANCH  24  28
BRANCH  24  30
ATOM     30  C   UNL     1       6.559   4.347  17.555  0.00  0.00    +0.000 C 
BRANCH  30  31
ATOM     31  O   UNL     1       7.888   3.942  17.888  0.00  0.00    +0.000 OA
ATOM     32  H   UNL     1       7.953   3.890  18.867  0.00  0.00    +0.000 HD
ENDBRANCH  30  31
BRANCH  30  33
ATOM     33  C   UNL     1       6.425   4.411  16.021  0.00  0.00    +0.000 C 
BRANCH  33  34
ATOM     34  O   UNL     1       7.350   5.349  15.478  0.00  0.00    +0.000 OA
ATOM     35  H   UNL     1       6.821   6.112  15.172  0.00  0.00    +0.000 HD
ENDBRANCH  33  34
ENDBRANCH  30  33
ENDBRANCH  24  30
ENDBRANCH   1  24
TORSDOF 10
ENDMDL
MODEL 8
REMARK VINA RESULT:      -6.4      2.530      5.939
REMARK  Name = 
REMARK  12 active torsions:
REMARK  status: ('A' for Active; 'I' for Inactive)
REMARK    1  A    between atoms: C_1  and  C_2
REMARK    2  A    between atoms: N_4  and  C_5
REMARK    3  A    between atoms: C_5  and  C_6
REMARK    4  A    between atoms: C_5  and  C_10
REMARK    5  A    between atoms: C_6  and  O_7
REMARK    6  A    between atoms: C_6  and  C_8
REMARK    7  A    between atoms: C_8  and  O_9
REMARK    8  A    between atoms: C_12  and  C_13
REMARK    9  A    between atoms: C_13  and  O_15
REMARK   10  A    between atoms: C_17  and  N_18
REMARK   11  A    between atoms: C_22  and  N_23
REMARK   12  A    between atoms: C_24  and  C_25
REMARK                            x       y       z     vdW  Elec       q    Type
REMARK                         _______ _______ _______ _____ _____    ______ ____
ROOT
ATOM      1  C   UNL     1       5.063   5.409  19.266  0.00  0.00    +0.000 C 
ATOM      2  O   UNL     1       4.386   6.686  19.161  0.00  0.00    +0.000 OA
ATOM      3  C   UNL     1       3.172   6.697  18.495  0.00  0.00    +0.000 C 
ATOM      4  C   UNL     1       2.508   5.598  18.106  0.00  0.00    +0.000 C 
ATOM      5  C   UNL     1       2.991   4.210  18.377  0.00  0.00    +0.000 C 
ATOM      6  C   UNL     1       4.080   4.229  19.469  0.00  0.00    +0.000 C 
ENDROOT
BRANCH   5   7
ATOM      7  N   UNL     1       1.862   3.392  18.841  0.00  0.00    +0.000 NA
ATOM      8  C   UNL     1       1.694   2.210  18.387  0.00  0.00    +0.000 C 
ATOM      9  N   UNL     1       2.393   1.518  17.461  0.00  0.00    +0.000 N 
ATOM     10  N   UNL     1       0.665   1.446  18.818  0.00  0.00    +0.000 N 
ATOM     11  H   UNL     1       3.248   1.945  17.129  0.00  0.00    +0.000 HD
ATOM     12  H   UNL     1       2.550   0.554  17.731  0.00  0.00    +0.000 HD
ATOM     13  H   UNL     1      -0.029   2.011  19.300  0.00  0.00    +0.000 HD
ATOM     14  H   UNL     1       0.240   0.905  18.076  0.00  0.00    +0.000 HD
ENDBRANCH   5   7
BRANCH   6  15
ATOM     15  N   UNL     1       4.728   2.931  19.666  0.00  0.00    +0.000 N 
ATOM     16  C   UNL     1       4.388   2.096  20.701  0.00  0.00    +0.000 C 
ATOM     17  C   UNL     1       5.186   0.822  20.779  0.00  0.00    +0.000 C 
ATOM     18  O   UNL     1       3.543   2.377  21.544  0.00  0.00    +0.000 OA
ATOM     19  H   UNL     1       5.542   2.728  19.094  0.00  0.00    +0.000 HD
ENDBRANCH   6  15
BRANCH   3  20
ATOM     20  C   UNL     1       2.602   8.038  18.141  0.00  0.00    +0.000 C 
ATOM     21  O   UNL     1       2.815   8.653  17.116  0.00  0.00    +0.000 OA
BRANCH  20  22
ATOM     22  O   UNL     1       1.848   8.508  19.164  0.00  0.00    +0.000 OA
ATOM     23  H   UNL     1       1.409   7.767  19.628  0.00  0.00    +0.000 HD
ENDBRANCH  20  22
ENDBRANCH   3  20
BRANCH   1  24
ATOM     24  C   UNL     1       6.226   5.371  18.216  0.00  0.00    +0.000 C 
BRANCH  24  28
ATOM     25  C   UNL     1       5.346   5.452  14.481  0.00  0.00    +0.000 C 
ATOM     26  C   UNL     1       5.841   4.851  15.766  0.00  0.00    +0.000 C 
ATOM     27  O   UNL     1       6.182   3.675  15.851  0.00  0.00    +0.000 OA
ATOM     28  N   UNL     1       5.845   5.714  16.832  0.00  0.00    +0.000 N 
ATOM     29  H   UNL     1       5.790   6.703  16.609  0.00  0.00    +0.000 HD
ENDBRANCH  24  28
BRANCH  24  30
ATOM     30  C   UNL     1       7.634   5.871  18.666  0.00  0.00    +0.000 C 
BRANCH  30  31
ATOM     31  O   UNL     1       7.909   5.717  20.060  0.00  0.00    +0.000 OA
ATOM     32  H   UNL     1       8.420   6.502  20.357  0.00  0.00    +0.000 HD
ENDBRANCH  30  31
BRANCH  30  33
ATOM     33  C   UNL     1       7.853   7.346  18.273  0.00  0.00    +0.000 C 
BRANCH  33  34
ATOM     34  O   UNL     1       8.023   7.465  16.863  0.00  0.00    +0.000 OA
ATOM     35  H   UNL     1       8.834   7.993  16.728  0.00  0.00    +0.000 HD
ENDBRANCH  33  34
ENDBRANCH  30  33
ENDBRANCH  24  30
ENDBRANCH   1  24
TORSDOF 10
ENDMDL
MODEL 9
REMARK VINA RESULT:      -6.3      2.422      5.875
REMARK  Name = 
REMARK  12 active torsions:
REMARK  status: ('A' for Active; 'I' for Inactive)
REMARK    1  A    between atoms: C_1  and  C_2
REMARK    2  A    between atoms: N_4  and  C_5
REMARK    3  A    between atoms: C_5  and  C_6
REMARK    4  A    between atoms: C_5  and  C_10
REMARK    5  A    between atoms: C_6  and  O_7
REMARK    6  A    between atoms: C_6  and  C_8
REMARK    7  A    between atoms: C_8  and  O_9
REMARK    8  A    between atoms: C_12  and  C_13
REMARK    9  A    between atoms: C_13  and  O_15
REMARK   10  A    between atoms: C_17  and  N_18
REMARK   11  A    between atoms: C_22  and  N_23
REMARK   12  A    between atoms: C_24  and  C_25
REMARK                            x       y       z     vdW  Elec       q    Type
REMARK                         _______ _______ _______ _____ _____    ______ ____
ROOT
ATOM      1  C   UNL     1       4.739   5.714  18.831  0.00  0.00    +0.000 C 
ATOM      2  O   UNL     1       4.053   6.986  18.945  0.00  0.00    +0.000 OA
ATOM      3  C   UNL     1       2.737   7.026  18.517  0.00  0.00    +0.000 C 
ATOM      4  C   UNL     1       2.013   5.948  18.180  0.00  0.00    +0.000 C 
ATOM      5  C   UNL     1       2.539   4.551  18.257  0.00  0.00    +0.000 C 
ATOM      6  C   UNL     1       3.812   4.509  19.128  0.00  0.00    +0.000 C 
ENDROOT
BRANCH   5   7
ATOM      7  N   UNL     1       1.516   3.688  18.862  0.00  0.00    +0.000 NA
ATOM      8  C   UNL     1       1.391   2.475  18.480  0.00  0.00    +0.000 C 
ATOM      9  N   UNL     1       2.049   1.782  17.526  0.00  0.00    +0.000 N 
ATOM     10  N   UNL     1       0.460   1.669  19.041  0.00  0.00    +0.000 N 
ATOM     11  H   UNL     1       2.839   2.246  17.096  0.00  0.00    +0.000 HD
ATOM     12  H   UNL     1       2.297   0.846  17.824  0.00  0.00    +0.000 HD
ATOM     13  H   UNL     1      -0.225   2.212  19.559  0.00  0.00    +0.000 HD
ATOM     14  H   UNL     1       0.008   1.064  18.368  0.00  0.00    +0.000 HD
ENDBRANCH   5   7
BRANCH   6  15
ATOM     15  N   UNL     1       4.485   3.210  19.108  0.00  0.00    +0.000 N 
ATOM     16  C   UNL     1       4.367   2.311  20.139  0.00  0.00    +0.000 C 
ATOM     17  C   UNL     1       5.163   1.045  19.974  0.00  0.00    +0.000 C 
ATOM     18  O   UNL     1       3.715   2.532  21.154  0.00  0.00    +0.000 OA
ATOM     19  H   UNL     1       5.164   3.050  18.370  0.00  0.00    +0.000 HD
ENDBRANCH   6  15
BRANCH   3  20
ATOM     20  C   UNL     1       2.111   8.381  18.372  0.00  0.00    +0.000 C 
ATOM     21  O   UNL     1       1.408   8.932  19.195  0.00  0.00    +0.000 OA
BRANCH  20  22
ATOM     22  O   UNL     1       2.392   8.896  17.151  0.00  0.00    +0.000 OA
ATOM     23  H   UNL     1       3.349   9.087  17.077  0.00  0.00    +0.000 HD
ENDBRANCH  20  22
ENDBRANCH   3  20
BRANCH   1  24
ATOM     24  C   UNL     1       5.687   5.766  17.585  0.00  0.00    +0.000 C 
BRANCH  24  28
ATOM     25  C   UNL     1       8.187   8.679  17.646  0.00  0.00    +0.000 C 
ATOM     26  C   UNL     1       7.597   7.362  18.065  0.00  0.00    +0.000 C 
ATOM     27  O   UNL     1       8.131   6.642  18.903  0.00  0.00    +0.000 OA
ATOM     28  N   UNL     1       6.440   7.024  17.410  0.00  0.00    +0.000 N 
ATOM     29  H   UNL     1       5.955   7.780  16.936  0.00  0.00    +0.000 HD
ENDBRANCH  24  28
BRANCH  24  30
ATOM     30  C   UNL     1       6.459   4.466  17.198  0.00  0.00    +0.000 C 
BRANCH  30  31
ATOM     31  O   UNL     1       7.442   4.046  18.144  0.00  0.00    +0.000 OA
ATOM     32  H   UNL     1       6.996   3.489  18.820  0.00  0.00    +0.000 HD
ENDBRANCH  30  31
BRANCH  30  33
ATOM     33  C   UNL     1       7.122   4.604  15.813  0.00  0.00    +0.000 C 
BRANCH  33  34
ATOM     34  O   UNL     1       6.387   5.512  14.997  0.00  0.00    +0.000 OA
ATOM     35  H   UNL     1       5.450   5.415  15.255  0.00  0.00    +0.000 HD
ENDBRANCH  33  34
ENDBRANCH  30  33
ENDBRANCH  24  30
ENDBRANCH   1  24
TORSDOF 10
ENDMDL
