MODEL 1
REMARK VINA RESULT:      -7.1      0.000      0.000
REMARK  Name = 
REMARK  6 active torsions:
REMARK  status: ('A' for Active; 'I' for Inactive)
REMARK    1  A    between atoms: C_1  and  C_2
REMARK    2  A    between atoms: C_2  and  S_4
REMARK    3  A    between atoms: S_4  and  C_5
REMARK    4  A    between atoms: C_5  and  C_6
REMARK    5  A    between atoms: C_6  and  C_7
REMARK    6  A    between atoms: C_6  and  C_8
REMARK                            x       y       z     vdW  Elec       q    Type
REMARK                         _______ _______ _______ _____ _____    ______ ____
ROOT
ATOM      1  C   UNL     1       5.107   5.179  16.224  0.00  0.00    +0.000 C 
ATOM      2  O   UNL     1       5.272   6.398  16.307  0.00  0.00    +0.000 OA
ATOM      3  N   UNL     1       4.078   4.551  16.924  0.00  0.00    +0.000 N 
ATOM      4  C   UNL     1       3.812   3.111  16.905  0.00  0.00    +0.000 C 
ATOM      5  C   UNL     1       2.478   2.659  17.508  0.00  0.00    +0.000 C 
ATOM      6  C   UNL     1       2.252   3.327  18.832  0.00  0.00    +0.000 A 
ATOM      7  C   UNL     1       1.654   2.660  19.908  0.00  0.00    +0.000 A 
ATOM      8  C   UNL     1       1.417   3.335  21.103  0.00  0.00    +0.000 A 
ATOM      9  C   UNL     1       1.762   4.683  21.223  0.00  0.00    +0.000 A 
ATOM     10  C   UNL     1       2.353   5.354  20.150  0.00  0.00    +0.000 A 
ATOM     11  C   UNL     1       2.616   4.678  18.954  0.00  0.00    +0.000 A 
ATOM     12  C   UNL     1       3.204   5.395  17.758  0.00  0.00    +0.000 C 
ENDROOT
BRANCH   1  13
ATOM     13  C   UNL     1       6.014   4.342  15.281  0.00  0.00    +0.000 C 
ATOM     14  C   UNL     1       7.401   4.967  15.057  0.00  0.00    +0.000 C 
BRANCH  13  15
ATOM     15  C   UNL     1       5.296   4.162  13.917  0.00  0.00    +0.000 C 
BRANCH  15  16
ATOM     16  S   UNL     1       6.464   3.637  12.609  0.00  0.00    +0.000 S 
BRANCH  16  18
ATOM     17  C   UNL     1       4.091   3.172  11.339  0.00  0.00    +0.000 C 
ATOM     18  C   UNL     1       5.437   2.579  11.651  0.00  0.00    +0.000 C 
ATOM     19  O   UNL     1       5.783   1.460  11.296  0.00  0.00    +0.000 OA
ENDBRANCH  16  18
ENDBRANCH  15  16
ENDBRANCH  13  15
ENDBRANCH   1  13
TORSDOF 4
ENDMDL
MODEL 2
REMARK VINA RESULT:      -7.0      2.709      3.973
REMARK  Name = 
REMARK  6 active torsions:
REMARK  status: ('A' for Active; 'I' for Inactive)
REMARK    1  A    between atoms: C_1  and  C_2
REMARK    2  A    between atoms: C_2  and  S_4
REMARK    3  A    between atoms: S_4  and  C_5
REMARK    4  A    between atoms: C_5  and  C_6
REMARK    5  A    between atoms: C_6  and  C_7
REMARK    6  A    between atoms: C_6  and  C_8
REMARK                            x       y       z     vdW  Elec       q    Type
REMARK                         _______ _______ _______ _____ _____    ______ ____
ROOT
ATOM      1  C   UNL     1       4.706   6.082  16.820  0.00  0.00    +0.000 C 
ATOM      2  O   UNL     1       4.690   7.247  17.224  0.00  0.00    +0.000 OA
ATOM      3  N   UNL     1       3.813   5.140  17.330  0.00  0.00    +0.000 N 
ATOM      4  C   UNL     1       3.766   3.732  16.929  0.00  0.00    +0.000 C 
ATOM      5  C   UNL     1       2.543   2.936  17.392  0.00  0.00    +0.000 C 
ATOM      6  C   UNL     1       2.275   3.189  18.846  0.00  0.00    +0.000 A 
ATOM      7  C   UNL     1       1.831   2.178  19.706  0.00  0.00    +0.000 A 
ATOM      8  C   UNL     1       1.546   2.471  21.039  0.00  0.00    +0.000 A 
ATOM      9  C   UNL     1       1.689   3.777  21.511  0.00  0.00    +0.000 A 
ATOM     10  C   UNL     1       2.127   4.789  20.655  0.00  0.00    +0.000 A 
ATOM     11  C   UNL     1       2.437   4.501  19.322  0.00  0.00    +0.000 A 
ATOM     12  C   UNL     1       2.859   5.589  18.358  0.00  0.00    +0.000 C 
ENDROOT
BRANCH   1  13
ATOM     13  C   UNL     1       5.687   5.674  15.688  0.00  0.00    +0.000 C 
ATOM     14  C   UNL     1       5.417   4.269  15.125  0.00  0.00    +0.000 C 
BRANCH  13  15
ATOM     15  C   UNL     1       7.141   5.752  16.225  0.00  0.00    +0.000 C 
BRANCH  15  16
ATOM     16  S   UNL     1       7.395   4.616  17.638  0.00  0.00    +0.000 S 
BRANCH  16  18
ATOM     17  C   UNL     1       8.036   7.139  18.463  0.00  0.00    +0.000 C 
ATOM     18  C   UNL     1       7.665   5.763  18.942  0.00  0.00    +0.000 C 
ATOM     19  O   UNL     1       7.580   5.457  20.124  0.00  0.00    +0.000 OA
ENDBRANCH  16  18
ENDBRANCH  15  16
ENDBRANCH  13  15
ENDBRANCH   1  13
TORSDOF 4
ENDMDL
MODEL 3
REMARK VINA RESULT:      -6.8      3.776      6.823
REMARK  Name = 
REMARK  6 active torsions:
REMARK  status: ('A' for Active; 'I' for Inactive)
REMARK    1  A    between atoms: C_1  and  C_2
REMARK    2  A    between atoms: C_2  and  S_4
REMARK    3  A    between atoms: S_4  and  C_5
REMARK    4  A    between atoms: C_5  and  C_6
REMARK    5  A    between atoms: C_6  and  C_7
REMARK    6  A    between atoms: C_6  and  C_8
REMARK                            x       y       z     vdW  Elec       q    Type
REMARK                         _______ _______ _______ _____ _____    ______ ____
ROOT
ATOM      1  C   UNL     1       3.994   3.259  18.345  0.00  0.00    +0.000 C 
ATOM      2  O   UNL     1       4.401   2.498  19.226  0.00  0.00    +0.000 OA
ATOM      3  N   UNL     1       4.843   4.211  17.780  0.00  0.00    +0.000 N 
ATOM      4  C   UNL     1       4.451   5.170  16.744  0.00  0.00    +0.000 C 
ATOM      5  C   UNL     1       5.589   5.933  16.061  0.00  0.00    +0.000 C 
ATOM      6  C   UNL     1       6.549   6.465  17.084  0.00  0.00    +0.000 A 
ATOM      7  C   UNL     1       7.162   7.716  16.948  0.00  0.00    +0.000 A 
ATOM      8  C   UNL     1       8.086   8.147  17.898  0.00  0.00    +0.000 A 
ATOM      9  C   UNL     1       8.411   7.324  18.978  0.00  0.00    +0.000 A 
ATOM     10  C   UNL     1       7.805   6.074  19.115  0.00  0.00    +0.000 A 
ATOM     11  C   UNL     1       6.860   5.642  18.179  0.00  0.00    +0.000 A 
ATOM     12  C   UNL     1       6.230   4.268  18.272  0.00  0.00    +0.000 C 
ENDROOT
BRANCH   1  13
ATOM     13  C   UNL     1       2.542   3.116  17.814  0.00  0.00    +0.000 C 
ATOM     14  C   UNL     1       1.788   4.454  17.736  0.00  0.00    +0.000 C 
BRANCH  13  15
ATOM     15  C   UNL     1       1.765   2.131  18.726  0.00  0.00    +0.000 C 
BRANCH  15  16
ATOM     16  S   UNL     1       0.603   3.014  19.831  0.00  0.00    +0.000 S 
BRANCH  16  18
ATOM     17  C   UNL     1       2.270   4.626  21.272  0.00  0.00    +0.000 C 
ATOM     18  C   UNL     1       1.618   3.272  21.243  0.00  0.00    +0.000 C 
ATOM     19  O   UNL     1       1.789   2.418  22.102  0.00  0.00    +0.000 OA
ENDBRANCH  16  18
ENDBRANCH  15  16
ENDBRANCH  13  15
ENDBRANCH   1  13
TORSDOF 4
ENDMDL
MODEL 4
REMARK VINA RESULT:      -6.7      3.895      5.807
REMARK  Name = 
REMARK  6 active torsions:
REMARK  status: ('A' for Active; 'I' for Inactive)
REMARK    1  A    between atoms: C_1  and  C_2
REMARK    2  A    between atoms: C_2  and  S_4
REMARK    3  A    between atoms: S_4  and  C_5
REMARK    4  A    between atoms: C_5  and  C_6
REMARK    5  A    between atoms: C_6  and  C_7
REMARK    6  A    between atoms: C_6  and  C_8
REMARK                            x       y       z     vdW  Elec       q    Type
REMARK                         _______ _______ _______ _____ _____    ______ ____
ROOT
ATOM      1  C   UNL     1       2.779   5.555  19.238  0.00  0.00    +0.000 C 
ATOM      2  O   UNL     1       2.794   5.006  20.343  0.00  0.00    +0.000 OA
ATOM      3  N   UNL     1       2.428   6.899  19.116  0.00  0.00    +0.000 N 
ATOM      4  C   UNL     1       2.362   7.633  17.850  0.00  0.00    +0.000 C 
ATOM      5  C   UNL     1       2.233   9.155  17.956  0.00  0.00    +0.000 C 
ATOM      6  C   UNL     1       1.176   9.522  18.955  0.00  0.00    +0.000 A 
ATOM      7  C   UNL     1       0.316  10.609  18.762  0.00  0.00    +0.000 A 
ATOM      8  C   UNL     1      -0.618  10.943  19.741  0.00  0.00    +0.000 A 
ATOM      9  C   UNL     1      -0.685  10.202  20.922  0.00  0.00    +0.000 A 
ATOM     10  C   UNL     1       0.174   9.119  21.121  0.00  0.00    +0.000 A 
ATOM     11  C   UNL     1       1.099   8.763  20.134  0.00  0.00    +0.000 A 
ATOM     12  C   UNL     1       2.080   7.629  20.348  0.00  0.00    +0.000 C 
ENDROOT
BRANCH   1  13
ATOM     13  C   UNL     1       3.217   4.760  17.979  0.00  0.00    +0.000 C 
ATOM     14  C   UNL     1       2.384   3.490  17.740  0.00  0.00    +0.000 C 
BRANCH  13  15
ATOM     15  C   UNL     1       4.716   4.384  18.113  0.00  0.00    +0.000 C 
BRANCH  15  16
ATOM     16  S   UNL     1       5.772   5.452  17.066  0.00  0.00    +0.000 S 
BRANCH  16  18
ATOM     17  C   UNL     1       7.759   5.884  18.889  0.00  0.00    +0.000 C 
ATOM     18  C   UNL     1       7.367   5.061  17.693  0.00  0.00    +0.000 C 
ATOM     19  O   UNL     1       8.090   4.214  17.186  0.00  0.00    +0.000 OA
ENDBRANCH  16  18
ENDBRANCH  15  16
ENDBRANCH  13  15
ENDBRANCH   1  13
TORSDOF 4
ENDMDL
MODEL 5
REMARK VINA RESULT:      -6.7      2.428      2.976
REMARK  Name = 
REMARK  6 active torsions:
REMARK  status: ('A' for Active; 'I' for Inactive)
REMARK    1  A    between atoms: C_1  and  C_2
REMARK    2  A    between atoms: C_2  and  S_4
REMARK    3  A    between atoms: S_4  and  C_5
REMARK    4  A    between atoms: C_5  and  C_6
REMARK    5  A    between atoms: C_6  and  C_7
REMARK    6  A    between atoms: C_6  and  C_8
REMARK                            x       y       z     vdW  Elec       q    Type
REMARK                         _______ _______ _______ _____ _____    ______ ____
ROOT
ATOM      1  C   UNL     1       6.718   5.057  17.929  0.00  0.00    +0.000 C 
ATOM      2  O   UNL     1       7.510   4.365  18.573  0.00  0.00    +0.000 OA
ATOM      3  N   UNL     1       5.349   4.999  18.188  0.00  0.00    +0.000 N 
ATOM      4  C   UNL     1       4.330   5.766  17.468  0.00  0.00    +0.000 C 
ATOM      5  C   UNL     1       2.928   5.776  18.085  0.00  0.00    +0.000 C 
ATOM      6  C   UNL     1       2.518   4.386  18.472  0.00  0.00    +0.000 A 
ATOM      7  C   UNL     1       1.203   3.930  18.323  0.00  0.00    +0.000 A 
ATOM      8  C   UNL     1       0.857   2.648  18.744  0.00  0.00    +0.000 A 
ATOM      9  C   UNL     1       1.819   1.823  19.329  0.00  0.00    +0.000 A 
ATOM     10  C   UNL     1       3.130   2.275  19.485  0.00  0.00    +0.000 A 
ATOM     11  C   UNL     1       3.493   3.552  19.045  0.00  0.00    +0.000 A 
ATOM     12  C   UNL     1       4.893   4.089  19.253  0.00  0.00    +0.000 C 
ENDROOT
BRANCH   1  13
ATOM     13  C   UNL     1       7.255   6.049  16.862  0.00  0.00    +0.000 C 
ATOM     14  C   UNL     1       7.328   7.501  17.362  0.00  0.00    +0.000 C 
BRANCH  13  15
ATOM     15  C   UNL     1       6.351   5.976  15.603  0.00  0.00    +0.000 C 
BRANCH  15  16
ATOM     16  S   UNL     1       6.569   4.391  14.713  0.00  0.00    +0.000 S 
BRANCH  16  18
ATOM     17  C   UNL     1       7.156   4.179  12.054  0.00  0.00    +0.000 C 
ATOM     18  C   UNL     1       7.499   4.918  13.317  0.00  0.00    +0.000 C 
ATOM     19  O   UNL     1       8.357   5.788  13.381  0.00  0.00    +0.000 OA
ENDBRANCH  16  18
ENDBRANCH  15  16
ENDBRANCH  13  15
ENDBRANCH   1  13
TORSDOF 4
ENDMDL
MODEL 6
REMARK VINA RESULT:      -6.6      3.282      5.250
REMARK  Name = 
REMARK  6 active torsions:
REMARK  status: ('A' for Active; 'I' for Inactive)
REMARK    1  A    between atoms: C_1  and  C_2
REMARK    2  A    between atoms: C_2  and  S_4
REMARK    3  A    between atoms: S_4  and  C_5
REMARK    4  A    between atoms: C_5  and  C_6
REMARK    5  A    between atoms: C_6  and  C_7
REMARK    6  A    between atoms: C_6  and  C_8
REMARK                            x       y       z     vdW  Elec       q    Type
REMARK                         _______ _______ _______ _____ _____    ______ ____
ROOT
ATOM      1  C   UNL     1       2.747   4.559  19.234  0.00  0.00    +0.000 C 
ATOM      2  O   UNL     1       2.684   4.000  20.332  0.00  0.00    +0.000 OA
ATOM      3  N   UNL     1       2.588   5.941  19.129  0.00  0.00    +0.000 N 
ATOM      4  C   UNL     1       2.628   6.693  17.873  0.00  0.00    +0.000 C 
ATOM      5  C   UNL     1       2.715   8.217  17.998  0.00  0.00    +0.000 C 
ATOM      6  C   UNL     1       1.719   8.716  19.003  0.00  0.00    +0.000 A 
ATOM      7  C   UNL     1       1.021   9.916  18.825  0.00  0.00    +0.000 A 
ATOM      8  C   UNL     1       0.143  10.366  19.809  0.00  0.00    +0.000 A 
ATOM      9  C   UNL     1      -0.030   9.626  20.980  0.00  0.00    +0.000 A 
ATOM     10  C   UNL     1       0.668   8.431  21.164  0.00  0.00    +0.000 A 
ATOM     11  C   UNL     1       1.535   7.960  20.173  0.00  0.00    +0.000 A 
ATOM     12  C   UNL     1       2.346   6.697  20.371  0.00  0.00    +0.000 C 
ENDROOT
BRANCH   1  13
ATOM     13  C   UNL     1       3.070   3.727  17.964  0.00  0.00    +0.000 C 
ATOM     14  C   UNL     1       2.343   2.372  17.923  0.00  0.00    +0.000 C 
BRANCH  13  15
ATOM     15  C   UNL     1       4.602   3.500  17.883  0.00  0.00    +0.000 C 
BRANCH  15  16
ATOM     16  S   UNL     1       5.308   4.227  16.358  0.00  0.00    +0.000 S 
BRANCH  16  18
ATOM     17  C   UNL     1       6.593   6.239  17.685  0.00  0.00    +0.000 C 
ATOM     18  C   UNL     1       6.796   4.926  16.980  0.00  0.00    +0.000 C 
ATOM     19  O   UNL     1       7.890   4.399  16.830  0.00  0.00    +0.000 OA
ENDBRANCH  16  18
ENDBRANCH  15  16
ENDBRANCH  13  15
ENDBRANCH   1  13
TORSDOF 4
ENDMDL
MODEL 7
REMARK VINA RESULT:      -6.6      3.683      5.432
REMARK  Name = 
REMARK  6 active torsions:
REMARK  status: ('A' for Active; 'I' for Inactive)
REMARK    1  A    between atoms: C_1  and  C_2
REMARK    2  A    between atoms: C_2  and  S_4
REMARK    3  A    between atoms: S_4  and  C_5
REMARK    4  A    between atoms: C_5  and  C_6
REMARK    5  A    between atoms: C_6  and  C_7
REMARK    6  A    between atoms: C_6  and  C_8
REMARK                            x       y       z     vdW  Elec       q    Type
REMARK                         _______ _______ _______ _____ _____    ______ ____
ROOT
ATOM      1  C   UNL     1       2.770   5.444  19.105  0.00  0.00    +0.000 C 
ATOM      2  O   UNL     1       2.829   4.870  20.195  0.00  0.00    +0.000 OA
ATOM      3  N   UNL     1       2.434   6.796  19.030  0.00  0.00    +0.000 N 
ATOM      4  C   UNL     1       2.320   7.560  17.785  0.00  0.00    +0.000 C 
ATOM      5  C   UNL     1       2.220   9.081  17.930  0.00  0.00    +0.000 C 
ATOM      6  C   UNL     1       1.217   9.439  18.987  0.00  0.00    +0.000 A 
ATOM      7  C   UNL     1       0.366  10.543  18.859  0.00  0.00    +0.000 A 
ATOM      8  C   UNL     1      -0.515  10.868  19.889  0.00  0.00    +0.000 A 
ATOM      9  C   UNL     1      -0.538  10.100  21.055  0.00  0.00    +0.000 A 
ATOM     10  C   UNL     1       0.313   9.001  21.188  0.00  0.00    +0.000 A 
ATOM     11  C   UNL     1       1.185   8.654  20.151  0.00  0.00    +0.000 A 
ATOM     12  C   UNL     1       2.157   7.502  20.292  0.00  0.00    +0.000 C 
ENDROOT
BRANCH   1  13
ATOM     13  C   UNL     1       3.135   4.672  17.809  0.00  0.00    +0.000 C 
ATOM     14  C   UNL     1       2.228   3.459  17.546  0.00  0.00    +0.000 C 
BRANCH  13  15
ATOM     15  C   UNL     1       4.614   4.209  17.894  0.00  0.00    +0.000 C 
BRANCH  15  16
ATOM     16  S   UNL     1       5.766   5.631  17.840  0.00  0.00    +0.000 S 
BRANCH  16  18
ATOM     17  C   UNL     1       6.106   4.101  15.603  0.00  0.00    +0.000 C 
ATOM     18  C   UNL     1       6.608   5.319  16.328  0.00  0.00    +0.000 C 
ATOM     19  O   UNL     1       7.528   6.017  15.925  0.00  0.00    +0.000 OA
ENDBRANCH  16  18
ENDBRANCH  15  16
ENDBRANCH  13  15
ENDBRANCH   1  13
TORSDOF 4
ENDMDL
MODEL 8
REMARK VINA RESULT:      -6.6      3.872      5.860
REMARK  Name = 
REMARK  6 active torsions:
REMARK  status: ('A' for Active; 'I' for Inactive)
REMARK    1  A    between atoms: C_1  and  C_2
REMARK    2  A    between atoms: C_2  and  S_4
REMARK    3  A    between atoms: S_4  and  C_5
REMARK    4  A    between atoms: C_5  and  C_6
REMARK    5  A    between atoms: C_6  and  C_7
REMARK    6  A    between atoms: C_6  and  C_8
REMARK                            x       y       z     vdW  Elec       q    Type
REMARK                         _______ _______ _______ _____ _____    ______ ____
ROOT
ATOM      1  C   UNL     1       2.160   4.609  19.716  0.00  0.00    +0.000 C 
ATOM      2  O   UNL     1       1.955   4.286  20.888  0.00  0.00    +0.000 OA
ATOM      3  N   UNL     1       2.253   5.953  19.353  0.00  0.00    +0.000 N 
ATOM      4  C   UNL     1       2.477   6.436  17.989  0.00  0.00    +0.000 C 
ATOM      5  C   UNL     1       2.827   7.920  17.844  0.00  0.00    +0.000 C 
ATOM      6  C   UNL     1       1.895   8.759  18.668  0.00  0.00    +0.000 A 
ATOM      7  C   UNL     1       1.428  10.002  18.227  0.00  0.00    +0.000 A 
ATOM      8  C   UNL     1       0.604  10.770  19.048  0.00  0.00    +0.000 A 
ATOM      9  C   UNL     1       0.256  10.304  20.317  0.00  0.00    +0.000 A 
ATOM     10  C   UNL     1       0.723   9.066  20.763  0.00  0.00    +0.000 A 
ATOM     11  C   UNL     1       1.532   8.279  19.938  0.00  0.00    +0.000 A 
ATOM     12  C   UNL     1       2.098   6.959  20.418  0.00  0.00    +0.000 C 
ENDROOT
BRANCH   1  13
ATOM     13  C   UNL     1       2.382   3.509  18.642  0.00  0.00    +0.000 C 
ATOM     14  C   UNL     1       1.440   2.304  18.802  0.00  0.00    +0.000 C 
BRANCH  13  15
ATOM     15  C   UNL     1       3.857   3.031  18.704  0.00  0.00    +0.000 C 
BRANCH  15  16
ATOM     16  S   UNL     1       4.864   3.794  17.379  0.00  0.00    +0.000 S 
BRANCH  16  18
ATOM     17  C   UNL     1       7.406   4.705  17.787  0.00  0.00    +0.000 C 
ATOM     18  C   UNL     1       6.004   4.736  18.329  0.00  0.00    +0.000 C 
ATOM     19  O   UNL     1       5.684   5.338  19.345  0.00  0.00    +0.000 OA
ENDBRANCH  16  18
ENDBRANCH  15  16
ENDBRANCH  13  15
ENDBRANCH   1  13
TORSDOF 4
ENDMDL
MODEL 9
REMARK VINA RESULT:      -6.5      4.506      6.682
REMARK  Name = 
REMARK  6 active torsions:
REMARK  status: ('A' for Active; 'I' for Inactive)
REMARK    1  A    between atoms: C_1  and  C_2
REMARK    2  A    between atoms: C_2  and  S_4
REMARK    3  A    between atoms: S_4  and  C_5
REMARK    4  A    between atoms: C_5  and  C_6
REMARK    5  A    between atoms: C_6  and  C_7
REMARK    6  A    between atoms: C_6  and  C_8
REMARK                            x       y       z     vdW  Elec       q    Type
REMARK                         _______ _______ _______ _____ _____    ______ ____
ROOT
ATOM      1  C   UNL     1       2.356   6.115  19.358  0.00  0.00    +0.000 C 
ATOM      2  O   UNL     1       2.363   5.603  20.480  0.00  0.00    +0.000 OA
ATOM      3  N   UNL     1       2.066   7.469  19.196  0.00  0.00    +0.000 N 
ATOM      4  C   UNL     1       2.015   8.164  17.907  0.00  0.00    +0.000 C 
ATOM      5  C   UNL     1       1.958   9.693  17.963  0.00  0.00    +0.000 C 
ATOM      6  C   UNL     1       0.935  10.141  18.964  0.00  0.00    +0.000 A 
ATOM      7  C   UNL     1       0.124  11.261  18.746  0.00  0.00    +0.000 A 
ATOM      8  C   UNL     1      -0.778  11.671  19.726  0.00  0.00    +0.000 A 
ATOM      9  C   UNL     1      -0.862  10.972  20.932  0.00  0.00    +0.000 A 
ATOM     10  C   UNL     1      -0.051   9.858  21.155  0.00  0.00    +0.000 A 
ATOM     11  C   UNL     1       0.841   9.426  20.169  0.00  0.00    +0.000 A 
ATOM     12  C   UNL     1       1.771   8.255  20.407  0.00  0.00    +0.000 C 
ENDROOT
BRANCH   1  13
ATOM     13  C   UNL     1       2.737   5.259  18.120  0.00  0.00    +0.000 C 
ATOM     14  C   UNL     1       1.609   4.323  17.657  0.00  0.00    +0.000 C 
BRANCH  13  15
ATOM     15  C   UNL     1       4.004   4.427  18.450  0.00  0.00    +0.000 C 
BRANCH  15  16
ATOM     16  S   UNL     1       3.633   2.635  18.509  0.00  0.00    +0.000 S 
BRANCH  16  18
ATOM     17  C   UNL     1       2.820   2.505  21.113  0.00  0.00    +0.000 C 
ATOM     18  C   UNL     1       3.987   2.277  20.194  0.00  0.00    +0.000 C 
ATOM     19  O   UNL     1       5.088   1.902  20.576  0.00  0.00    +0.000 OA
ENDBRANCH  16  18
ENDBRANCH  15  16
ENDBRANCH  13  15
ENDBRANCH   1  13
TORSDOF 4
ENDMDL
