MODEL 1
REMARK VINA RESULT:      -7.4      0.000      0.000
REMARK  Name = 
REMARK  4 active torsions:
REMARK  status: ('A' for Active; 'I' for Inactive)
REMARK    1  A    between atoms: C_1  and  C_2
REMARK    2  A    between atoms: C_4  and  C_5
REMARK    3  A    between atoms: C_8  and  C_10
REMARK    4  A    between atoms: C_10  and  N_11
REMARK                            x       y       z     vdW  Elec       q    Type
REMARK                         _______ _______ _______ _____ _____    ______ ____
ROOT
ATOM      1  C   UNL     1       3.257   2.011  18.096  0.00  0.00    +0.000 C 
ATOM      2  C   UNL     1       1.767   2.342  18.226  0.00  0.00    +0.000 C 
ATOM      3  C   UNL     1       1.217   1.957  19.609  0.00  0.00    +0.000 C 
ATOM      4  C   UNL     1       1.737   2.889  20.714  0.00  0.00    +0.000 C 
ATOM      5  C   UNL     1       1.139   2.518  22.069  0.00  0.00    +0.000 C 
ATOM      6  C   UNL     1       1.444   4.354  20.352  0.00  0.00    +0.000 C 
ATOM      7  N   UNL     1       1.982   4.681  19.029  0.00  0.00    +0.000 N 
ATOM      8  C   UNL     1       2.739   5.833  18.869  0.00  0.00    +0.000 C 
ATOM      9  O   UNL     1       2.898   6.639  19.795  0.00  0.00    +0.000 OA
ATOM     10  C   UNL     1       1.507   3.827  17.940  0.00  0.00    +0.000 C 
ENDROOT
BRANCH   8  11
ATOM     11  C   UNL     1       3.378   6.134  17.499  0.00  0.00    +0.000 C 
BRANCH  11  12
ATOM     12  N   UNL     1       4.811   5.832  17.415  0.00  0.00    +0.000 N 
ATOM     13  C   UNL     1       5.357   4.856  18.353  0.00  0.00    +0.000 C 
ATOM     14  C   UNL     1       6.276   5.504  19.384  0.00  0.00    +0.000 C 
ATOM     15  C   UNL     1       7.685   5.768  18.856  0.00  0.00    +0.000 C 
ATOM     16  C   UNL     1       7.752   6.684  17.636  0.00  0.00    +0.000 C 
ATOM     17  C   UNL     1       7.055   6.121  16.404  0.00  0.00    +0.000 C 
ATOM     18  C   UNL     1       5.566   6.410  16.409  0.00  0.00    +0.000 C 
ATOM     19  O   UNL     1       5.079   7.144  15.549  0.00  0.00    +0.000 OA
ENDBRANCH  11  12
ENDBRANCH   8  11
TORSDOF 2
ENDMDL
MODEL 2
REMARK VINA RESULT:      -6.9      1.621      5.552
REMARK  Name = 
REMARK  4 active torsions:
REMARK  status: ('A' for Active; 'I' for Inactive)
REMARK    1  A    between atoms: C_1  and  C_2
REMARK    2  A    between atoms: C_4  and  C_5
REMARK    3  A    between atoms: C_8  and  C_10
REMARK    4  A    between atoms: C_10  and  N_11
REMARK                            x       y       z     vdW  Elec       q    Type
REMARK                         _______ _______ _______ _____ _____    ______ ____
ROOT
ATOM      1  C   UNL     1       5.381   4.516  15.222  0.00  0.00    +0.000 C 
ATOM      2  C   UNL     1       6.028   4.288  16.591  0.00  0.00    +0.000 C 
ATOM      3  C   UNL     1       7.170   5.283  16.856  0.00  0.00    +0.000 C 
ATOM      4  C   UNL     1       6.646   6.706  17.105  0.00  0.00    +0.000 C 
ATOM      5  C   UNL     1       7.792   7.665  17.413  0.00  0.00    +0.000 C 
ATOM      6  C   UNL     1       5.602   6.695  18.234  0.00  0.00    +0.000 C 
ATOM      7  N   UNL     1       4.534   5.735  17.947  0.00  0.00    +0.000 N 
ATOM      8  C   UNL     1       3.211   6.132  18.078  0.00  0.00    +0.000 C 
ATOM      9  O   UNL     1       2.909   7.248  18.516  0.00  0.00    +0.000 OA
ATOM     10  C   UNL     1       4.982   4.362  17.713  0.00  0.00    +0.000 C 
ENDROOT
BRANCH   8  11
ATOM     11  C   UNL     1       2.085   5.151  17.692  0.00  0.00    +0.000 C 
BRANCH  11  12
ATOM     12  N   UNL     1       1.690   4.225  18.759  0.00  0.00    +0.000 N 
ATOM     13  C   UNL     1       1.180   4.798  20.002  0.00  0.00    +0.000 C 
ATOM     14  C   UNL     1       2.151   4.603  21.163  0.00  0.00    +0.000 C 
ATOM     15  C   UNL     1       2.077   3.211  21.786  0.00  0.00    +0.000 C 
ATOM     16  C   UNL     1       2.373   2.061  20.826  0.00  0.00    +0.000 C 
ATOM     17  C   UNL     1       1.379   1.945  19.678  0.00  0.00    +0.000 C 
ATOM     18  C   UNL     1       1.733   2.863  18.522  0.00  0.00    +0.000 C 
ATOM     19  O   UNL     1       2.053   2.386  17.434  0.00  0.00    +0.000 OA
ENDBRANCH  11  12
ENDBRANCH   8  11
TORSDOF 2
ENDMDL
MODEL 3
REMARK VINA RESULT:      -6.9      1.957      6.070
REMARK  Name = 
REMARK  4 active torsions:
REMARK  status: ('A' for Active; 'I' for Inactive)
REMARK    1  A    between atoms: C_1  and  C_2
REMARK    2  A    between atoms: C_4  and  C_5
REMARK    3  A    between atoms: C_8  and  C_10
REMARK    4  A    between atoms: C_10  and  N_11
REMARK                            x       y       z     vdW  Elec       q    Type
REMARK                         _______ _______ _______ _____ _____    ______ ____
ROOT
ATOM      1  C   UNL     1       4.796   6.920  16.113  0.00  0.00    +0.000 C 
ATOM      2  C   UNL     1       6.151   6.261  15.837  0.00  0.00    +0.000 C 
ATOM      3  C   UNL     1       7.298   6.994  16.551  0.00  0.00    +0.000 C 
ATOM      4  C   UNL     1       7.262   6.775  18.071  0.00  0.00    +0.000 C 
ATOM      5  C   UNL     1       8.437   7.472  18.752  0.00  0.00    +0.000 C 
ATOM      6  C   UNL     1       7.239   5.271  18.389  0.00  0.00    +0.000 C 
ATOM      7  N   UNL     1       6.135   4.608  17.690  0.00  0.00    +0.000 N 
ATOM      8  C   UNL     1       5.297   3.757  18.397  0.00  0.00    +0.000 C 
ATOM      9  O   UNL     1       5.511   3.473  19.582  0.00  0.00    +0.000 OA
ATOM     10  C   UNL     1       6.132   4.778  16.237  0.00  0.00    +0.000 C 
ENDROOT
BRANCH   8  11
ATOM     11  C   UNL     1       4.084   3.127  17.685  0.00  0.00    +0.000 C 
BRANCH  11  12
ATOM     12  N   UNL     1       2.790   3.413  18.315  0.00  0.00    +0.000 N 
ATOM     13  C   UNL     1       2.283   4.780  18.236  0.00  0.00    +0.000 C 
ATOM     14  C   UNL     1       2.298   5.476  19.594  0.00  0.00    +0.000 C 
ATOM     15  C   UNL     1       1.112   5.098  20.479  0.00  0.00    +0.000 C 
ATOM     16  C   UNL     1       0.998   3.609  20.799  0.00  0.00    +0.000 C 
ATOM     17  C   UNL     1       0.769   2.732  19.575  0.00  0.00    +0.000 C 
ATOM     18  C   UNL     1       2.068   2.376  18.877  0.00  0.00    +0.000 C 
ATOM     19  O   UNL     1       2.445   1.205  18.840  0.00  0.00    +0.000 OA
ENDBRANCH  11  12
ENDBRANCH   8  11
TORSDOF 2
ENDMDL
MODEL 4
REMARK VINA RESULT:      -6.5      1.731      5.906
REMARK  Name = 
REMARK  4 active torsions:
REMARK  status: ('A' for Active; 'I' for Inactive)
REMARK    1  A    between atoms: C_1  and  C_2
REMARK    2  A    between atoms: C_4  and  C_5
REMARK    3  A    between atoms: C_8  and  C_10
REMARK    4  A    between atoms: C_10  and  N_11
REMARK                            x       y       z     vdW  Elec       q    Type
REMARK                         _______ _______ _______ _____ _____    ______ ____
ROOT
ATOM      1  C   UNL     1       8.121   4.400  17.821  0.00  0.00    +0.000 C 
ATOM      2  C   UNL     1       7.573   5.267  18.957  0.00  0.00    +0.000 C 
ATOM      3  C   UNL     1       8.163   6.686  18.928  0.00  0.00    +0.000 C 
ATOM      4  C   UNL     1       7.617   7.511  17.751  0.00  0.00    +0.000 C 
ATOM      5  C   UNL     1       8.180   8.930  17.771  0.00  0.00    +0.000 C 
ATOM      6  C   UNL     1       6.081   7.514  17.776  0.00  0.00    +0.000 C 
ATOM      7  N   UNL     1       5.557   6.146  17.806  0.00  0.00    +0.000 N 
ATOM      8  C   UNL     1       4.550   5.784  16.922  0.00  0.00    +0.000 C 
ATOM      9  O   UNL     1       4.021   6.610  16.168  0.00  0.00    +0.000 OA
ATOM     10  C   UNL     1       6.039   5.324  18.916  0.00  0.00    +0.000 C 
ENDROOT
BRANCH   8  11
ATOM     11  C   UNL     1       4.059   4.324  16.892  0.00  0.00    +0.000 C 
BRANCH  11  12
ATOM     12  N   UNL     1       2.978   4.023  17.837  0.00  0.00    +0.000 N 
ATOM     13  C   UNL     1       2.068   5.107  18.196  0.00  0.00    +0.000 C 
ATOM     14  C   UNL     1       2.251   5.555  19.642  0.00  0.00    +0.000 C 
ATOM     15  C   UNL     1       1.550   4.647  20.650  0.00  0.00    +0.000 C 
ATOM     16  C   UNL     1       2.006   3.189  20.627  0.00  0.00    +0.000 C 
ATOM     17  C   UNL     1       1.724   2.476  19.311  0.00  0.00    +0.000 C 
ATOM     18  C   UNL     1       2.812   2.724  18.283  0.00  0.00    +0.000 C 
ATOM     19  O   UNL     1       3.510   1.790  17.889  0.00  0.00    +0.000 OA
ENDBRANCH  11  12
ENDBRANCH   8  11
TORSDOF 2
ENDMDL
MODEL 5
REMARK VINA RESULT:      -6.5      2.354      5.924
REMARK  Name = 
REMARK  4 active torsions:
REMARK  status: ('A' for Active; 'I' for Inactive)
REMARK    1  A    between atoms: C_1  and  C_2
REMARK    2  A    between atoms: C_4  and  C_5
REMARK    3  A    between atoms: C_8  and  C_10
REMARK    4  A    between atoms: C_10  and  N_11
REMARK                            x       y       z     vdW  Elec       q    Type
REMARK                         _______ _______ _______ _____ _____    ______ ____
ROOT
ATOM      1  C   UNL     1       7.628   4.595  17.415  0.00  0.00    +0.000 C 
ATOM      2  C   UNL     1       7.007   5.612  16.453  0.00  0.00    +0.000 C 
ATOM      3  C   UNL     1       7.124   5.158  14.989  0.00  0.00    +0.000 C 
ATOM      4  C   UNL     1       6.190   3.977  14.677  0.00  0.00    +0.000 C 
ATOM      5  C   UNL     1       6.288   3.576  13.208  0.00  0.00    +0.000 C 
ATOM      6  C   UNL     1       4.746   4.326  15.071  0.00  0.00    +0.000 C 
ATOM      7  N   UNL     1       4.676   4.756  16.470  0.00  0.00    +0.000 N 
ATOM      8  C   UNL     1       3.715   4.203  17.303  0.00  0.00    +0.000 C 
ATOM      9  O   UNL     1       2.857   3.422  16.875  0.00  0.00    +0.000 OA
ATOM     10  C   UNL     1       5.540   5.886  16.814  0.00  0.00    +0.000 C 
ENDROOT
BRANCH   8  11
ATOM     11  C   UNL     1       3.695   4.588  18.796  0.00  0.00    +0.000 C 
BRANCH  11  12
ATOM     12  N   UNL     1       2.638   5.533  19.169  0.00  0.00    +0.000 N 
ATOM     13  C   UNL     1       2.148   6.446  18.140  0.00  0.00    +0.000 C 
ATOM     14  C   UNL     1       2.557   7.890  18.414  0.00  0.00    +0.000 C 
ATOM     15  C   UNL     1       1.667   8.587  19.441  0.00  0.00    +0.000 C 
ATOM     16  C   UNL     1       1.628   7.920  20.814  0.00  0.00    +0.000 C 
ATOM     17  C   UNL     1       1.049   6.511  20.799  0.00  0.00    +0.000 C 
ATOM     18  C   UNL     1       2.091   5.470  20.439  0.00  0.00    +0.000 C 
ATOM     19  O   UNL     1       2.426   4.623  21.266  0.00  0.00    +0.000 OA
ENDBRANCH  11  12
ENDBRANCH   8  11
TORSDOF 2
ENDMDL
MODEL 6
REMARK VINA RESULT:      -6.4      1.745      6.066
REMARK  Name = 
REMARK  4 active torsions:
REMARK  status: ('A' for Active; 'I' for Inactive)
REMARK    1  A    between atoms: C_1  and  C_2
REMARK    2  A    between atoms: C_4  and  C_5
REMARK    3  A    between atoms: C_8  and  C_10
REMARK    4  A    between atoms: C_10  and  N_11
REMARK                            x       y       z     vdW  Elec       q    Type
REMARK                         _______ _______ _______ _____ _____    ______ ____
ROOT
ATOM      1  C   UNL     1       8.460   4.419  18.235  0.00  0.00    +0.000 C 
ATOM      2  C   UNL     1       7.835   5.393  19.238  0.00  0.00    +0.000 C 
ATOM      3  C   UNL     1       8.197   6.852  18.918  0.00  0.00    +0.000 C 
ATOM      4  C   UNL     1       7.478   7.358  17.658  0.00  0.00    +0.000 C 
ATOM      5  C   UNL     1       7.814   8.823  17.388  0.00  0.00    +0.000 C 
ATOM      6  C   UNL     1       5.962   7.145  17.791  0.00  0.00    +0.000 C 
ATOM      7  N   UNL     1       5.658   5.745  18.098  0.00  0.00    +0.000 N 
ATOM      8  C   UNL     1       4.682   5.085  17.365  0.00  0.00    +0.000 C 
ATOM      9  O   UNL     1       3.998   5.673  16.519  0.00  0.00    +0.000 OA
ATOM     10  C   UNL     1       6.311   5.218  19.297  0.00  0.00    +0.000 C 
ENDROOT
BRANCH   8  11
ATOM     11  C   UNL     1       4.421   3.588  17.627  0.00  0.00    +0.000 C 
BRANCH  11  12
ATOM     12  N   UNL     1       3.392   3.315  18.636  0.00  0.00    +0.000 N 
ATOM     13  C   UNL     1       2.011   3.653  18.308  0.00  0.00    +0.000 C 
ATOM     14  C   UNL     1       1.499   4.832  19.130  0.00  0.00    +0.000 C 
ATOM     15  C   UNL     1       1.056   4.439  20.538  0.00  0.00    +0.000 C 
ATOM     16  C   UNL     1       2.145   3.800  21.399  0.00  0.00    +0.000 C 
ATOM     17  C   UNL     1       2.665   2.477  20.852  0.00  0.00    +0.000 C 
ATOM     18  C   UNL     1       3.750   2.677  19.811  0.00  0.00    +0.000 C 
ATOM     19  O   UNL     1       4.897   2.289  20.036  0.00  0.00    +0.000 OA
ENDBRANCH  11  12
ENDBRANCH   8  11
TORSDOF 2
ENDMDL
MODEL 7
REMARK VINA RESULT:      -6.4      1.830      5.979
REMARK  Name = 
REMARK  4 active torsions:
REMARK  status: ('A' for Active; 'I' for Inactive)
REMARK    1  A    between atoms: C_1  and  C_2
REMARK    2  A    between atoms: C_4  and  C_5
REMARK    3  A    between atoms: C_8  and  C_10
REMARK    4  A    between atoms: C_10  and  N_11
REMARK                            x       y       z     vdW  Elec       q    Type
REMARK                         _______ _______ _______ _____ _____    ______ ____
ROOT
ATOM      1  C   UNL     1       7.658   4.563  17.672  0.00  0.00    +0.000 C 
ATOM      2  C   UNL     1       7.361   5.669  16.655  0.00  0.00    +0.000 C 
ATOM      3  C   UNL     1       7.404   5.144  15.211  0.00  0.00    +0.000 C 
ATOM      4  C   UNL     1       6.204   4.237  14.894  0.00  0.00    +0.000 C 
ATOM      5  C   UNL     1       6.243   3.768  13.442  0.00  0.00    +0.000 C 
ATOM      6  C   UNL     1       4.890   4.968  15.214  0.00  0.00    +0.000 C 
ATOM      7  N   UNL     1       4.888   5.456  16.595  0.00  0.00    +0.000 N 
ATOM      8  C   UNL     1       3.786   5.206  17.402  0.00  0.00    +0.000 C 
ATOM      9  O   UNL     1       2.768   4.661  16.959  0.00  0.00    +0.000 OA
ATOM     10  C   UNL     1       6.006   6.332  16.944  0.00  0.00    +0.000 C 
ENDROOT
BRANCH   8  11
ATOM     11  C   UNL     1       3.818   5.641  18.880  0.00  0.00    +0.000 C 
BRANCH  11  12
ATOM     12  N   UNL     1       3.360   4.619  19.828  0.00  0.00    +0.000 N 
ATOM     13  C   UNL     1       4.069   3.343  19.846  0.00  0.00    +0.000 C 
ATOM     14  C   UNL     1       3.214   2.205  19.296  0.00  0.00    +0.000 C 
ATOM     15  C   UNL     1       2.216   1.653  20.313  0.00  0.00    +0.000 C 
ATOM     16  C   UNL     1       1.216   2.675  20.851  0.00  0.00    +0.000 C 
ATOM     17  C   UNL     1       1.859   3.816  21.628  0.00  0.00    +0.000 C 
ATOM     18  C   UNL     1       2.343   4.926  20.715  0.00  0.00    +0.000 C 
ATOM     19  O   UNL     1       1.826   6.041  20.775  0.00  0.00    +0.000 OA
ENDBRANCH  11  12
ENDBRANCH   8  11
TORSDOF 2
ENDMDL
MODEL 8
REMARK VINA RESULT:      -6.3      1.990      6.078
REMARK  Name = 
REMARK  4 active torsions:
REMARK  status: ('A' for Active; 'I' for Inactive)
REMARK    1  A    between atoms: C_1  and  C_2
REMARK    2  A    between atoms: C_4  and  C_5
REMARK    3  A    between atoms: C_8  and  C_10
REMARK    4  A    between atoms: C_10  and  N_11
REMARK                            x       y       z     vdW  Elec       q    Type
REMARK                         _______ _______ _______ _____ _____    ______ ____
ROOT
ATOM      1  C   UNL     1       5.132   6.085  15.676  0.00  0.00    +0.000 C 
ATOM      2  C   UNL     1       6.613   5.703  15.763  0.00  0.00    +0.000 C 
ATOM      3  C   UNL     1       7.492   6.907  16.135  0.00  0.00    +0.000 C 
ATOM      4  C   UNL     1       7.297   7.330  17.600  0.00  0.00    +0.000 C 
ATOM      5  C   UNL     1       8.215   8.495  17.959  0.00  0.00    +0.000 C 
ATOM      6  C   UNL     1       7.522   6.128  18.531  0.00  0.00    +0.000 C 
ATOM      7  N   UNL     1       6.670   5.001  18.143  0.00  0.00    +0.000 N 
ATOM      8  C   UNL     1       5.926   4.347  19.115  0.00  0.00    +0.000 C 
ATOM      9  O   UNL     1       6.031   4.632  20.314  0.00  0.00    +0.000 OA
ATOM     10  C   UNL     1       6.826   4.554  16.759  0.00  0.00    +0.000 C 
ENDROOT
BRANCH   8  11
ATOM     11  C   UNL     1       4.962   3.219  18.697  0.00  0.00    +0.000 C 
BRANCH  11  12
ATOM     12  N   UNL     1       3.540   3.576  18.759  0.00  0.00    +0.000 N 
ATOM     13  C   UNL     1       3.195   4.910  19.240  0.00  0.00    +0.000 C 
ATOM     14  C   UNL     1       2.516   4.869  20.605  0.00  0.00    +0.000 C 
ATOM     15  C   UNL     1       1.030   4.522  20.532  0.00  0.00    +0.000 C 
ATOM     16  C   UNL     1       0.717   3.170  19.894  0.00  0.00    +0.000 C 
ATOM     17  C   UNL     1       1.137   3.066  18.434  0.00  0.00    +0.000 C 
ATOM     18  C   UNL     1       2.597   2.680  18.287  0.00  0.00    +0.000 C 
ATOM     19  O   UNL     1       2.900   1.602  17.775  0.00  0.00    +0.000 OA
ENDBRANCH  11  12
ENDBRANCH   8  11
TORSDOF 2
ENDMDL
MODEL 9
REMARK VINA RESULT:      -6.3      3.345      5.386
REMARK  Name = 
REMARK  4 active torsions:
REMARK  status: ('A' for Active; 'I' for Inactive)
REMARK    1  A    between atoms: C_1  and  C_2
REMARK    2  A    between atoms: C_4  and  C_5
REMARK    3  A    between atoms: C_8  and  C_10
REMARK    4  A    between atoms: C_10  and  N_11
REMARK                            x       y       z     vdW  Elec       q    Type
REMARK                         _______ _______ _______ _____ _____    ______ ____
ROOT
ATOM      1  C   UNL     1      -0.493   9.594  18.294  0.00  0.00    +0.000 C 
ATOM      2  C   UNL     1       0.582  10.278  19.145  0.00  0.00    +0.000 C 
ATOM      3  C   UNL     1       0.076  10.587  20.564  0.00  0.00    +0.000 C 
ATOM      4  C   UNL     1      -0.080   9.311  21.407  0.00  0.00    +0.000 C 
ATOM      5  C   UNL     1      -0.536   9.646  22.825  0.00  0.00    +0.000 C 
ATOM      6  C   UNL     1       1.235   8.516  21.412  0.00  0.00    +0.000 C 
ATOM      7  N   UNL     1       1.685   8.244  20.045  0.00  0.00    +0.000 N 
ATOM      8  C   UNL     1       2.066   6.956  19.698  0.00  0.00    +0.000 C 
ATOM      9  O   UNL     1       2.120   6.048  20.536  0.00  0.00    +0.000 OA
ATOM     10  C   UNL     1       1.860   9.429  19.204  0.00  0.00    +0.000 C 
ENDROOT
BRANCH   8  11
ATOM     11  C   UNL     1       2.456   6.649  18.239  0.00  0.00    +0.000 C 
BRANCH  11  12
ATOM     12  N   UNL     1       2.694   5.229  17.956  0.00  0.00    +0.000 N 
ATOM     13  C   UNL     1       1.542   4.403  17.608  0.00  0.00    +0.000 C 
ATOM     14  C   UNL     1       1.205   3.398  18.706  0.00  0.00    +0.000 C 
ATOM     15  C   UNL     1       2.092   2.155  18.680  0.00  0.00    +0.000 C 
ATOM     16  C   UNL     1       3.586   2.428  18.839  0.00  0.00    +0.000 C 
ATOM     17  C   UNL     1       4.183   3.264  17.714  0.00  0.00    +0.000 C 
ATOM     18  C   UNL     1       3.992   4.751  17.945  0.00  0.00    +0.000 C 
ATOM     19  O   UNL     1       4.971   5.475  18.125  0.00  0.00    +0.000 OA
ENDBRANCH  11  12
ENDBRANCH   8  11
TORSDOF 2
ENDMDL
