MODEL 1
REMARK VINA RESULT:      -8.1      0.000      0.000
REMARK  Name = 
REMARK  7 active torsions:
REMARK  status: ('A' for Active; 'I' for Inactive)
REMARK    1  A    between atoms: C_1  and  C_2
REMARK    2  A    between atoms: C_5  and  N_6
REMARK    3  A    between atoms: N_6  and  C_7
REMARK    4  A    between atoms: C_14  and  C_15
REMARK    5  A    between atoms: C_15  and  O_17
REMARK    6  A    between atoms: N_19  and  C_20
REMARK    7  A    between atoms: C_24  and  N_25
REMARK                            x       y       z     vdW  Elec       q    Type
REMARK                         _______ _______ _______ _____ _____    ______ ____
ROOT
ATOM      1  C   UNL     1       1.708   8.111  19.531  0.00  0.00    +0.000 A 
ATOM      2  C   UNL     1       1.214   7.359  20.608  0.00  0.00    +0.000 A 
ATOM      3  F   UNL     1       0.311   7.880  21.453  0.00  0.00    +0.000 F 
ATOM      4  C   UNL     1       1.610   6.057  20.827  0.00  0.00    +0.000 A 
ATOM      5  C   UNL     1       2.519   5.464  19.949  0.00  0.00    +0.000 A 
ATOM      6  C   UNL     1       2.945   4.085  20.271  0.00  0.00    +0.000 A 
ATOM      7  O   UNL     1       2.502   3.483  21.248  0.00  0.00    +0.000 OA
ATOM      8  C   UNL     1       3.943   3.439  19.408  0.00  0.00    +0.000 A 
ATOM      9  C   UNL     1       4.387   4.153  18.367  0.00  0.00    +0.000 A 
ATOM     10  N   UNL     1       3.984   5.426  17.990  0.00  0.00    +0.000 N 
ATOM     11  C   UNL     1       3.040   6.143  18.817  0.00  0.00    +0.000 A 
ATOM     12  C   UNL     1       2.609   7.491  18.610  0.00  0.00    +0.000 A 
ENDROOT
BRANCH  10  13
ATOM     13  C   UNL     1       4.706   6.055  16.857  0.00  0.00    +0.000 C 
ATOM     14  C   UNL     1       6.186   5.911  16.572  0.00  0.00    +0.000 C 
ATOM     15  C   UNL     1       5.201   5.200  15.709  0.00  0.00    +0.000 C 
ENDBRANCH  10  13
BRANCH  12  16
ATOM     16  N   UNL     1       3.122   8.289  17.558  0.00  0.00    +0.000 N 
ATOM     17  H   UNL     1       2.837   7.942  16.650  0.00  0.00    +0.000 HD
ATOM     18  H   UNL     1       2.955   9.282  17.656  0.00  0.00    +0.000 HD
ENDBRANCH  12  16
BRANCH   1  19
ATOM     19  N   UNL     1       1.376   9.483  19.389  0.00  0.00    +0.000 N 
ATOM     20  H   UNL     1       2.141  10.133  19.500  0.00  0.00    +0.000 HD
BRANCH  19  25
ATOM     21  C   UNL     1      -3.704  11.701  17.927  0.00  0.00    +0.000 C 
ATOM     22  C   UNL     1      -2.379  11.122  18.316  0.00  0.00    +0.000 A 
ATOM     23  C   UNL     1      -1.764  11.496  19.513  0.00  0.00    +0.000 A 
ATOM     24  C   UNL     1      -0.519  10.969  19.858  0.00  0.00    +0.000 A 
ATOM     25  C   UNL     1       0.145  10.058  19.026  0.00  0.00    +0.000 A 
ATOM     26  C   UNL     1      -0.483   9.676  17.835  0.00  0.00    +0.000 A 
ATOM     27  C   UNL     1      -1.730  10.206  17.481  0.00  0.00    +0.000 A 
ENDBRANCH  19  25
ENDBRANCH   1  19
BRANCH   8  28
ATOM     28  C   UNL     1       4.464   2.080  19.641  0.00  0.00    +0.000 C 
ATOM     29  O   UNL     1       5.138   1.774  20.612  0.00  0.00    +0.000 OA
BRANCH  28  30
ATOM     30  O   UNL     1       4.142   1.180  18.684  0.00  0.00    +0.000 OA
ATOM     31  H   UNL     1       4.909   0.876  18.139  0.00  0.00    +0.000 HD
ENDBRANCH  28  30
ENDBRANCH   8  28
TORSDOF 6
ENDMDL
MODEL 2
REMARK VINA RESULT:      -8.1      3.740      7.949
REMARK  Name = 
REMARK  7 active torsions:
REMARK  status: ('A' for Active; 'I' for Inactive)
REMARK    1  A    between atoms: C_1  and  C_2
REMARK    2  A    between atoms: C_5  and  N_6
REMARK    3  A    between atoms: N_6  and  C_7
REMARK    4  A    between atoms: C_14  and  C_15
REMARK    5  A    between atoms: C_15  and  O_17
REMARK    6  A    between atoms: N_19  and  C_20
REMARK    7  A    between atoms: C_24  and  N_25
REMARK                            x       y       z     vdW  Elec       q    Type
REMARK                         _______ _______ _______ _____ _____    ______ ____
ROOT
ATOM      1  C   UNL     1       1.835   8.159  19.293  0.00  0.00    +0.000 A 
ATOM      2  C   UNL     1       1.611   7.613  20.567  0.00  0.00    +0.000 A 
ATOM      3  F   UNL     1       2.044   6.381  20.872  0.00  0.00    +0.000 F 
ATOM      4  C   UNL     1       0.968   8.323  21.558  0.00  0.00    +0.000 A 
ATOM      5  C   UNL     1       0.535   9.623  21.295  0.00  0.00    +0.000 A 
ATOM      6  C   UNL     1      -0.196  10.309  22.382  0.00  0.00    +0.000 A 
ATOM      7  O   UNL     1      -0.391   9.770  23.470  0.00  0.00    +0.000 OA
ATOM      8  C   UNL     1      -0.721  11.658  22.132  0.00  0.00    +0.000 A 
ATOM      9  C   UNL     1      -0.479  12.182  20.925  0.00  0.00    +0.000 A 
ATOM     10  N   UNL     1       0.245  11.606  19.890  0.00  0.00    +0.000 N 
ATOM     11  C   UNL     1       0.751  10.262  20.045  0.00  0.00    +0.000 A 
ATOM     12  C   UNL     1       1.425   9.505  19.035  0.00  0.00    +0.000 A 
ENDROOT
BRANCH  10  13
ATOM     13  C   UNL     1       0.281  12.340  18.602  0.00  0.00    +0.000 C 
ATOM     14  C   UNL     1      -0.214  13.753  18.383  0.00  0.00    +0.000 C 
ATOM     15  C   UNL     1       1.252  13.486  18.413  0.00  0.00    +0.000 C 
ENDBRANCH  10  13
BRANCH  12  16
ATOM     16  N   UNL     1       1.627  10.011  17.728  0.00  0.00    +0.000 N 
ATOM     17  H   UNL     1       1.236   9.397  17.024  0.00  0.00    +0.000 HD
ATOM     18  H   UNL     1       1.344  10.973  17.596  0.00  0.00    +0.000 HD
ENDBRANCH  12  16
BRANCH   1  19
ATOM     19  N   UNL     1       2.395   7.373  18.253  0.00  0.00    +0.000 N 
ATOM     20  H   UNL     1       2.694   7.880  17.433  0.00  0.00    +0.000 HD
BRANCH  19  25
ATOM     21  C   UNL     1       3.520   1.755  18.079  0.00  0.00    +0.000 C 
ATOM     22  C   UNL     1       3.233   3.224  18.122  0.00  0.00    +0.000 A 
ATOM     23  C   UNL     1       4.236   4.134  18.464  0.00  0.00    +0.000 A 
ATOM     24  C   UNL     1       3.955   5.500  18.523  0.00  0.00    +0.000 A 
ATOM     25  C   UNL     1       2.675   5.995  18.245  0.00  0.00    +0.000 A 
ATOM     26  C   UNL     1       1.678   5.080  17.889  0.00  0.00    +0.000 A 
ATOM     27  C   UNL     1       1.952   3.707  17.833  0.00  0.00    +0.000 A 
ENDBRANCH  19  25
ENDBRANCH   1  19
BRANCH   8  28
ATOM     28  C   UNL     1      -1.487  12.431  23.127  0.00  0.00    +0.000 C 
ATOM     29  O   UNL     1      -1.148  13.532  23.531  0.00  0.00    +0.000 OA
BRANCH  28  30
ATOM     30  O   UNL     1      -2.608  11.821  23.575  0.00  0.00    +0.000 OA
ATOM     31  H   UNL     1      -2.648  10.853  23.381  0.00  0.00    +0.000 HD
ENDBRANCH  28  30
ENDBRANCH   8  28
TORSDOF 6
ENDMDL
MODEL 3
REMARK VINA RESULT:      -7.9      3.752      8.017
REMARK  Name = 
REMARK  7 active torsions:
REMARK  status: ('A' for Active; 'I' for Inactive)
REMARK    1  A    between atoms: C_1  and  C_2
REMARK    2  A    between atoms: C_5  and  N_6
REMARK    3  A    between atoms: N_6  and  C_7
REMARK    4  A    between atoms: C_14  and  C_15
REMARK    5  A    between atoms: C_15  and  O_17
REMARK    6  A    between atoms: N_19  and  C_20
REMARK    7  A    between atoms: C_24  and  N_25
REMARK                            x       y       z     vdW  Elec       q    Type
REMARK                         _______ _______ _______ _____ _____    ______ ____
ROOT
ATOM      1  C   UNL     1       1.769   7.956  19.407  0.00  0.00    +0.000 A 
ATOM      2  C   UNL     1       1.503   7.458  20.692  0.00  0.00    +0.000 A 
ATOM      3  F   UNL     1       1.853   6.208  21.031  0.00  0.00    +0.000 F 
ATOM      4  C   UNL     1       0.901   8.233  21.660  0.00  0.00    +0.000 A 
ATOM      5  C   UNL     1       0.556   9.551  21.362  0.00  0.00    +0.000 A 
ATOM      6  C   UNL     1      -0.136  10.311  22.426  0.00  0.00    +0.000 A 
ATOM      7  O   UNL     1      -0.372   9.813  23.525  0.00  0.00    +0.000 OA
ATOM      8  C   UNL     1      -0.570  11.684  22.139  0.00  0.00    +0.000 A 
ATOM      9  C   UNL     1      -0.287  12.160  20.921  0.00  0.00    +0.000 A 
ATOM     10  N   UNL     1       0.404  11.512  19.906  0.00  0.00    +0.000 N 
ATOM     11  C   UNL     1       0.820  10.142  20.099  0.00  0.00    +0.000 A 
ATOM     12  C   UNL     1       1.450   9.318  19.113  0.00  0.00    +0.000 A 
ENDROOT
BRANCH  10  13
ATOM     13  C   UNL     1       0.495  12.210  18.600  0.00  0.00    +0.000 C 
ATOM     14  C   UNL     1       0.064  13.636  18.335  0.00  0.00    +0.000 C 
ATOM     15  C   UNL     1       1.517  13.310  18.402  0.00  0.00    +0.000 C 
ENDBRANCH  10  13
BRANCH  12  16
ATOM     16  N   UNL     1       1.692   9.777  17.795  0.00  0.00    +0.000 N 
ATOM     17  H   UNL     1       1.507   9.057  17.107  0.00  0.00    +0.000 HD
ATOM     18  H   UNL     1       1.243  10.652  17.560  0.00  0.00    +0.000 HD
ENDBRANCH  12  16
BRANCH   1  19
ATOM     19  N   UNL     1       2.283   7.109  18.391  0.00  0.00    +0.000 N 
ATOM     20  H   UNL     1       1.660   6.922  17.619  0.00  0.00    +0.000 HD
BRANCH  19  25
ATOM     21  C   UNL     1       7.603   5.023  17.932  0.00  0.00    +0.000 C 
ATOM     22  C   UNL     1       6.213   5.566  18.059  0.00  0.00    +0.000 A 
ATOM     23  C   UNL     1       5.346   5.078  19.038  0.00  0.00    +0.000 A 
ATOM     24  C   UNL     1       4.045   5.575  19.137  0.00  0.00    +0.000 A 
ATOM     25  C   UNL     1       3.575   6.567  18.267  0.00  0.00    +0.000 A 
ATOM     26  C   UNL     1       4.453   7.062  17.297  0.00  0.00    +0.000 A 
ATOM     27  C   UNL     1       5.758   6.564  17.190  0.00  0.00    +0.000 A 
ENDBRANCH  19  25
ENDBRANCH   1  19
BRANCH   8  28
ATOM     28  C   UNL     1      -1.289  12.530  23.108  0.00  0.00    +0.000 C 
ATOM     29  O   UNL     1      -0.829  13.560  23.576  0.00  0.00    +0.000 OA
BRANCH  28  30
ATOM     30  O   UNL     1      -2.515  12.075  23.455  0.00  0.00    +0.000 OA
ATOM     31  H   UNL     1      -3.256  12.463  22.928  0.00  0.00    +0.000 HD
ENDBRANCH  28  30
ENDBRANCH   8  28
TORSDOF 6
ENDMDL
MODEL 4
REMARK VINA RESULT:      -7.8      0.320      1.149
REMARK  Name = 
REMARK  7 active torsions:
REMARK  status: ('A' for Active; 'I' for Inactive)
REMARK    1  A    between atoms: C_1  and  C_2
REMARK    2  A    between atoms: C_5  and  N_6
REMARK    3  A    between atoms: N_6  and  C_7
REMARK    4  A    between atoms: C_14  and  C_15
REMARK    5  A    between atoms: C_15  and  O_17
REMARK    6  A    between atoms: N_19  and  C_20
REMARK    7  A    between atoms: C_24  and  N_25
REMARK                            x       y       z     vdW  Elec       q    Type
REMARK                         _______ _______ _______ _____ _____    ______ ____
ROOT
ATOM      1  C   UNL     1       1.788   7.993  19.569  0.00  0.00    +0.000 A 
ATOM      2  C   UNL     1       1.311   7.217  20.636  0.00  0.00    +0.000 A 
ATOM      3  F   UNL     1       0.460   7.733  21.535  0.00  0.00    +0.000 F 
ATOM      4  C   UNL     1       1.671   5.895  20.789  0.00  0.00    +0.000 A 
ATOM      5  C   UNL     1       2.524   5.307  19.855  0.00  0.00    +0.000 A 
ATOM      6  C   UNL     1       2.915   3.903  20.107  0.00  0.00    +0.000 A 
ATOM      7  O   UNL     1       2.490   3.279  21.078  0.00  0.00    +0.000 OA
ATOM      8  C   UNL     1       3.856   3.259  19.182  0.00  0.00    +0.000 A 
ATOM      9  C   UNL     1       4.284   3.998  18.151  0.00  0.00    +0.000 A 
ATOM     10  N   UNL     1       3.910   5.297  17.838  0.00  0.00    +0.000 N 
ATOM     11  C   UNL     1       3.024   6.011  18.729  0.00  0.00    +0.000 A 
ATOM     12  C   UNL     1       2.632   7.380  18.590  0.00  0.00    +0.000 A 
ENDROOT
BRANCH  10  13
ATOM     13  C   UNL     1       4.609   5.945  16.702  0.00  0.00    +0.000 C 
ATOM     14  C   UNL     1       6.110   6.007  16.516  0.00  0.00    +0.000 C 
ATOM     15  C   UNL     1       5.302   5.095  15.657  0.00  0.00    +0.000 C 
ENDBRANCH  10  13
BRANCH  12  16
ATOM     16  N   UNL     1       3.130   8.202  17.549  0.00  0.00    +0.000 N 
ATOM     17  H   UNL     1       3.663   8.983  17.912  0.00  0.00    +0.000 HD
ATOM     18  H   UNL     1       3.625   7.709  16.818  0.00  0.00    +0.000 HD
ENDBRANCH  12  16
BRANCH   1  19
ATOM     19  N   UNL     1       1.499   9.380  19.492  0.00  0.00    +0.000 N 
ATOM     20  H   UNL     1       2.295   9.997  19.544  0.00  0.00    +0.000 HD
BRANCH  19  25
ATOM     21  C   UNL     1      -3.475  12.069  18.547  0.00  0.00    +0.000 C 
ATOM     22  C   UNL     1      -2.174  11.367  18.786  0.00  0.00    +0.000 A 
ATOM     23  C   UNL     1      -1.640  10.512  17.821  0.00  0.00    +0.000 A 
ATOM     24  C   UNL     1      -0.438   9.844  18.060  0.00  0.00    +0.000 A 
ATOM     25  C   UNL     1       0.262  10.009  19.262  0.00  0.00    +0.000 A 
ATOM     26  C   UNL     1      -0.271  10.879  20.220  0.00  0.00    +0.000 A 
ATOM     27  C   UNL     1      -1.479  11.548  19.988  0.00  0.00    +0.000 A 
ENDBRANCH  19  25
ENDBRANCH   1  19
BRANCH   8  28
ATOM     28  C   UNL     1       4.339   1.876  19.343  0.00  0.00    +0.000 C 
ATOM     29  O   UNL     1       3.981   0.950  18.632  0.00  0.00    +0.000 OA
BRANCH  28  30
ATOM     30  O   UNL     1       5.217   1.698  20.356  0.00  0.00    +0.000 OA
ATOM     31  H   UNL     1       6.161   1.857  20.107  0.00  0.00    +0.000 HD
ENDBRANCH  28  30
ENDBRANCH   8  28
TORSDOF 6
ENDMDL
MODEL 5
REMARK VINA RESULT:      -7.8      2.171      3.455
REMARK  Name = 
REMARK  7 active torsions:
REMARK  status: ('A' for Active; 'I' for Inactive)
REMARK    1  A    between atoms: C_1  and  C_2
REMARK    2  A    between atoms: C_5  and  N_6
REMARK    3  A    between atoms: N_6  and  C_7
REMARK    4  A    between atoms: C_14  and  C_15
REMARK    5  A    between atoms: C_15  and  O_17
REMARK    6  A    between atoms: N_19  and  C_20
REMARK    7  A    between atoms: C_24  and  N_25
REMARK                            x       y       z     vdW  Elec       q    Type
REMARK                         _______ _______ _______ _____ _____    ______ ____
ROOT
ATOM      1  C   UNL     1       1.362   9.160  19.214  0.00  0.00    +0.000 A 
ATOM      2  C   UNL     1       2.133   9.510  18.094  0.00  0.00    +0.000 A 
ATOM      3  F   UNL     1       2.017  10.722  17.531  0.00  0.00    +0.000 F 
ATOM      4  C   UNL     1       3.053   8.642  17.547  0.00  0.00    +0.000 A 
ATOM      5  C   UNL     1       3.234   7.385  18.126  0.00  0.00    +0.000 A 
ATOM      6  C   UNL     1       4.196   6.481  17.458  0.00  0.00    +0.000 A 
ATOM      7  O   UNL     1       4.822   6.829  16.459  0.00  0.00    +0.000 OA
ATOM      8  C   UNL     1       4.377   5.127  17.997  0.00  0.00    +0.000 A 
ATOM      9  C   UNL     1       3.659   4.812  19.081  0.00  0.00    +0.000 A 
ATOM     10  N   UNL     1       2.785   5.636  19.777  0.00  0.00    +0.000 N 
ATOM     11  C   UNL     1       2.519   6.965  19.278  0.00  0.00    +0.000 A 
ATOM     12  C   UNL     1       1.574   7.887  19.830  0.00  0.00    +0.000 A 
ENDROOT
BRANCH  10  13
ATOM     13  C   UNL     1       2.018   5.021  20.888  0.00  0.00    +0.000 C 
ATOM     14  C   UNL     1       1.096   3.827  20.762  0.00  0.00    +0.000 C 
ATOM     15  C   UNL     1       2.422   3.663  21.423  0.00  0.00    +0.000 C 
ENDBRANCH  10  13
BRANCH  12  16
ATOM     16  N   UNL     1       0.750   7.548  20.931  0.00  0.00    +0.000 N 
ATOM     17  H   UNL     1       1.214   7.724  21.814  0.00  0.00    +0.000 HD
ATOM     18  H   UNL     1      -0.181   7.942  20.904  0.00  0.00    +0.000 HD
ENDBRANCH  12  16
BRANCH   1  19
ATOM     19  N   UNL     1       0.341  10.022  19.691  0.00  0.00    +0.000 N 
ATOM     20  H   UNL     1       0.506  10.438  20.596  0.00  0.00    +0.000 HD
BRANCH  19  25
ATOM     21  C   UNL     1      -4.490  11.634  17.058  0.00  0.00    +0.000 C 
ATOM     22  C   UNL     1      -3.231  11.215  17.753  0.00  0.00    +0.000 A 
ATOM     23  C   UNL     1      -2.810  11.865  18.914  0.00  0.00    +0.000 A 
ATOM     24  C   UNL     1      -1.624  11.483  19.544  0.00  0.00    +0.000 A 
ATOM     25  C   UNL     1      -0.829  10.447  19.036  0.00  0.00    +0.000 A 
ATOM     26  C   UNL     1      -1.264   9.790  17.880  0.00  0.00    +0.000 A 
ATOM     27  C   UNL     1      -2.450  10.172  17.241  0.00  0.00    +0.000 A 
ENDBRANCH  19  25
ENDBRANCH   1  19
BRANCH   8  28
ATOM     28  C   UNL     1       5.286   4.130  17.404  0.00  0.00    +0.000 C 
ATOM     29  O   UNL     1       5.058   3.550  16.354  0.00  0.00    +0.000 OA
BRANCH  28  30
ATOM     30  O   UNL     1       6.408   3.891  18.121  0.00  0.00    +0.000 OA
ATOM     31  H   UNL     1       6.241   3.582  19.045  0.00  0.00    +0.000 HD
ENDBRANCH  28  30
ENDBRANCH   8  28
TORSDOF 6
ENDMDL
MODEL 6
REMARK VINA RESULT:      -7.7      4.005      7.763
REMARK  Name = 
REMARK  7 active torsions:
REMARK  status: ('A' for Active; 'I' for Inactive)
REMARK    1  A    between atoms: C_1  and  C_2
REMARK    2  A    between atoms: C_5  and  N_6
REMARK    3  A    between atoms: N_6  and  C_7
REMARK    4  A    between atoms: C_14  and  C_15
REMARK    5  A    between atoms: C_15  and  O_17
REMARK    6  A    between atoms: N_19  and  C_20
REMARK    7  A    between atoms: C_24  and  N_25
REMARK                            x       y       z     vdW  Elec       q    Type
REMARK                         _______ _______ _______ _____ _____    ______ ____
ROOT
ATOM      1  C   UNL     1       4.844   4.962  17.200  0.00  0.00    +0.000 A 
ATOM      2  C   UNL     1       4.662   6.307  16.843  0.00  0.00    +0.000 A 
ATOM      3  F   UNL     1       5.298   6.829  15.783  0.00  0.00    +0.000 F 
ATOM      4  C   UNL     1       3.807   7.134  17.540  0.00  0.00    +0.000 A 
ATOM      5  C   UNL     1       3.096   6.621  18.626  0.00  0.00    +0.000 A 
ATOM      6  C   UNL     1       2.239   7.574  19.365  0.00  0.00    +0.000 A 
ATOM      7  O   UNL     1       2.141   8.751  19.025  0.00  0.00    +0.000 OA
ATOM      8  C   UNL     1       1.515   7.093  20.548  0.00  0.00    +0.000 A 
ATOM      9  C   UNL     1       1.673   5.803  20.866  0.00  0.00    +0.000 A 
ATOM     10  N   UNL     1       2.419   4.856  20.179  0.00  0.00    +0.000 N 
ATOM     11  C   UNL     1       3.197   5.265  19.032  0.00  0.00    +0.000 A 
ATOM     12  C   UNL     1       4.086   4.426  18.288  0.00  0.00    +0.000 A 
ENDROOT
BRANCH  10  13
ATOM     13  C   UNL     1       2.530   3.510  20.792  0.00  0.00    +0.000 C 
ATOM     14  C   UNL     1       1.669   2.987  21.923  0.00  0.00    +0.000 C 
ATOM     15  C   UNL     1       1.454   2.474  20.540  0.00  0.00    +0.000 C 
ENDBRANCH  10  13
BRANCH  12  16
ATOM     16  N   UNL     1       4.325   3.078  18.651  0.00  0.00    +0.000 N 
ATOM     17  H   UNL     1       5.126   2.991  19.264  0.00  0.00    +0.000 HD
ATOM     18  H   UNL     1       3.518   2.583  19.005  0.00  0.00    +0.000 HD
ENDBRANCH  12  16
BRANCH   1  19
ATOM     19  N   UNL     1       5.811   4.159  16.542  0.00  0.00    +0.000 N 
ATOM     20  H   UNL     1       6.225   3.427  17.099  0.00  0.00    +0.000 HD
BRANCH  19  25
ATOM     21  C   UNL     1       7.312   4.353  11.013  0.00  0.00    +0.000 C 
ATOM     22  C   UNL     1       6.923   4.309  12.459  0.00  0.00    +0.000 A 
ATOM     23  C   UNL     1       7.702   4.951  13.424  0.00  0.00    +0.000 A 
ATOM     24  C   UNL     1       7.345   4.887  14.771  0.00  0.00    +0.000 A 
ATOM     25  C   UNL     1       6.207   4.187  15.193  0.00  0.00    +0.000 A 
ATOM     26  C   UNL     1       5.423   3.558  14.219  0.00  0.00    +0.000 A 
ATOM     27  C   UNL     1       5.779   3.614  12.866  0.00  0.00    +0.000 A 
ENDBRANCH  19  25
ENDBRANCH   1  19
BRANCH   8  28
ATOM     28  C   UNL     1       0.653   7.953  21.380  0.00  0.00    +0.000 C 
ATOM     29  O   UNL     1      -0.551   7.787  21.499  0.00  0.00    +0.000 OA
BRANCH  28  30
ATOM     30  O   UNL     1       1.299   8.962  22.009  0.00  0.00    +0.000 OA
ATOM     31  H   UNL     1       1.265   9.826  21.529  0.00  0.00    +0.000 HD
ENDBRANCH  28  30
ENDBRANCH   8  28
TORSDOF 6
ENDMDL
MODEL 7
REMARK VINA RESULT:      -7.6      2.117      3.543
REMARK  Name = 
REMARK  7 active torsions:
REMARK  status: ('A' for Active; 'I' for Inactive)
REMARK    1  A    between atoms: C_1  and  C_2
REMARK    2  A    between atoms: C_5  and  N_6
REMARK    3  A    between atoms: N_6  and  C_7
REMARK    4  A    between atoms: C_14  and  C_15
REMARK    5  A    between atoms: C_15  and  O_17
REMARK    6  A    between atoms: N_19  and  C_20
REMARK    7  A    between atoms: C_24  and  N_25
REMARK                            x       y       z     vdW  Elec       q    Type
REMARK                         _______ _______ _______ _____ _____    ______ ____
ROOT
ATOM      1  C   UNL     1       1.488   9.159  19.251  0.00  0.00    +0.000 A 
ATOM      2  C   UNL     1       2.264   9.457  18.120  0.00  0.00    +0.000 A 
ATOM      3  F   UNL     1       2.247  10.684  17.578  0.00  0.00    +0.000 F 
ATOM      4  C   UNL     1       3.090   8.518  17.539  0.00  0.00    +0.000 A 
ATOM      5  C   UNL     1       3.167   7.240  18.094  0.00  0.00    +0.000 A 
ATOM      6  C   UNL     1       4.028   6.264  17.391  0.00  0.00    +0.000 A 
ATOM      7  O   UNL     1       4.662   6.571  16.383  0.00  0.00    +0.000 OA
ATOM      8  C   UNL     1       4.096   4.891  17.905  0.00  0.00    +0.000 A 
ATOM      9  C   UNL     1       3.375   4.623  19.000  0.00  0.00    +0.000 A 
ATOM     10  N   UNL     1       2.595   5.511  19.728  0.00  0.00    +0.000 N 
ATOM     11  C   UNL     1       2.442   6.868  19.256  0.00  0.00    +0.000 A 
ATOM     12  C   UNL     1       1.596   7.862  19.843  0.00  0.00    +0.000 A 
ENDROOT
BRANCH  10  13
ATOM     13  C   UNL     1       1.799   4.949  20.846  0.00  0.00    +0.000 C 
ATOM     14  C   UNL     1       1.105   3.604  20.840  0.00  0.00    +0.000 C 
ATOM     15  C   UNL     1       2.343   3.786  21.651  0.00  0.00    +0.000 C 
ENDBRANCH  10  13
BRANCH  12  16
ATOM     16  N   UNL     1       0.769   7.580  20.957  0.00  0.00    +0.000 N 
ATOM     17  H   UNL     1       0.488   6.607  20.979  0.00  0.00    +0.000 HD
ATOM     18  H   UNL     1       1.133   7.892  21.848  0.00  0.00    +0.000 HD
ENDBRANCH  12  16
BRANCH   1  19
ATOM     19  N   UNL     1       0.561  10.102  19.765  0.00  0.00    +0.000 N 
ATOM     20  H   UNL     1       0.864  10.617  20.578  0.00  0.00    +0.000 HD
BRANCH  19  25
ATOM     21  C   UNL     1      -4.475  11.771  17.592  0.00  0.00    +0.000 C 
ATOM     22  C   UNL     1      -3.157  11.333  18.153  0.00  0.00    +0.000 A 
ATOM     23  C   UNL     1      -2.452  10.277  17.570  0.00  0.00    +0.000 A 
ATOM     24  C   UNL     1      -1.235   9.861  18.112  0.00  0.00    +0.000 A 
ATOM     25  C   UNL     1      -0.689  10.481  19.242  0.00  0.00    +0.000 A 
ATOM     26  C   UNL     1      -1.392  11.548  19.813  0.00  0.00    +0.000 A 
ATOM     27  C   UNL     1      -2.617  11.967  19.277  0.00  0.00    +0.000 A 
ENDBRANCH  19  25
ENDBRANCH   1  19
BRANCH   8  28
ATOM     28  C   UNL     1       4.897   3.825  17.276  0.00  0.00    +0.000 C 
ATOM     29  O   UNL     1       4.454   2.720  17.003  0.00  0.00    +0.000 OA
BRANCH  28  30
ATOM     30  O   UNL     1       6.184   4.159  17.024  0.00  0.00    +0.000 OA
ATOM     31  H   UNL     1       6.484   4.986  17.476  0.00  0.00    +0.000 HD
ENDBRANCH  28  30
ENDBRANCH   8  28
TORSDOF 6
ENDMDL
MODEL 8
REMARK VINA RESULT:      -7.5      2.491      3.690
REMARK  Name = 
REMARK  7 active torsions:
REMARK  status: ('A' for Active; 'I' for Inactive)
REMARK    1  A    between atoms: C_1  and  C_2
REMARK    2  A    between atoms: C_5  and  N_6
REMARK    3  A    between atoms: N_6  and  C_7
REMARK    4  A    between atoms: C_14  and  C_15
REMARK    5  A    between atoms: C_15  and  O_17
REMARK    6  A    between atoms: N_19  and  C_20
REMARK    7  A    between atoms: C_24  and  N_25
REMARK                            x       y       z     vdW  Elec       q    Type
REMARK                         _______ _______ _______ _____ _____    ______ ____
ROOT
ATOM      1  C   UNL     1       1.994   7.919  19.364  0.00  0.00    +0.000 A 
ATOM      2  C   UNL     1       2.458   8.633  18.248  0.00  0.00    +0.000 A 
ATOM      3  F   UNL     1       2.029   9.880  18.002  0.00  0.00    +0.000 F 
ATOM      4  C   UNL     1       3.387   8.099  17.380  0.00  0.00    +0.000 A 
ATOM      5  C   UNL     1       3.888   6.819  17.620  0.00  0.00    +0.000 A 
ATOM      6  C   UNL     1       4.839   6.284  16.621  0.00  0.00    +0.000 A 
ATOM      7  O   UNL     1       5.188   6.942  15.643  0.00  0.00    +0.000 OA
ATOM      8  C   UNL     1       5.351   4.919  16.801  0.00  0.00    +0.000 A 
ATOM      9  C   UNL     1       4.924   4.256  17.882  0.00  0.00    +0.000 A 
ATOM     10  N   UNL     1       4.078   4.728  18.876  0.00  0.00    +0.000 N 
ATOM     11  C   UNL     1       3.497   6.044  18.743  0.00  0.00    +0.000 A 
ATOM     12  C   UNL     1       2.536   6.623  19.631  0.00  0.00    +0.000 A 
ENDROOT
BRANCH  10  13
ATOM     13  C   UNL     1       3.660   3.762  19.922  0.00  0.00    +0.000 C 
ATOM     14  C   UNL     1       2.868   2.495  19.680  0.00  0.00    +0.000 C 
ATOM     15  C   UNL     1       4.322   2.401  20.000  0.00  0.00    +0.000 C 
ENDBRANCH  10  13
BRANCH  12  16
ATOM     16  N   UNL     1       2.016   5.912  20.740  0.00  0.00    +0.000 N 
ATOM     17  H   UNL     1       1.603   6.534  21.424  0.00  0.00    +0.000 HD
ATOM     18  H   UNL     1       1.403   5.144  20.503  0.00  0.00    +0.000 HD
ENDBRANCH  12  16
BRANCH   1  19
ATOM     19  N   UNL     1       0.956   8.439  20.179  0.00  0.00    +0.000 N 
ATOM     20  H   UNL     1       0.604   7.816  20.891  0.00  0.00    +0.000 HD
BRANCH  19  25
ATOM     21  C   UNL     1      -1.378  13.674  20.289  0.00  0.00    +0.000 C 
ATOM     22  C   UNL     1      -0.766  12.307  20.267  0.00  0.00    +0.000 A 
ATOM     23  C   UNL     1       0.350  12.016  21.054  0.00  0.00    +0.000 A 
ATOM     24  C   UNL     1       0.927  10.746  21.013  0.00  0.00    +0.000 A 
ATOM     25  C   UNL     1       0.412   9.736  20.190  0.00  0.00    +0.000 A 
ATOM     26  C   UNL     1      -0.715  10.030  19.415  0.00  0.00    +0.000 A 
ATOM     27  C   UNL     1      -1.296  11.304  19.448  0.00  0.00    +0.000 A 
ENDBRANCH  19  25
ENDBRANCH   1  19
BRANCH   8  28
ATOM     28  C   UNL     1       6.281   4.267  15.861  0.00  0.00    +0.000 C 
ATOM     29  O   UNL     1       6.000   3.268  15.218  0.00  0.00    +0.000 OA
BRANCH  28  30
ATOM     30  O   UNL     1       7.493   4.861  15.763  0.00  0.00    +0.000 OA
ATOM     31  H   UNL     1       7.831   5.233  16.614  0.00  0.00    +0.000 HD
ENDBRANCH  28  30
ENDBRANCH   8  28
TORSDOF 6
ENDMDL
MODEL 9
REMARK VINA RESULT:      -7.2      5.272      9.975
REMARK  Name = 
REMARK  7 active torsions:
REMARK  status: ('A' for Active; 'I' for Inactive)
REMARK    1  A    between atoms: C_1  and  C_2
REMARK    2  A    between atoms: C_5  and  N_6
REMARK    3  A    between atoms: N_6  and  C_7
REMARK    4  A    between atoms: C_14  and  C_15
REMARK    5  A    between atoms: C_15  and  O_17
REMARK    6  A    between atoms: N_19  and  C_20
REMARK    7  A    between atoms: C_24  and  N_25
REMARK                            x       y       z     vdW  Elec       q    Type
REMARK                         _______ _______ _______ _____ _____    ______ ____
ROOT
ATOM      1  C   UNL     1      -1.003  10.881  18.443  0.00  0.00    +0.000 A 
ATOM      2  C   UNL     1      -1.900  10.309  17.527  0.00  0.00    +0.000 A 
ATOM      3  F   UNL     1      -1.478   9.419  16.616  0.00  0.00    +0.000 F 
ATOM      4  C   UNL     1      -3.245  10.612  17.543  0.00  0.00    +0.000 A 
ATOM      5  C   UNL     1      -3.732  11.503  18.499  0.00  0.00    +0.000 A 
ATOM      6  C   UNL     1      -5.174  11.828  18.426  0.00  0.00    +0.000 A 
ATOM      7  O   UNL     1      -5.908  11.320  17.582  0.00  0.00    +0.000 OA
ATOM      8  C   UNL     1      -5.721  12.805  19.376  0.00  0.00    +0.000 A 
ATOM      9  C   UNL     1      -4.865  13.324  20.263  0.00  0.00    +0.000 A 
ATOM     10  N   UNL     1      -3.520  13.016  20.410  0.00  0.00    +0.000 N 
ATOM     11  C   UNL     1      -2.899  12.100  19.482  0.00  0.00    +0.000 A 
ATOM     12  C   UNL     1      -1.509  11.764  19.447  0.00  0.00    +0.000 A 
ENDROOT
BRANCH  10  13
ATOM     13  C   UNL     1      -2.750  13.810  21.399  0.00  0.00    +0.000 C 
ATOM     14  C   UNL     1      -3.348  14.708  22.460  0.00  0.00    +0.000 C 
ATOM     15  C   UNL     1      -2.748  13.403  22.858  0.00  0.00    +0.000 C 
ENDBRANCH  10  13
BRANCH  12  16
ATOM     16  N   UNL     1      -0.572  12.358  20.329  0.00  0.00    +0.000 N 
ATOM     17  H   UNL     1      -0.975  13.139  20.833  0.00  0.00    +0.000 HD
ATOM     18  H   UNL     1      -0.097  11.711  20.943  0.00  0.00    +0.000 HD
ENDBRANCH  12  16
BRANCH   1  19
ATOM     19  N   UNL     1       0.392  10.645  18.339  0.00  0.00    +0.000 N 
ATOM     20  H   UNL     1       0.950  11.435  18.049  0.00  0.00    +0.000 HD
BRANCH  19  25
ATOM     21  C   UNL     1       3.219   5.851  19.714  0.00  0.00    +0.000 C 
ATOM     22  C   UNL     1       2.480   7.101  19.347  0.00  0.00    +0.000 A 
ATOM     23  C   UNL     1       2.503   7.582  18.037  0.00  0.00    +0.000 A 
ATOM     24  C   UNL     1       1.829   8.759  17.708  0.00  0.00    +0.000 A 
ATOM     25  C   UNL     1       1.116   9.485  18.671  0.00  0.00    +0.000 A 
ATOM     26  C   UNL     1       1.084   8.990  19.979  0.00  0.00    +0.000 A 
ATOM     27  C   UNL     1       1.762   7.812  20.316  0.00  0.00    +0.000 A 
ENDBRANCH  19  25
ENDBRANCH   1  19
BRANCH   8  28
ATOM     28  C   UNL     1      -7.134  13.228  19.385  0.00  0.00    +0.000 C 
ATOM     29  O   UNL     1      -7.776  13.410  20.407  0.00  0.00    +0.000 OA
BRANCH  28  30
ATOM     30  O   UNL     1      -7.681  13.398  18.160  0.00  0.00    +0.000 OA
ATOM     31  H   UNL     1      -7.374  14.211  17.688  0.00  0.00    +0.000 HD
ENDBRANCH  28  30
ENDBRANCH   8  28
TORSDOF 6
ENDMDL
