MODEL 1
REMARK VINA RESULT:      -6.7      0.000      0.000
REMARK  Name = 
REMARK  10 active torsions:
REMARK  status: ('A' for Active; 'I' for Inactive)
REMARK    1  A    between atoms: C_2  and  O_3
REMARK    2  A    between atoms: C_2  and  C_4
REMARK    3  A    between atoms: C_4  and  C_6
REMARK    4  A    between atoms: C_6  and  C_7
REMARK    5  A    between atoms: C_7  and  C_8
REMARK    6  A    between atoms: C_7  and  C_17
REMARK    7  A    between atoms: C_8  and  O_9
REMARK    8  A    between atoms: O_9  and  C_10
REMARK    9  A    between atoms: C_10  and  C_11
REMARK   10  A    between atoms: C_17  and  O_19
REMARK                            x       y       z     vdW  Elec       q    Type
REMARK                         _______ _______ _______ _____ _____    ______ ____
ROOT
ATOM      1  C   UNL     1       5.440   5.545  17.659  0.00  0.00    +0.000 C 
ENDROOT
BRANCH   1   2
ATOM      2  C   UNL     1       5.658   4.715  18.916  0.00  0.00    +0.000 C 
ATOM      3  O   UNL     1       5.151   3.620  19.106  0.00  0.00    +0.000 OA
BRANCH   2   4
ATOM      4  O   UNL     1       6.496   5.290  19.807  0.00  0.00    +0.000 OA
ATOM      5  H   UNL     1       6.677   4.703  20.579  0.00  0.00    +0.000 HD
ENDBRANCH   2   4
ENDBRANCH   1   2
BRANCH   1   6
ATOM      6  C   UNL     1       5.499   4.637  16.420  0.00  0.00    +0.000 C 
BRANCH   6   7
ATOM      7  C   UNL     1       6.892   4.502  15.840  0.00  0.00    +0.000 C 
ATOM      8  O   UNL     1       7.929   4.424  16.488  0.00  0.00    +0.000 OA
BRANCH   7  10
ATOM      9  O   UNL     1       6.385   3.805  13.581  0.00  0.00    +0.000 OA
ATOM     10  C   UNL     1       7.000   4.562  14.311  0.00  0.00    +0.000 C 
BRANCH  10  11
ATOM     11  O   UNL     1       7.797   5.564  13.906  0.00  0.00    +0.000 OA
ATOM     12  H   UNL     1       7.270   6.229  13.407  0.00  0.00    +0.000 HD
ENDBRANCH  10  11
ENDBRANCH   7  10
ENDBRANCH   6   7
ENDBRANCH   1   6
BRANCH   1  13
ATOM     13  C   UNL     1       4.075   6.241  17.743  0.00  0.00    +0.000 C 
BRANCH  13  14
ATOM     14  O   UNL     1       3.745   6.425  19.125  0.00  0.00    +0.000 OA
BRANCH  14  15
ATOM     15  C   UNL     1       2.331   6.353  19.359  0.00  0.00    +0.000 C 
BRANCH  15  16
ATOM     16  C   UNL     1       2.020   4.976  19.885  0.00  0.00    +0.000 A 
ATOM     17  C   UNL     1       1.332   4.045  19.093  0.00  0.00    +0.000 A 
ATOM     18  C   UNL     1       0.987   2.793  19.606  0.00  0.00    +0.000 A 
ATOM     19  C   UNL     1       1.334   2.453  20.913  0.00  0.00    +0.000 A 
ATOM     20  C   UNL     1       2.048   3.356  21.699  0.00  0.00    +0.000 A 
ATOM     21  C   UNL     1       2.395   4.608  21.187  0.00  0.00    +0.000 A 
ENDBRANCH  15  16
ENDBRANCH  14  15
ENDBRANCH  13  14
ENDBRANCH   1  13
TORSDOF 10
ENDMDL
MODEL 2
REMARK VINA RESULT:      -6.7      1.621      2.551
REMARK  Name = 
REMARK  10 active torsions:
REMARK  status: ('A' for Active; 'I' for Inactive)
REMARK    1  A    between atoms: C_2  and  O_3
REMARK    2  A    between atoms: C_2  and  C_4
REMARK    3  A    between atoms: C_4  and  C_6
REMARK    4  A    between atoms: C_6  and  C_7
REMARK    5  A    between atoms: C_7  and  C_8
REMARK    6  A    between atoms: C_7  and  C_17
REMARK    7  A    between atoms: C_8  and  O_9
REMARK    8  A    between atoms: O_9  and  C_10
REMARK    9  A    between atoms: C_10  and  C_11
REMARK   10  A    between atoms: C_17  and  O_19
REMARK                            x       y       z     vdW  Elec       q    Type
REMARK                         _______ _______ _______ _____ _____    ______ ____
ROOT
ATOM      1  C   UNL     1       5.722   5.489  18.157  0.00  0.00    +0.000 C 
ENDROOT
BRANCH   1   2
ATOM      2  C   UNL     1       7.244   5.527  18.152  0.00  0.00    +0.000 C 
ATOM      3  O   UNL     1       7.900   6.554  18.233  0.00  0.00    +0.000 OA
BRANCH   2   4
ATOM      4  O   UNL     1       7.817   4.305  18.078  0.00  0.00    +0.000 OA
ATOM      5  H   UNL     1       8.465   4.154  18.806  0.00  0.00    +0.000 HD
ENDBRANCH   2   4
ENDBRANCH   1   2
BRANCH   1   6
ATOM      6  C   UNL     1       5.214   4.841  16.860  0.00  0.00    +0.000 C 
BRANCH   6   7
ATOM      7  C   UNL     1       5.659   5.569  15.609  0.00  0.00    +0.000 C 
ATOM      8  O   UNL     1       5.284   6.683  15.261  0.00  0.00    +0.000 OA
BRANCH   7  10
ATOM      9  O   UNL     1       6.248   3.763  14.116  0.00  0.00    +0.000 OA
ATOM     10  C   UNL     1       6.587   4.795  14.665  0.00  0.00    +0.000 C 
BRANCH  10  11
ATOM     11  O   UNL     1       7.762   5.422  14.495  0.00  0.00    +0.000 OA
ATOM     12  H   UNL     1       8.079   5.295  13.572  0.00  0.00    +0.000 HD
ENDBRANCH  10  11
ENDBRANCH   7  10
ENDBRANCH   6   7
ENDBRANCH   1   6
BRANCH   1  13
ATOM     13  C   UNL     1       5.241   4.691  19.375  0.00  0.00    +0.000 C 
BRANCH  13  14
ATOM     14  O   UNL     1       5.359   3.294  19.078  0.00  0.00    +0.000 OA
BRANCH  14  15
ATOM     15  C   UNL     1       4.691   2.475  20.048  0.00  0.00    +0.000 C 
BRANCH  15  16
ATOM     16  C   UNL     1       3.208   2.684  19.886  0.00  0.00    +0.000 A 
ATOM     17  C   UNL     1       2.434   3.180  20.945  0.00  0.00    +0.000 A 
ATOM     18  C   UNL     1       1.050   3.311  20.814  0.00  0.00    +0.000 A 
ATOM     19  C   UNL     1       0.425   2.956  19.620  0.00  0.00    +0.000 A 
ATOM     20  C   UNL     1       1.186   2.494  18.548  0.00  0.00    +0.000 A 
ATOM     21  C   UNL     1       2.570   2.364  18.677  0.00  0.00    +0.000 A 
ENDBRANCH  15  16
ENDBRANCH  14  15
ENDBRANCH  13  14
ENDBRANCH   1  13
TORSDOF 10
ENDMDL
MODEL 3
REMARK VINA RESULT:      -6.7      1.345      2.189
REMARK  Name = 
REMARK  10 active torsions:
REMARK  status: ('A' for Active; 'I' for Inactive)
REMARK    1  A    between atoms: C_2  and  O_3
REMARK    2  A    between atoms: C_2  and  C_4
REMARK    3  A    between atoms: C_4  and  C_6
REMARK    4  A    between atoms: C_6  and  C_7
REMARK    5  A    between atoms: C_7  and  C_8
REMARK    6  A    between atoms: C_7  and  C_17
REMARK    7  A    between atoms: C_8  and  O_9
REMARK    8  A    between atoms: O_9  and  C_10
REMARK    9  A    between atoms: C_10  and  C_11
REMARK   10  A    between atoms: C_17  and  O_19
REMARK                            x       y       z     vdW  Elec       q    Type
REMARK                         _______ _______ _______ _____ _____    ______ ____
ROOT
ATOM      1  C   UNL     1       4.812   5.109  17.374  0.00  0.00    +0.000 C 
ENDROOT
BRANCH   1   2
ATOM      2  C   UNL     1       5.272   4.872  18.806  0.00  0.00    +0.000 C 
ATOM      3  O   UNL     1       4.999   5.611  19.740  0.00  0.00    +0.000 OA
BRANCH   2   4
ATOM      4  O   UNL     1       5.995   3.742  18.964  0.00  0.00    +0.000 OA
ATOM      5  H   UNL     1       5.427   2.935  18.966  0.00  0.00    +0.000 HD
ENDBRANCH   2   4
ENDBRANCH   1   2
BRANCH   1   6
ATOM      6  C   UNL     1       5.918   5.829  16.586  0.00  0.00    +0.000 C 
BRANCH   6   7
ATOM      7  C   UNL     1       7.000   4.897  16.080  0.00  0.00    +0.000 C 
ATOM      8  O   UNL     1       7.826   4.320  16.777  0.00  0.00    +0.000 OA
BRANCH   7  10
ATOM      9  O   UNL     1       7.730   5.537  13.867  0.00  0.00    +0.000 OA
ATOM     10  C   UNL     1       7.112   4.748  14.558  0.00  0.00    +0.000 C 
BRANCH  10  11
ATOM     11  O   UNL     1       6.499   3.637  14.119  0.00  0.00    +0.000 OA
ATOM     12  H   UNL     1       5.530   3.703  14.282  0.00  0.00    +0.000 HD
ENDBRANCH  10  11
ENDBRANCH   7  10
ENDBRANCH   6   7
ENDBRANCH   1   6
BRANCH   1  13
ATOM     13  C   UNL     1       4.484   3.760  16.720  0.00  0.00    +0.000 C 
BRANCH  13  14
ATOM     14  O   UNL     1       3.066   3.563  16.774  0.00  0.00    +0.000 OA
BRANCH  14  15
ATOM     15  C   UNL     1       2.710   2.391  17.519  0.00  0.00    +0.000 C 
BRANCH  15  16
ATOM     16  C   UNL     1       2.367   2.821  18.922  0.00  0.00    +0.000 A 
ATOM     17  C   UNL     1       3.033   2.268  20.025  0.00  0.00    +0.000 A 
ATOM     18  C   UNL     1       2.668   2.621  21.325  0.00  0.00    +0.000 A 
ATOM     19  C   UNL     1       1.639   3.537  21.539  0.00  0.00    +0.000 A 
ATOM     20  C   UNL     1       0.992   4.119  20.451  0.00  0.00    +0.000 A 
ATOM     21  C   UNL     1       1.357   3.769  19.150  0.00  0.00    +0.000 A 
ENDBRANCH  15  16
ENDBRANCH  14  15
ENDBRANCH  13  14
ENDBRANCH   1  13
TORSDOF 10
ENDMDL
MODEL 4
REMARK VINA RESULT:      -6.7      1.395      2.939
REMARK  Name = 
REMARK  10 active torsions:
REMARK  status: ('A' for Active; 'I' for Inactive)
REMARK    1  A    between atoms: C_2  and  O_3
REMARK    2  A    between atoms: C_2  and  C_4
REMARK    3  A    between atoms: C_4  and  C_6
REMARK    4  A    between atoms: C_6  and  C_7
REMARK    5  A    between atoms: C_7  and  C_8
REMARK    6  A    between atoms: C_7  and  C_17
REMARK    7  A    between atoms: C_8  and  O_9
REMARK    8  A    between atoms: O_9  and  C_10
REMARK    9  A    between atoms: C_10  and  C_11
REMARK   10  A    between atoms: C_17  and  O_19
REMARK                            x       y       z     vdW  Elec       q    Type
REMARK                         _______ _______ _______ _____ _____    ______ ____
ROOT
ATOM      1  C   UNL     1       4.863   5.071  17.149  0.00  0.00    +0.000 C 
ENDROOT
BRANCH   1   2
ATOM      2  C   UNL     1       5.410   5.044  15.728  0.00  0.00    +0.000 C 
ATOM      3  O   UNL     1       5.583   4.021  15.084  0.00  0.00    +0.000 OA
BRANCH   2   4
ATOM      4  O   UNL     1       5.664   6.271  15.222  0.00  0.00    +0.000 OA
ATOM      5  H   UNL     1       6.498   6.290  14.696  0.00  0.00    +0.000 HD
ENDBRANCH   2   4
ENDBRANCH   1   2
BRANCH   1   6
ATOM      6  C   UNL     1       5.849   4.370  18.098  0.00  0.00    +0.000 C 
BRANCH   6   7
ATOM      7  C   UNL     1       7.279   4.842  17.935  0.00  0.00    +0.000 C 
ATOM      8  O   UNL     1       8.094   4.385  17.143  0.00  0.00    +0.000 OA
BRANCH   7  10
ATOM      9  O   UNL     1       8.070   7.041  18.555  0.00  0.00    +0.000 OA
ATOM     10  C   UNL     1       7.754   5.921  18.916  0.00  0.00    +0.000 C 
BRANCH  10  11
ATOM     11  O   UNL     1       7.723   5.489  20.186  0.00  0.00    +0.000 OA
ATOM     12  H   UNL     1       6.956   5.888  20.657  0.00  0.00    +0.000 HD
ENDBRANCH  10  11
ENDBRANCH   7  10
ENDBRANCH   6   7
ENDBRANCH   1   6
BRANCH   1  13
ATOM     13  C   UNL     1       4.652   6.527  17.581  0.00  0.00    +0.000 C 
BRANCH  13  14
ATOM     14  O   UNL     1       3.637   6.558  18.592  0.00  0.00    +0.000 OA
BRANCH  14  15
ATOM     15  C   UNL     1       2.408   5.971  18.144  0.00  0.00    +0.000 C 
BRANCH  15  16
ATOM     16  C   UNL     1       2.051   4.861  19.099  0.00  0.00    +0.000 A 
ATOM     17  C   UNL     1       1.316   3.750  18.663  0.00  0.00    +0.000 A 
ATOM     18  C   UNL     1       0.931   2.755  19.564  0.00  0.00    +0.000 A 
ATOM     19  C   UNL     1       1.283   2.855  20.909  0.00  0.00    +0.000 A 
ATOM     20  C   UNL     1       2.042   3.938  21.349  0.00  0.00    +0.000 A 
ATOM     21  C   UNL     1       2.430   4.932  20.449  0.00  0.00    +0.000 A 
ENDBRANCH  15  16
ENDBRANCH  14  15
ENDBRANCH  13  14
ENDBRANCH   1  13
TORSDOF 10
ENDMDL
MODEL 5
REMARK VINA RESULT:      -6.6      1.846      2.591
REMARK  Name = 
REMARK  10 active torsions:
REMARK  status: ('A' for Active; 'I' for Inactive)
REMARK    1  A    between atoms: C_2  and  O_3
REMARK    2  A    between atoms: C_2  and  C_4
REMARK    3  A    between atoms: C_4  and  C_6
REMARK    4  A    between atoms: C_6  and  C_7
REMARK    5  A    between atoms: C_7  and  C_8
REMARK    6  A    between atoms: C_7  and  C_17
REMARK    7  A    between atoms: C_8  and  O_9
REMARK    8  A    between atoms: O_9  and  C_10
REMARK    9  A    between atoms: C_10  and  C_11
REMARK   10  A    between atoms: C_17  and  O_19
REMARK                            x       y       z     vdW  Elec       q    Type
REMARK                         _______ _______ _______ _____ _____    ______ ____
ROOT
ATOM      1  C   UNL     1       6.859   5.911  17.959  0.00  0.00    +0.000 C 
ENDROOT
BRANCH   1   2
ATOM      2  C   UNL     1       7.728   7.156  17.849  0.00  0.00    +0.000 C 
ATOM      3  O   UNL     1       7.687   7.934  16.908  0.00  0.00    +0.000 OA
BRANCH   2   4
ATOM      4  O   UNL     1       8.541   7.346  18.911  0.00  0.00    +0.000 OA
ATOM      5  H   UNL     1       8.791   6.495  19.344  0.00  0.00    +0.000 HD
ENDBRANCH   2   4
ENDBRANCH   1   2
BRANCH   1   6
ATOM      6  C   UNL     1       7.423   4.801  17.057  0.00  0.00    +0.000 C 
BRANCH   6   7
ATOM      7  C   UNL     1       6.444   4.326  16.004  0.00  0.00    +0.000 C 
ATOM      8  O   UNL     1       5.392   3.736  16.224  0.00  0.00    +0.000 OA
BRANCH   7  10
ATOM      9  O   UNL     1       6.394   3.873  13.631  0.00  0.00    +0.000 OA
ATOM     10  C   UNL     1       6.865   4.527  14.544  0.00  0.00    +0.000 C 
BRANCH  10  11
ATOM     11  O   UNL     1       7.754   5.525  14.414  0.00  0.00    +0.000 OA
ATOM     12  H   UNL     1       8.600   5.175  14.054  0.00  0.00    +0.000 HD
ENDBRANCH  10  11
ENDBRANCH   7  10
ENDBRANCH   6   7
ENDBRANCH   1   6
BRANCH   1  13
ATOM     13  C   UNL     1       6.827   5.445  19.420  0.00  0.00    +0.000 C 
BRANCH  13  14
ATOM     14  O   UNL     1       5.697   4.582  19.597  0.00  0.00    +0.000 OA
BRANCH  14  15
ATOM     15  C   UNL     1       4.455   5.263  19.371  0.00  0.00    +0.000 C 
BRANCH  15  16
ATOM     16  C   UNL     1       3.402   4.223  19.090  0.00  0.00    +0.000 A 
ATOM     17  C   UNL     1       3.696   2.857  19.205  0.00  0.00    +0.000 A 
ATOM     18  C   UNL     1       2.738   1.894  18.881  0.00  0.00    +0.000 A 
ATOM     19  C   UNL     1       1.472   2.286  18.447  0.00  0.00    +0.000 A 
ATOM     20  C   UNL     1       1.156   3.640  18.361  0.00  0.00    +0.000 A 
ATOM     21  C   UNL     1       2.113   4.604  18.686  0.00  0.00    +0.000 A 
ENDBRANCH  15  16
ENDBRANCH  14  15
ENDBRANCH  13  14
ENDBRANCH   1  13
TORSDOF 10
ENDMDL
MODEL 6
REMARK VINA RESULT:      -6.6      1.103      1.663
REMARK  Name = 
REMARK  10 active torsions:
REMARK  status: ('A' for Active; 'I' for Inactive)
REMARK    1  A    between atoms: C_2  and  O_3
REMARK    2  A    between atoms: C_2  and  C_4
REMARK    3  A    between atoms: C_4  and  C_6
REMARK    4  A    between atoms: C_6  and  C_7
REMARK    5  A    between atoms: C_7  and  C_8
REMARK    6  A    between atoms: C_7  and  C_17
REMARK    7  A    between atoms: C_8  and  O_9
REMARK    8  A    between atoms: O_9  and  C_10
REMARK    9  A    between atoms: C_10  and  C_11
REMARK   10  A    between atoms: C_17  and  O_19
REMARK                            x       y       z     vdW  Elec       q    Type
REMARK                         _______ _______ _______ _____ _____    ______ ____
ROOT
ATOM      1  C   UNL     1       6.526   5.544  17.768  0.00  0.00    +0.000 C 
ENDROOT
BRANCH   1   2
ATOM      2  C   UNL     1       6.507   5.080  19.218  0.00  0.00    +0.000 C 
ATOM      3  O   UNL     1       7.237   5.530  20.087  0.00  0.00    +0.000 OA
BRANCH   2   4
ATOM      4  O   UNL     1       5.578   4.131  19.471  0.00  0.00    +0.000 OA
ATOM      5  H   UNL     1       4.661   4.494  19.450  0.00  0.00    +0.000 HD
ENDBRANCH   2   4
ENDBRANCH   1   2
BRANCH   1   6
ATOM      6  C   UNL     1       7.270   4.514  16.902  0.00  0.00    +0.000 C 
BRANCH   6   7
ATOM      7  C   UNL     1       7.091   4.738  15.415  0.00  0.00    +0.000 C 
ATOM      8  O   UNL     1       7.569   5.666  14.772  0.00  0.00    +0.000 OA
BRANCH   7  10
ATOM      9  O   UNL     1       5.855   3.898  13.515  0.00  0.00    +0.000 OA
ATOM     10  C   UNL     1       6.157   3.764  14.688  0.00  0.00    +0.000 C 
BRANCH  10  11
ATOM     11  O   UNL     1       5.776   2.752  15.483  0.00  0.00    +0.000 OA
ATOM     12  H   UNL     1       6.307   2.759  16.312  0.00  0.00    +0.000 HD
ENDBRANCH  10  11
ENDBRANCH   7  10
ENDBRANCH   6   7
ENDBRANCH   1   6
BRANCH   1  13
ATOM     13  C   UNL     1       5.085   5.714  17.273  0.00  0.00    +0.000 C 
BRANCH  13  14
ATOM     14  O   UNL     1       4.311   6.307  18.323  0.00  0.00    +0.000 OA
BRANCH  14  15
ATOM     15  C   UNL     1       2.913   6.355  18.005  0.00  0.00    +0.000 C 
BRANCH  15  16
ATOM     16  C   UNL     1       2.248   5.177  18.667  0.00  0.00    +0.000 A 
ATOM     17  C   UNL     1       1.828   4.072  17.911  0.00  0.00    +0.000 A 
ATOM     18  C   UNL     1       1.153   3.011  18.518  0.00  0.00    +0.000 A 
ATOM     19  C   UNL     1       0.898   3.037  19.888  0.00  0.00    +0.000 A 
ATOM     20  C   UNL     1       1.340   4.112  20.657  0.00  0.00    +0.000 A 
ATOM     21  C   UNL     1       2.016   5.173  20.052  0.00  0.00    +0.000 A 
ENDBRANCH  15  16
ENDBRANCH  14  15
ENDBRANCH  13  14
ENDBRANCH   1  13
TORSDOF 10
ENDMDL
MODEL 7
REMARK VINA RESULT:      -6.6      1.495      1.925
REMARK  Name = 
REMARK  10 active torsions:
REMARK  status: ('A' for Active; 'I' for Inactive)
REMARK    1  A    between atoms: C_2  and  O_3
REMARK    2  A    between atoms: C_2  and  C_4
REMARK    3  A    between atoms: C_4  and  C_6
REMARK    4  A    between atoms: C_6  and  C_7
REMARK    5  A    between atoms: C_7  and  C_8
REMARK    6  A    between atoms: C_7  and  C_17
REMARK    7  A    between atoms: C_8  and  O_9
REMARK    8  A    between atoms: O_9  and  C_10
REMARK    9  A    between atoms: C_10  and  C_11
REMARK   10  A    between atoms: C_17  and  O_19
REMARK                            x       y       z     vdW  Elec       q    Type
REMARK                         _______ _______ _______ _____ _____    ______ ____
ROOT
ATOM      1  C   UNL     1       6.759   5.547  18.276  0.00  0.00    +0.000 C 
ENDROOT
BRANCH   1   2
ATOM      2  C   UNL     1       7.732   5.899  19.393  0.00  0.00    +0.000 C 
ATOM      3  O   UNL     1       7.841   5.260  20.428  0.00  0.00    +0.000 OA
BRANCH   2   4
ATOM      4  O   UNL     1       8.497   6.981  19.126  0.00  0.00    +0.000 OA
ATOM      5  H   UNL     1       7.983   7.821  19.176  0.00  0.00    +0.000 HD
ENDBRANCH   2   4
ENDBRANCH   1   2
BRANCH   1   6
ATOM      6  C   UNL     1       7.403   4.521  17.331  0.00  0.00    +0.000 C 
BRANCH   6   7
ATOM      7  C   UNL     1       6.599   4.278  16.070  0.00  0.00    +0.000 C 
ATOM      8  O   UNL     1       5.960   3.263  15.818  0.00  0.00    +0.000 OA
BRANCH   7  10
ATOM      9  O   UNL     1       7.607   5.446  14.209  0.00  0.00    +0.000 OA
ATOM     10  C   UNL     1       6.678   5.366  14.993  0.00  0.00    +0.000 C 
BRANCH  10  11
ATOM     11  O   UNL     1       5.592   6.156  15.002  0.00  0.00    +0.000 OA
ATOM     12  H   UNL     1       4.782   5.609  15.123  0.00  0.00    +0.000 HD
ENDBRANCH  10  11
ENDBRANCH   7  10
ENDBRANCH   6   7
ENDBRANCH   1   6
BRANCH   1  13
ATOM     13  C   UNL     1       5.474   4.974  18.888  0.00  0.00    +0.000 C 
BRANCH  13  14
ATOM     14  O   UNL     1       4.487   6.012  18.923  0.00  0.00    +0.000 OA
BRANCH  14  15
ATOM     15  C   UNL     1       3.406   5.763  18.014  0.00  0.00    +0.000 C 
BRANCH  15  16
ATOM     16  C   UNL     1       2.492   4.748  18.650  0.00  0.00    +0.000 A 
ATOM     17  C   UNL     1       2.141   3.573  17.968  0.00  0.00    +0.000 A 
ATOM     18  C   UNL     1       1.243   2.665  18.533  0.00  0.00    +0.000 A 
ATOM     19  C   UNL     1       0.691   2.916  19.788  0.00  0.00    +0.000 A 
ATOM     20  C   UNL     1       1.058   4.062  20.491  0.00  0.00    +0.000 A 
ATOM     21  C   UNL     1       1.957   4.971  19.928  0.00  0.00    +0.000 A 
ENDBRANCH  15  16
ENDBRANCH  14  15
ENDBRANCH  13  14
ENDBRANCH   1  13
TORSDOF 10
ENDMDL
MODEL 8
REMARK VINA RESULT:      -6.6      1.536      2.410
REMARK  Name = 
REMARK  10 active torsions:
REMARK  status: ('A' for Active; 'I' for Inactive)
REMARK    1  A    between atoms: C_2  and  O_3
REMARK    2  A    between atoms: C_2  and  C_4
REMARK    3  A    between atoms: C_4  and  C_6
REMARK    4  A    between atoms: C_6  and  C_7
REMARK    5  A    between atoms: C_7  and  C_8
REMARK    6  A    between atoms: C_7  and  C_17
REMARK    7  A    between atoms: C_8  and  O_9
REMARK    8  A    between atoms: O_9  and  C_10
REMARK    9  A    between atoms: C_10  and  C_11
REMARK   10  A    between atoms: C_17  and  O_19
REMARK                            x       y       z     vdW  Elec       q    Type
REMARK                         _______ _______ _______ _____ _____    ______ ____
ROOT
ATOM      1  C   UNL     1       6.518   5.925  17.517  0.00  0.00    +0.000 C 
ENDROOT
BRANCH   1   2
ATOM      2  C   UNL     1       7.552   6.984  17.874  0.00  0.00    +0.000 C 
ATOM      3  O   UNL     1       7.747   7.995  17.218  0.00  0.00    +0.000 OA
BRANCH   2   4
ATOM      4  O   UNL     1       8.228   6.719  19.014  0.00  0.00    +0.000 OA
ATOM      5  H   UNL     1       8.316   7.517  19.587  0.00  0.00    +0.000 HD
ENDBRANCH   2   4
ENDBRANCH   1   2
BRANCH   1   6
ATOM      6  C   UNL     1       7.197   4.767  16.769  0.00  0.00    +0.000 C 
BRANCH   6   7
ATOM      7  C   UNL     1       6.309   4.122  15.726  0.00  0.00    +0.000 C 
ATOM      8  O   UNL     1       5.368   3.372  15.957  0.00  0.00    +0.000 OA
BRANCH   7  10
ATOM      9  O   UNL     1       7.317   5.348  13.904  0.00  0.00    +0.000 OA
ATOM     10  C   UNL     1       6.693   4.366  14.261  0.00  0.00    +0.000 C 
BRANCH  10  11
ATOM     11  O   UNL     1       6.303   3.356  13.468  0.00  0.00    +0.000 OA
ATOM     12  H   UNL     1       5.364   3.126  13.656  0.00  0.00    +0.000 HD
ENDBRANCH  10  11
ENDBRANCH   7  10
ENDBRANCH   6   7
ENDBRANCH   1   6
BRANCH   1  13
ATOM     13  C   UNL     1       5.855   5.413  18.801  0.00  0.00    +0.000 C 
BRANCH  13  14
ATOM     14  O   UNL     1       4.592   6.074  18.955  0.00  0.00    +0.000 OA
BRANCH  14  15
ATOM     15  C   UNL     1       3.647   5.677  17.952  0.00  0.00    +0.000 C 
BRANCH  15  16
ATOM     16  C   UNL     1       2.610   4.807  18.614  0.00  0.00    +0.000 A 
ATOM     17  C   UNL     1       2.224   5.036  19.942  0.00  0.00    +0.000 A 
ATOM     18  C   UNL     1       1.311   4.189  20.573  0.00  0.00    +0.000 A 
ATOM     19  C   UNL     1       0.767   3.108  19.882  0.00  0.00    +0.000 A 
ATOM     20  C   UNL     1       1.116   2.888  18.551  0.00  0.00    +0.000 A 
ATOM     21  C   UNL     1       2.028   3.736  17.918  0.00  0.00    +0.000 A 
ENDBRANCH  15  16
ENDBRANCH  14  15
ENDBRANCH  13  14
ENDBRANCH   1  13
TORSDOF 10
ENDMDL
MODEL 9
REMARK VINA RESULT:      -6.6      1.405      3.242
REMARK  Name = 
REMARK  10 active torsions:
REMARK  status: ('A' for Active; 'I' for Inactive)
REMARK    1  A    between atoms: C_2  and  O_3
REMARK    2  A    between atoms: C_2  and  C_4
REMARK    3  A    between atoms: C_4  and  C_6
REMARK    4  A    between atoms: C_6  and  C_7
REMARK    5  A    between atoms: C_7  and  C_8
REMARK    6  A    between atoms: C_7  and  C_17
REMARK    7  A    between atoms: C_8  and  O_9
REMARK    8  A    between atoms: O_9  and  C_10
REMARK    9  A    between atoms: C_10  and  C_11
REMARK   10  A    between atoms: C_17  and  O_19
REMARK                            x       y       z     vdW  Elec       q    Type
REMARK                         _______ _______ _______ _____ _____    ______ ____
ROOT
ATOM      1  C   UNL     1       5.166   4.925  16.875  0.00  0.00    +0.000 C 
ENDROOT
BRANCH   1   2
ATOM      2  C   UNL     1       5.994   4.800  15.604  0.00  0.00    +0.000 C 
ATOM      3  O   UNL     1       6.077   3.776  14.943  0.00  0.00    +0.000 OA
BRANCH   2   4
ATOM      4  O   UNL     1       6.618   5.945  15.248  0.00  0.00    +0.000 OA
ATOM      5  H   UNL     1       6.376   6.698  15.836  0.00  0.00    +0.000 HD
ENDBRANCH   2   4
ENDBRANCH   1   2
BRANCH   1   6
ATOM      6  C   UNL     1       5.955   4.361  18.068  0.00  0.00    +0.000 C 
BRANCH   6   7
ATOM      7  C   UNL     1       7.419   4.751  18.059  0.00  0.00    +0.000 C 
ATOM      8  O   UNL     1       8.298   4.205  17.403  0.00  0.00    +0.000 OA
BRANCH   7  10
ATOM      9  O   UNL     1       8.122   6.987  18.650  0.00  0.00    +0.000 OA
ATOM     10  C   UNL     1       7.830   5.867  19.028  0.00  0.00    +0.000 C 
BRANCH  10  11
ATOM     11  O   UNL     1       7.773   5.462  20.306  0.00  0.00    +0.000 OA
ATOM     12  H   UNL     1       6.948   5.797  20.727  0.00  0.00    +0.000 HD
ENDBRANCH  10  11
ENDBRANCH   7  10
ENDBRANCH   6   7
ENDBRANCH   1   6
BRANCH   1  13
ATOM     13  C   UNL     1       4.827   6.402  17.113  0.00  0.00    +0.000 C 
BRANCH  13  14
ATOM     14  O   UNL     1       3.432   6.503  17.427  0.00  0.00    +0.000 OA
BRANCH  14  15
ATOM     15  C   UNL     1       3.194   6.501  18.841  0.00  0.00    +0.000 C 
BRANCH  15  16
ATOM     16  C   UNL     1       2.343   5.300  19.164  0.00  0.00    +0.000 A 
ATOM     17  C   UNL     1       1.991   5.007  20.490  0.00  0.00    +0.000 A 
ATOM     18  C   UNL     1       1.257   3.858  20.793  0.00  0.00    +0.000 A 
ATOM     19  C   UNL     1       0.860   2.993  19.774  0.00  0.00    +0.000 A 
ATOM     20  C   UNL     1       1.174   3.290  18.450  0.00  0.00    +0.000 A 
ATOM     21  C   UNL     1       1.906   4.440  18.145  0.00  0.00    +0.000 A 
ENDBRANCH  15  16
ENDBRANCH  14  15
ENDBRANCH  13  14
ENDBRANCH   1  13
TORSDOF 10
ENDMDL
