MODEL 1
REMARK VINA RESULT:      -7.9      0.000      0.000
REMARK  Name = 
REMARK  8 active torsions:
REMARK  status: ('A' for Active; 'I' for Inactive)
REMARK    1  A    between atoms: C_2  and  C_3
REMARK    2  A    between atoms: C_7  and  N_8
REMARK    3  A    between atoms: C_9  and  C_11
REMARK    4  A    between atoms: C_11  and  N_12
REMARK    5  A    between atoms: N_12  and  C_13
REMARK    6  A    between atoms: C_15  and  S_16
REMARK    7  A    between atoms: S_16  and  N_19
REMARK    8  A    between atoms: C_27  and  N_28
REMARK                            x       y       z     vdW  Elec       q    Type
REMARK                         _______ _______ _______ _____ _____    ______ ____
ROOT
ATOM      1  C   UNL     1       1.435   8.335  19.755  0.00  0.00    +0.000 A 
ATOM      2  C   UNL     1       2.263   7.214  19.553  0.00  0.00    +0.000 A 
ATOM      3  C   UNL     1       2.986   7.052  18.377  0.00  0.00    +0.000 A 
ATOM      4  C   UNL     1       2.885   7.995  17.369  0.00  0.00    +0.000 A 
ATOM      5  C   UNL     1       2.140   9.162  17.602  0.00  0.00    +0.000 A 
ATOM      6  C   UNL     1       1.462   9.418  18.819  0.00  0.00    +0.000 A 
ENDROOT
BRANCH   6   7
ATOM      7  N   UNL     1       0.846  10.654  19.053  0.00  0.00    +0.000 N 
ATOM      8  C   UNL     1      -0.565  10.920  18.740  0.00  0.00    +0.000 C 
ATOM      9  C   UNL     1      -0.579  12.296  18.084  0.00  0.00    +0.000 C 
ATOM     10  C   UNL     1       0.589  13.021  18.710  0.00  0.00    +0.000 C 
ATOM     11  C   UNL     1       1.599  11.920  19.025  0.00  0.00    +0.000 C 
ENDBRANCH   6   7
BRANCH   3  12
ATOM     12  S   UNL     1       4.001   5.601  18.220  0.00  0.00    +0.000 S 
ATOM     13  O   UNL     1       4.545   5.334  19.533  0.00  0.00    +0.000 OA
ATOM     14  O   UNL     1       3.260   4.599  17.486  0.00  0.00    +0.000 OA
BRANCH  12  15
ATOM     15  N   UNL     1       5.236   6.186  17.217  0.00  0.00    +0.000 NA
ATOM     16  C   UNL     1       5.329   5.616  15.844  0.00  0.00    +0.000 C 
ATOM     17  C   UNL     1       6.218   4.367  15.823  0.00  0.00    +0.000 C 
ATOM     18  O   UNL     1       7.522   4.646  16.353  0.00  0.00    +0.000 OA
ATOM     19  C   UNL     1       7.446   5.126  17.704  0.00  0.00    +0.000 C 
ATOM     20  C   UNL     1       6.586   6.388  17.808  0.00  0.00    +0.000 C 
ENDBRANCH  12  15
ENDBRANCH   3  12
BRANCH   1  21
ATOM     21  N   UNL     1       0.576   8.372  20.858  0.00  0.00    +0.000 N 
ATOM     22  H   UNL     1      -0.238   7.774  20.734  0.00  0.00    +0.000 HD
BRANCH  21  23
ATOM     23  C   UNL     1       1.010   8.576  22.239  0.00  0.00    +0.000 C 
BRANCH  23  25
ATOM     24  N   UNL     1      -0.321  10.647  22.200  0.00  0.00    +0.000 N 
ATOM     25  C   UNL     1       0.277   9.686  23.000  0.00  0.00    +0.000 C 
ATOM     26  O   UNL     1       0.248   9.655  24.229  0.00  0.00    +0.000 OA
ATOM     27  H   UNL     1      -0.362  10.424  21.213  0.00  0.00    +0.000 HD
BRANCH  24  32
ATOM     28  C   UNL     1      -3.078  12.654  23.639  0.00  0.00    +0.000 A 
ATOM     29  C   UNL     1      -2.573  13.953  23.523  0.00  0.00    +0.000 A 
ATOM     30  C   UNL     1      -1.316  14.162  22.962  0.00  0.00    +0.000 A 
ATOM     31  C   UNL     1      -0.557  13.076  22.523  0.00  0.00    +0.000 A 
ATOM     32  C   UNL     1      -1.045  11.772  22.635  0.00  0.00    +0.000 A 
ATOM     33  C   UNL     1      -2.316  11.565  23.188  0.00  0.00    +0.000 A 
BRANCH  28  35
ATOM     34  N   UNL     1      -5.416  12.257  24.693  0.00  0.00    +0.000 NA
ATOM     35  C   UNL     1      -4.370  12.440  24.220  0.00  0.00    +0.000 C 
ENDBRANCH  28  35
ENDBRANCH  24  32
ENDBRANCH  23  25
ENDBRANCH  21  23
ENDBRANCH   1  21
TORSDOF 8
ENDMDL
MODEL 2
REMARK VINA RESULT:      -7.7      2.017      2.938
REMARK  Name = 
REMARK  8 active torsions:
REMARK  status: ('A' for Active; 'I' for Inactive)
REMARK    1  A    between atoms: C_2  and  C_3
REMARK    2  A    between atoms: C_7  and  N_8
REMARK    3  A    between atoms: C_9  and  C_11
REMARK    4  A    between atoms: C_11  and  N_12
REMARK    5  A    between atoms: N_12  and  C_13
REMARK    6  A    between atoms: C_15  and  S_16
REMARK    7  A    between atoms: S_16  and  N_19
REMARK    8  A    between atoms: C_27  and  N_28
REMARK                            x       y       z     vdW  Elec       q    Type
REMARK                         _______ _______ _______ _____ _____    ______ ____
ROOT
ATOM      1  C   UNL     1       1.484   8.410  20.252  0.00  0.00    +0.000 A 
ATOM      2  C   UNL     1       2.319   7.323  19.934  0.00  0.00    +0.000 A 
ATOM      3  C   UNL     1       2.715   7.075  18.624  0.00  0.00    +0.000 A 
ATOM      4  C   UNL     1       2.273   7.896  17.602  0.00  0.00    +0.000 A 
ATOM      5  C   UNL     1       1.522   9.038  17.924  0.00  0.00    +0.000 A 
ATOM      6  C   UNL     1       1.171   9.385  19.252  0.00  0.00    +0.000 A 
ENDROOT
BRANCH   6   7
ATOM      7  N   UNL     1       0.538  10.603  19.532  0.00  0.00    +0.000 N 
ATOM      8  C   UNL     1      -0.697  11.037  18.866  0.00  0.00    +0.000 C 
ATOM      9  C   UNL     1      -0.476  12.509  18.531  0.00  0.00    +0.000 C 
ATOM     10  C   UNL     1       0.450  13.005  19.616  0.00  0.00    +0.000 C 
ATOM     11  C   UNL     1       1.287  11.785  19.993  0.00  0.00    +0.000 C 
ENDBRANCH   6   7
BRANCH   3  12
ATOM     12  S   UNL     1       3.771   5.675  18.328  0.00  0.00    +0.000 S 
ATOM     13  O   UNL     1       4.658   6.048  17.249  0.00  0.00    +0.000 OA
ATOM     14  O   UNL     1       4.275   5.204  19.599  0.00  0.00    +0.000 OA
BRANCH  12  15
ATOM     15  N   UNL     1       2.645   4.546  17.753  0.00  0.00    +0.000 NA
ATOM     16  C   UNL     1       1.479   4.236  18.628  0.00  0.00    +0.000 C 
ATOM     17  C   UNL     1       1.800   3.084  19.588  0.00  0.00    +0.000 C 
ATOM     18  O   UNL     1       2.233   1.916  18.876  0.00  0.00    +0.000 OA
ATOM     19  C   UNL     1       3.401   2.187  18.086  0.00  0.00    +0.000 C 
ATOM     20  C   UNL     1       3.157   3.319  17.086  0.00  0.00    +0.000 C 
ENDBRANCH  12  15
ENDBRANCH   3  12
BRANCH   1  21
ATOM     21  N   UNL     1       0.947   8.518  21.539  0.00  0.00    +0.000 N 
ATOM     22  H   UNL     1       1.630   8.850  22.216  0.00  0.00    +0.000 HD
BRANCH  21  23
ATOM     23  C   UNL     1      -0.448   8.847  21.830  0.00  0.00    +0.000 C 
BRANCH  23  25
ATOM     24  N   UNL     1      -1.578  10.975  22.343  0.00  0.00    +0.000 N 
ATOM     25  C   UNL     1      -0.658  10.033  22.778  0.00  0.00    +0.000 C 
ATOM     26  O   UNL     1      -0.035  10.073  23.838  0.00  0.00    +0.000 OA
ATOM     27  H   UNL     1      -2.135  10.698  21.544  0.00  0.00    +0.000 HD
BRANCH  24  32
ATOM     28  C   UNL     1      -1.354  14.410  23.703  0.00  0.00    +0.000 A 
ATOM     29  C   UNL     1      -2.599  14.549  24.326  0.00  0.00    +0.000 A 
ATOM     30  C   UNL     1      -3.512  13.498  24.296  0.00  0.00    +0.000 A 
ATOM     31  C   UNL     1      -3.189  12.310  23.640  0.00  0.00    +0.000 A 
ATOM     32  C   UNL     1      -1.951  12.156  23.010  0.00  0.00    +0.000 A 
ATOM     33  C   UNL     1      -1.029  13.210  23.051  0.00  0.00    +0.000 A 
BRANCH  28  35
ATOM     34  N   UNL     1       0.348  16.368  23.746  0.00  0.00    +0.000 NA
ATOM     35  C   UNL     1      -0.418  15.494  23.729  0.00  0.00    +0.000 C 
ENDBRANCH  28  35
ENDBRANCH  24  32
ENDBRANCH  23  25
ENDBRANCH  21  23
ENDBRANCH   1  21
TORSDOF 8
ENDMDL
MODEL 3
REMARK VINA RESULT:      -7.6      1.127      1.685
REMARK  Name = 
REMARK  8 active torsions:
REMARK  status: ('A' for Active; 'I' for Inactive)
REMARK    1  A    between atoms: C_2  and  C_3
REMARK    2  A    between atoms: C_7  and  N_8
REMARK    3  A    between atoms: C_9  and  C_11
REMARK    4  A    between atoms: C_11  and  N_12
REMARK    5  A    between atoms: N_12  and  C_13
REMARK    6  A    between atoms: C_15  and  S_16
REMARK    7  A    between atoms: S_16  and  N_19
REMARK    8  A    between atoms: C_27  and  N_28
REMARK                            x       y       z     vdW  Elec       q    Type
REMARK                         _______ _______ _______ _____ _____    ______ ____
ROOT
ATOM      1  C   UNL     1       1.564   8.216  19.880  0.00  0.00    +0.000 A 
ATOM      2  C   UNL     1       2.410   7.117  19.638  0.00  0.00    +0.000 A 
ATOM      3  C   UNL     1       2.988   6.910  18.391  0.00  0.00    +0.000 A 
ATOM      4  C   UNL     1       2.722   7.786  17.354  0.00  0.00    +0.000 A 
ATOM      5  C   UNL     1       1.960   8.937  17.613  0.00  0.00    +0.000 A 
ATOM      6  C   UNL     1       1.426   9.240  18.890  0.00  0.00    +0.000 A 
ENDROOT
BRANCH   6   7
ATOM      7  N   UNL     1       0.789  10.465  19.129  0.00  0.00    +0.000 N 
ATOM      8  C   UNL     1      -0.639  10.690  18.870  0.00  0.00    +0.000 C 
ATOM      9  C   UNL     1      -0.714  12.056  18.195  0.00  0.00    +0.000 C 
ATOM     10  C   UNL     1       0.460  12.819  18.763  0.00  0.00    +0.000 C 
ATOM     11  C   UNL     1       1.509  11.748  19.052  0.00  0.00    +0.000 C 
ENDBRANCH   6   7
BRANCH   3  12
ATOM     12  S   UNL     1       4.041   5.492  18.189  0.00  0.00    +0.000 S 
ATOM     13  O   UNL     1       4.541   5.159  19.504  0.00  0.00    +0.000 OA
ATOM     14  O   UNL     1       3.350   4.521  17.369  0.00  0.00    +0.000 OA
BRANCH  12  15
ATOM     15  N   UNL     1       5.299   6.160  17.271  0.00  0.00    +0.000 NA
ATOM     16  C   UNL     1       5.417   5.722  15.852  0.00  0.00    +0.000 C 
ATOM     17  C   UNL     1       6.300   4.473  15.730  0.00  0.00    +0.000 C 
ATOM     18  O   UNL     1       7.594   4.691  16.311  0.00  0.00    +0.000 OA
ATOM     19  C   UNL     1       7.493   5.043  17.699  0.00  0.00    +0.000 C 
ATOM     20  C   UNL     1       6.638   6.295  17.905  0.00  0.00    +0.000 C 
ENDBRANCH  12  15
ENDBRANCH   3  12
BRANCH   1  21
ATOM     21  N   UNL     1       0.847   8.288  21.078  0.00  0.00    +0.000 N 
ATOM     22  H   UNL     1       0.245   7.479  21.218  0.00  0.00    +0.000 HD
BRANCH  21  23
ATOM     23  C   UNL     1       1.331   8.937  22.296  0.00  0.00    +0.000 C 
BRANCH  23  25
ATOM     24  N   UNL     1      -0.119  10.927  22.236  0.00  0.00    +0.000 N 
ATOM     25  C   UNL     1       0.323   9.854  22.996  0.00  0.00    +0.000 C 
ATOM     26  O   UNL     1      -0.037   9.589  24.142  0.00  0.00    +0.000 OA
ATOM     27  H   UNL     1       0.130  10.893  21.256  0.00  0.00    +0.000 HD
BRANCH  24  32
ATOM     28  C   UNL     1      -1.521  14.290  22.886  0.00  0.00    +0.000 A 
ATOM     29  C   UNL     1      -2.778  13.975  23.412  0.00  0.00    +0.000 A 
ATOM     30  C   UNL     1      -3.158  12.643  23.555  0.00  0.00    +0.000 A 
ATOM     31  C   UNL     1      -2.289  11.624  23.166  0.00  0.00    +0.000 A 
ATOM     32  C   UNL     1      -1.031  11.920  22.635  0.00  0.00    +0.000 A 
ATOM     33  C   UNL     1      -0.646  13.261  22.504  0.00  0.00    +0.000 A 
BRANCH  28  35
ATOM     34  N   UNL     1      -0.828  16.776  22.611  0.00  0.00    +0.000 NA
ATOM     35  C   UNL     1      -1.133  15.661  22.735  0.00  0.00    +0.000 C 
ENDBRANCH  28  35
ENDBRANCH  24  32
ENDBRANCH  23  25
ENDBRANCH  21  23
ENDBRANCH   1  21
TORSDOF 8
ENDMDL
MODEL 4
REMARK VINA RESULT:      -7.5      1.796      2.310
REMARK  Name = 
REMARK  8 active torsions:
REMARK  status: ('A' for Active; 'I' for Inactive)
REMARK    1  A    between atoms: C_2  and  C_3
REMARK    2  A    between atoms: C_7  and  N_8
REMARK    3  A    between atoms: C_9  and  C_11
REMARK    4  A    between atoms: C_11  and  N_12
REMARK    5  A    between atoms: N_12  and  C_13
REMARK    6  A    between atoms: C_15  and  S_16
REMARK    7  A    between atoms: S_16  and  N_19
REMARK    8  A    between atoms: C_27  and  N_28
REMARK                            x       y       z     vdW  Elec       q    Type
REMARK                         _______ _______ _______ _____ _____    ______ ____
ROOT
ATOM      1  C   UNL     1       1.428   8.286  20.041  0.00  0.00    +0.000 A 
ATOM      2  C   UNL     1       2.260   7.171  19.827  0.00  0.00    +0.000 A 
ATOM      3  C   UNL     1       2.855   6.939  18.592  0.00  0.00    +0.000 A 
ATOM      4  C   UNL     1       2.620   7.805  17.539  0.00  0.00    +0.000 A 
ATOM      5  C   UNL     1       1.872   8.970  17.770  0.00  0.00    +0.000 A 
ATOM      6  C   UNL     1       1.323   9.299  19.034  0.00  0.00    +0.000 A 
ENDROOT
BRANCH   6   7
ATOM      7  N   UNL     1       0.702  10.537  19.248  0.00  0.00    +0.000 N 
ATOM      8  C   UNL     1      -0.728  10.770  19.003  0.00  0.00    +0.000 C 
ATOM      9  C   UNL     1      -0.799  12.116  18.290  0.00  0.00    +0.000 C 
ATOM     10  C   UNL     1       0.390  12.882  18.818  0.00  0.00    +0.000 C 
ATOM     11  C   UNL     1       1.433  11.810  19.123  0.00  0.00    +0.000 C 
ENDBRANCH   6   7
BRANCH   3  12
ATOM     12  S   UNL     1       3.888   5.502  18.426  0.00  0.00    +0.000 S 
ATOM     13  O   UNL     1       4.139   5.334  17.012  0.00  0.00    +0.000 OA
ATOM     14  O   UNL     1       4.967   5.599  19.384  0.00  0.00    +0.000 OA
BRANCH  12  15
ATOM     15  N   UNL     1       2.827   4.287  18.947  0.00  0.00    +0.000 NA
ATOM     16  C   UNL     1       3.255   3.455  20.106  0.00  0.00    +0.000 C 
ATOM     17  C   UNL     1       4.059   2.233  19.641  0.00  0.00    +0.000 C 
ATOM     18  O   UNL     1       3.318   1.452  18.693  0.00  0.00    +0.000 OA
ATOM     19  C   UNL     1       2.963   2.228  17.538  0.00  0.00    +0.000 C 
ATOM     20  C   UNL     1       2.141   3.462  17.917  0.00  0.00    +0.000 C 
ENDBRANCH  12  15
ENDBRANCH   3  12
BRANCH   1  21
ATOM     21  N   UNL     1       0.693   8.386  21.226  0.00  0.00    +0.000 N 
ATOM     22  H   UNL     1       0.294   7.494  21.509  0.00  0.00    +0.000 HD
BRANCH  21  23
ATOM     23  C   UNL     1       0.993   9.320  22.310  0.00  0.00    +0.000 C 
BRANCH  23  25
ATOM     24  N   UNL     1      -0.160  11.495  22.388  0.00  0.00    +0.000 N 
ATOM     25  C   UNL     1      -0.190  10.169  22.791  0.00  0.00    +0.000 C 
ATOM     26  O   UNL     1      -1.072   9.642  23.466  0.00  0.00    +0.000 OA
ATOM     27  H   UNL     1       0.533  11.718  21.685  0.00  0.00    +0.000 HD
BRANCH  24  32
ATOM     28  C   UNL     1      -3.343  13.029  23.490  0.00  0.00    +0.000 A 
ATOM     29  C   UNL     1      -3.075  14.392  23.320  0.00  0.00    +0.000 A 
ATOM     30  C   UNL     1      -1.835  14.799  22.834  0.00  0.00    +0.000 A 
ATOM     31  C   UNL     1      -0.859  13.852  22.525  0.00  0.00    +0.000 A 
ATOM     32  C   UNL     1      -1.109  12.488  22.693  0.00  0.00    +0.000 A 
ATOM     33  C   UNL     1      -2.362  12.079  23.170  0.00  0.00    +0.000 A 
BRANCH  28  35
ATOM     34  N   UNL     1      -5.652  12.280  24.409  0.00  0.00    +0.000 NA
ATOM     35  C   UNL     1      -4.617  12.611  23.995  0.00  0.00    +0.000 C 
ENDBRANCH  28  35
ENDBRANCH  24  32
ENDBRANCH  23  25
ENDBRANCH  21  23
ENDBRANCH   1  21
TORSDOF 8
ENDMDL
MODEL 5
REMARK VINA RESULT:      -7.4      1.603      2.276
REMARK  Name = 
REMARK  8 active torsions:
REMARK  status: ('A' for Active; 'I' for Inactive)
REMARK    1  A    between atoms: C_2  and  C_3
REMARK    2  A    between atoms: C_7  and  N_8
REMARK    3  A    between atoms: C_9  and  C_11
REMARK    4  A    between atoms: C_11  and  N_12
REMARK    5  A    between atoms: N_12  and  C_13
REMARK    6  A    between atoms: C_15  and  S_16
REMARK    7  A    between atoms: S_16  and  N_19
REMARK    8  A    between atoms: C_27  and  N_28
REMARK                            x       y       z     vdW  Elec       q    Type
REMARK                         _______ _______ _______ _____ _____    ______ ____
ROOT
ATOM      1  C   UNL     1       1.327   8.752  19.682  0.00  0.00    +0.000 A 
ATOM      2  C   UNL     1       2.048   7.550  19.824  0.00  0.00    +0.000 A 
ATOM      3  C   UNL     1       2.908   7.101  18.828  0.00  0.00    +0.000 A 
ATOM      4  C   UNL     1       3.055   7.831  17.663  0.00  0.00    +0.000 A 
ATOM      5  C   UNL     1       2.417   9.078  17.555  0.00  0.00    +0.000 A 
ATOM      6  C   UNL     1       1.605   9.623  18.581  0.00  0.00    +0.000 A 
ENDROOT
BRANCH   6   7
ATOM      7  N   UNL     1       1.102  10.926  18.482  0.00  0.00    +0.000 N 
ATOM      8  C   UNL     1       1.828  12.106  18.973  0.00  0.00    +0.000 C 
ATOM      9  C   UNL     1       0.780  12.951  19.691  0.00  0.00    +0.000 C 
ATOM     10  C   UNL     1      -0.508  12.646  18.964  0.00  0.00    +0.000 C 
ATOM     11  C   UNL     1      -0.344  11.208  18.479  0.00  0.00    +0.000 C 
ENDBRANCH   6   7
BRANCH   3  12
ATOM     12  S   UNL     1       3.770   5.571  19.105  0.00  0.00    +0.000 S 
ATOM     13  O   UNL     1       5.166   5.829  18.834  0.00  0.00    +0.000 OA
ATOM     14  O   UNL     1       3.329   5.018  20.367  0.00  0.00    +0.000 OA
BRANCH  12  15
ATOM     15  N   UNL     1       3.131   4.618  17.858  0.00  0.00    +0.000 NA
ATOM     16  C   UNL     1       1.699   4.222  17.964  0.00  0.00    +0.000 C 
ATOM     17  C   UNL     1       1.545   2.906  18.737  0.00  0.00    +0.000 C 
ATOM     18  O   UNL     1       2.325   1.858  18.143  0.00  0.00    +0.000 OA
ATOM     19  C   UNL     1       3.719   2.201  18.103  0.00  0.00    +0.000 C 
ATOM     20  C   UNL     1       3.960   3.500  17.331  0.00  0.00    +0.000 C 
ENDBRANCH  12  15
ENDBRANCH   3  12
BRANCH   1  21
ATOM     21  N   UNL     1       0.330   9.075  20.608  0.00  0.00    +0.000 N 
ATOM     22  H   UNL     1      -0.601   9.031  20.203  0.00  0.00    +0.000 HD
BRANCH  21  23
ATOM     23  C   UNL     1       0.413   8.804  22.043  0.00  0.00    +0.000 C 
BRANCH  23  25
ATOM     24  N   UNL     1      -0.899  10.873  22.298  0.00  0.00    +0.000 N 
ATOM     25  C   UNL     1      -0.159   9.899  22.951  0.00  0.00    +0.000 C 
ATOM     26  O   UNL     1       0.049   9.844  24.162  0.00  0.00    +0.000 OA
ATOM     27  H   UNL     1      -1.129  10.667  21.334  0.00  0.00    +0.000 HD
BRANCH  24  32
ATOM     28  C   UNL     1      -3.554  12.969  23.799  0.00  0.00    +0.000 A 
ATOM     29  C   UNL     1      -2.866  14.161  24.051  0.00  0.00    +0.000 A 
ATOM     30  C   UNL     1      -1.519  14.268  23.717  0.00  0.00    +0.000 A 
ATOM     31  C   UNL     1      -0.853  13.186  23.140  0.00  0.00    +0.000 A 
ATOM     32  C   UNL     1      -1.525  11.987  22.885  0.00  0.00    +0.000 A 
ATOM     33  C   UNL     1      -2.884  11.886  23.210  0.00  0.00    +0.000 A 
BRANCH  28  35
ATOM     34  N   UNL     1      -6.067  12.771  24.420  0.00  0.00    +0.000 NA
ATOM     35  C   UNL     1      -4.940  12.858  24.147  0.00  0.00    +0.000 C 
ENDBRANCH  28  35
ENDBRANCH  24  32
ENDBRANCH  23  25
ENDBRANCH  21  23
ENDBRANCH   1  21
TORSDOF 8
ENDMDL
MODEL 6
REMARK VINA RESULT:      -7.4      3.917      9.075
REMARK  Name = 
REMARK  8 active torsions:
REMARK  status: ('A' for Active; 'I' for Inactive)
REMARK    1  A    between atoms: C_2  and  C_3
REMARK    2  A    between atoms: C_7  and  N_8
REMARK    3  A    between atoms: C_9  and  C_11
REMARK    4  A    between atoms: C_11  and  N_12
REMARK    5  A    between atoms: N_12  and  C_13
REMARK    6  A    between atoms: C_15  and  S_16
REMARK    7  A    between atoms: S_16  and  N_19
REMARK    8  A    between atoms: C_27  and  N_28
REMARK                            x       y       z     vdW  Elec       q    Type
REMARK                         _______ _______ _______ _____ _____    ______ ____
ROOT
ATOM      1  C   UNL     1       0.233  11.153  19.178  0.00  0.00    +0.000 A 
ATOM      2  C   UNL     1       1.186  11.974  19.810  0.00  0.00    +0.000 A 
ATOM      3  C   UNL     1       1.174  13.355  19.647  0.00  0.00    +0.000 A 
ATOM      4  C   UNL     1       0.220  13.945  18.837  0.00  0.00    +0.000 A 
ATOM      5  C   UNL     1      -0.792  13.145  18.283  0.00  0.00    +0.000 A 
ATOM      6  C   UNL     1      -0.877  11.747  18.496  0.00  0.00    +0.000 A 
ENDROOT
BRANCH   6   7
ATOM      7  N   UNL     1      -1.980  11.016  18.035  0.00  0.00    +0.000 N 
ATOM      8  C   UNL     1      -1.929  10.147  16.852  0.00  0.00    +0.000 C 
ATOM      9  C   UNL     1      -3.214  10.438  16.084  0.00  0.00    +0.000 C 
ATOM     10  C   UNL     1      -4.209  10.825  17.152  0.00  0.00    +0.000 C 
ATOM     11  C   UNL     1      -3.364  11.474  18.246  0.00  0.00    +0.000 C 
ENDBRANCH   6   7
BRANCH   3  12
ATOM     12  S   UNL     1       2.423  14.300  20.487  0.00  0.00    +0.000 S 
ATOM     13  O   UNL     1       1.833  15.585  20.792  0.00  0.00    +0.000 OA
ATOM     14  O   UNL     1       3.012  13.470  21.514  0.00  0.00    +0.000 OA
BRANCH  12  15
ATOM     15  N   UNL     1       3.561  14.495  19.247  0.00  0.00    +0.000 NA
ATOM     16  C   UNL     1       4.905  15.014  19.626  0.00  0.00    +0.000 C 
ATOM     17  C   UNL     1       4.938  16.547  19.583  0.00  0.00    +0.000 C 
ATOM     18  O   UNL     1       4.540  17.041  18.296  0.00  0.00    +0.000 OA
ATOM     19  C   UNL     1       3.215  16.605  17.953  0.00  0.00    +0.000 C 
ATOM     20  C   UNL     1       3.104  15.079  17.957  0.00  0.00    +0.000 C 
ENDBRANCH  12  15
ENDBRANCH   3  12
BRANCH   1  21
ATOM     21  N   UNL     1       0.389   9.764  19.203  0.00  0.00    +0.000 N 
ATOM     22  H   UNL     1      -0.162   9.300  18.485  0.00  0.00    +0.000 HD
BRANCH  21  23
ATOM     23  C   UNL     1       1.614   9.075  19.607  0.00  0.00    +0.000 C 
BRANCH  23  25
ATOM     24  N   UNL     1       2.504   6.840  19.080  0.00  0.00    +0.000 N 
ATOM     25  C   UNL     1       2.184   8.092  18.578  0.00  0.00    +0.000 C 
ATOM     26  O   UNL     1       2.305   8.451  17.408  0.00  0.00    +0.000 OA
ATOM     27  H   UNL     1       2.169   6.651  20.016  0.00  0.00    +0.000 HD
BRANCH  24  32
ATOM     28  C   UNL     1       5.019   4.698  17.411  0.00  0.00    +0.000 A 
ATOM     29  C   UNL     1       4.224   3.655  16.925  0.00  0.00    +0.000 A 
ATOM     30  C   UNL     1       2.850   3.665  17.150  0.00  0.00    +0.000 A 
ATOM     31  C   UNL     1       2.268   4.712  17.866  0.00  0.00    +0.000 A 
ATOM     32  C   UNL     1       3.047   5.760  18.361  0.00  0.00    +0.000 A 
ATOM     33  C   UNL     1       4.428   5.754  18.122  0.00  0.00    +0.000 A 
BRANCH  28  35
ATOM     34  N   UNL     1       7.582   4.681  17.001  0.00  0.00    +0.000 NA
ATOM     35  C   UNL     1       6.433   4.684  17.183  0.00  0.00    +0.000 C 
ENDBRANCH  28  35
ENDBRANCH  24  32
ENDBRANCH  23  25
ENDBRANCH  21  23
ENDBRANCH   1  21
TORSDOF 8
ENDMDL
MODEL 7
REMARK VINA RESULT:      -7.3      2.297      3.305
REMARK  Name = 
REMARK  8 active torsions:
REMARK  status: ('A' for Active; 'I' for Inactive)
REMARK    1  A    between atoms: C_2  and  C_3
REMARK    2  A    between atoms: C_7  and  N_8
REMARK    3  A    between atoms: C_9  and  C_11
REMARK    4  A    between atoms: C_11  and  N_12
REMARK    5  A    between atoms: N_12  and  C_13
REMARK    6  A    between atoms: C_15  and  S_16
REMARK    7  A    between atoms: S_16  and  N_19
REMARK    8  A    between atoms: C_27  and  N_28
REMARK                            x       y       z     vdW  Elec       q    Type
REMARK                         _______ _______ _______ _____ _____    ______ ____
ROOT
ATOM      1  C   UNL     1       1.564   8.956  19.956  0.00  0.00    +0.000 A 
ATOM      2  C   UNL     1       2.164   7.684  19.882  0.00  0.00    +0.000 A 
ATOM      3  C   UNL     1       2.477   7.102  18.658  0.00  0.00    +0.000 A 
ATOM      4  C   UNL     1       2.183   7.769  17.482  0.00  0.00    +0.000 A 
ATOM      5  C   UNL     1       1.676   9.077  17.549  0.00  0.00    +0.000 A 
ATOM      6  C   UNL     1       1.428   9.749  18.772  0.00  0.00    +0.000 A 
ENDROOT
BRANCH   6   7
ATOM      7  N   UNL     1       1.052  11.098  18.786  0.00  0.00    +0.000 N 
ATOM      8  C   UNL     1       1.814  12.136  19.493  0.00  0.00    +0.000 C 
ATOM      9  C   UNL     1       0.767  12.992  20.199  0.00  0.00    +0.000 C 
ATOM     10  C   UNL     1      -0.451  12.900  19.312  0.00  0.00    +0.000 C 
ATOM     11  C   UNL     1      -0.356  11.518  18.670  0.00  0.00    +0.000 C 
ENDBRANCH   6   7
BRANCH   3  12
ATOM     12  S   UNL     1       3.231   5.493  18.674  0.00  0.00    +0.000 S 
ATOM     13  O   UNL     1       3.565   5.180  17.303  0.00  0.00    +0.000 OA
ATOM     14  O   UNL     1       4.225   5.463  19.725  0.00  0.00    +0.000 OA
BRANCH  12  15
ATOM     15  N   UNL     1       1.921   4.534  19.158  0.00  0.00    +0.000 NA
ATOM     16  C   UNL     1       1.942   3.997  20.548  0.00  0.00    +0.000 C 
ATOM     17  C   UNL     1       2.658   2.641  20.605  0.00  0.00    +0.000 C 
ATOM     18  O   UNL     1       2.066   1.700  19.699  0.00  0.00    +0.000 OA
ATOM     19  C   UNL     1       2.107   2.178  18.345  0.00  0.00    +0.000 C 
ATOM     20  C   UNL     1       1.395   3.524  18.200  0.00  0.00    +0.000 C 
ENDBRANCH  12  15
ENDBRANCH   3  12
BRANCH   1  21
ATOM     21  N   UNL     1       1.086   9.426  21.183  0.00  0.00    +0.000 N 
ATOM     22  H   UNL     1       1.620  10.220  21.527  0.00  0.00    +0.000 HD
BRANCH  21  23
ATOM     23  C   UNL     1      -0.314   9.373  21.601  0.00  0.00    +0.000 C 
BRANCH  23  25
ATOM     24  N   UNL     1      -1.594  11.359  22.299  0.00  0.00    +0.000 N 
ATOM     25  C   UNL     1      -0.710  10.368  22.698  0.00  0.00    +0.000 C 
ATOM     26  O   UNL     1      -0.252  10.227  23.831  0.00  0.00    +0.000 OA
ATOM     27  H   UNL     1      -2.015  11.220  21.389  0.00  0.00    +0.000 HD
BRANCH  24  32
ATOM     28  C   UNL     1      -1.729  14.527  24.206  0.00  0.00    +0.000 A 
ATOM     29  C   UNL     1      -3.041  14.510  24.690  0.00  0.00    +0.000 A 
ATOM     30  C   UNL     1      -3.880  13.442  24.385  0.00  0.00    +0.000 A 
ATOM     31  C   UNL     1      -3.416  12.393  23.591  0.00  0.00    +0.000 A 
ATOM     32  C   UNL     1      -2.109  12.397  23.096  0.00  0.00    +0.000 A 
ATOM     33  C   UNL     1      -1.263  13.467  23.415  0.00  0.00    +0.000 A 
BRANCH  28  35
ATOM     34  N   UNL     1      -0.170  16.521  24.779  0.00  0.00    +0.000 NA
ATOM     35  C   UNL     1      -0.868  15.629  24.517  0.00  0.00    +0.000 C 
ENDBRANCH  28  35
ENDBRANCH  24  32
ENDBRANCH  23  25
ENDBRANCH  21  23
ENDBRANCH   1  21
TORSDOF 8
ENDMDL
MODEL 8
REMARK VINA RESULT:      -7.3      2.170      2.955
REMARK  Name = 
REMARK  8 active torsions:
REMARK  status: ('A' for Active; 'I' for Inactive)
REMARK    1  A    between atoms: C_2  and  C_3
REMARK    2  A    between atoms: C_7  and  N_8
REMARK    3  A    between atoms: C_9  and  C_11
REMARK    4  A    between atoms: C_11  and  N_12
REMARK    5  A    between atoms: N_12  and  C_13
REMARK    6  A    between atoms: C_15  and  S_16
REMARK    7  A    between atoms: S_16  and  N_19
REMARK    8  A    between atoms: C_27  and  N_28
REMARK                            x       y       z     vdW  Elec       q    Type
REMARK                         _______ _______ _______ _____ _____    ______ ____
ROOT
ATOM      1  C   UNL     1       1.257   8.708  19.873  0.00  0.00    +0.000 A 
ATOM      2  C   UNL     1       1.924   7.490  20.102  0.00  0.00    +0.000 A 
ATOM      3  C   UNL     1       2.668   6.874  19.102  0.00  0.00    +0.000 A 
ATOM      4  C   UNL     1       2.749   7.450  17.847  0.00  0.00    +0.000 A 
ATOM      5  C   UNL     1       2.169   8.712  17.639  0.00  0.00    +0.000 A 
ATOM      6  C   UNL     1       1.480   9.424  18.653  0.00  0.00    +0.000 A 
ENDROOT
BRANCH   6   7
ATOM      7  N   UNL     1       1.038  10.735  18.435  0.00  0.00    +0.000 N 
ATOM      8  C   UNL     1       1.858  11.918  18.728  0.00  0.00    +0.000 C 
ATOM      9  C   UNL     1       0.916  12.901  19.413  0.00  0.00    +0.000 C 
ATOM     10  C   UNL     1      -0.440  12.592  18.823  0.00  0.00    +0.000 C 
ATOM     11  C   UNL     1      -0.388  11.100  18.504  0.00  0.00    +0.000 C 
ENDBRANCH   6   7
BRANCH   3  12
ATOM     12  S   UNL     1       3.472   5.338  19.494  0.00  0.00    +0.000 S 
ATOM     13  O   UNL     1       4.894   5.580  19.402  0.00  0.00    +0.000 OA
ATOM     14  O   UNL     1       2.869   4.797  20.692  0.00  0.00    +0.000 OA
BRANCH  12  15
ATOM     15  N   UNL     1       2.987   4.382  18.181  0.00  0.00    +0.000 NA
ATOM     16  C   UNL     1       1.531   4.097  18.043  0.00  0.00    +0.000 C 
ATOM     17  C   UNL     1       1.142   2.828  18.813  0.00  0.00    +0.000 C 
ATOM     18  O   UNL     1       1.928   1.703  18.396  0.00  0.00    +0.000 OA
ATOM     19  C   UNL     1       3.331   1.942  18.594  0.00  0.00    +0.000 C 
ATOM     20  C   UNL     1       3.804   3.186  17.841  0.00  0.00    +0.000 C 
ENDBRANCH  12  15
ENDBRANCH   3  12
BRANCH   1  21
ATOM     21  N   UNL     1       0.364   9.200  20.829  0.00  0.00    +0.000 N 
ATOM     22  H   UNL     1      -0.341   8.514  21.089  0.00  0.00    +0.000 HD
BRANCH  21  23
ATOM     23  C   UNL     1       0.710  10.176  21.861  0.00  0.00    +0.000 C 
BRANCH  23  25
ATOM     24  N   UNL     1      -0.753  12.060  22.475  0.00  0.00    +0.000 N 
ATOM     25  C   UNL     1      -0.470  10.717  22.676  0.00  0.00    +0.000 C 
ATOM     26  O   UNL     1      -1.087   9.956  23.419  0.00  0.00    +0.000 OA
ATOM     27  H   UNL     1      -0.272  12.491  21.696  0.00  0.00    +0.000 HD
BRANCH  24  32
ATOM     28  C   UNL     1      -2.380  14.735  24.449  0.00  0.00    +0.000 A 
ATOM     29  C   UNL     1      -3.725  14.358  24.382  0.00  0.00    +0.000 A 
ATOM     30  C   UNL     1      -4.091  13.211  23.682  0.00  0.00    +0.000 A 
ATOM     31  C   UNL     1      -3.117  12.443  23.042  0.00  0.00    +0.000 A 
ATOM     32  C   UNL     1      -1.770  12.807  23.097  0.00  0.00    +0.000 A 
ATOM     33  C   UNL     1      -1.403  13.955  23.813  0.00  0.00    +0.000 A 
BRANCH  28  35
ATOM     34  N   UNL     1      -1.701  16.882  25.739  0.00  0.00    +0.000 NA
ATOM     35  C   UNL     1      -2.005  15.917  25.166  0.00  0.00    +0.000 C 
ENDBRANCH  28  35
ENDBRANCH  24  32
ENDBRANCH  23  25
ENDBRANCH  21  23
ENDBRANCH   1  21
TORSDOF 8
ENDMDL
MODEL 9
REMARK VINA RESULT:      -7.3      2.220      2.905
REMARK  Name = 
REMARK  8 active torsions:
REMARK  status: ('A' for Active; 'I' for Inactive)
REMARK    1  A    between atoms: C_2  and  C_3
REMARK    2  A    between atoms: C_7  and  N_8
REMARK    3  A    between atoms: C_9  and  C_11
REMARK    4  A    between atoms: C_11  and  N_12
REMARK    5  A    between atoms: N_12  and  C_13
REMARK    6  A    between atoms: C_15  and  S_16
REMARK    7  A    between atoms: S_16  and  N_19
REMARK    8  A    between atoms: C_27  and  N_28
REMARK                            x       y       z     vdW  Elec       q    Type
REMARK                         _______ _______ _______ _____ _____    ______ ____
ROOT
ATOM      1  C   UNL     1       0.674   8.796  20.533  0.00  0.00    +0.000 A 
ATOM      2  C   UNL     1       1.333   7.556  20.628  0.00  0.00    +0.000 A 
ATOM      3  C   UNL     1       2.141   7.085  19.599  0.00  0.00    +0.000 A 
ATOM      4  C   UNL     1       2.294   7.834  18.445  0.00  0.00    +0.000 A 
ATOM      5  C   UNL     1       1.720   9.114  18.383  0.00  0.00    +0.000 A 
ATOM      6  C   UNL     1       0.967   9.676  19.443  0.00  0.00    +0.000 A 
ENDROOT
BRANCH   6   7
ATOM      7  N   UNL     1       0.531  11.007  19.388  0.00  0.00    +0.000 N 
ATOM      8  C   UNL     1      -0.829  11.389  18.985  0.00  0.00    +0.000 C 
ATOM      9  C   UNL     1      -0.651  12.579  18.048  0.00  0.00    +0.000 C 
ATOM     10  C   UNL     1       0.608  13.255  18.537  0.00  0.00    +0.000 C 
ATOM     11  C   UNL     1       1.454  12.120  19.109  0.00  0.00    +0.000 C 
ENDBRANCH   6   7
BRANCH   3  12
ATOM     12  S   UNL     1       2.928   5.506  19.817  0.00  0.00    +0.000 S 
ATOM     13  O   UNL     1       4.345   5.721  19.625  0.00  0.00    +0.000 OA
ATOM     14  O   UNL     1       2.407   4.897  21.021  0.00  0.00    +0.000 OA
BRANCH  12  15
ATOM     15  N   UNL     1       2.311   4.658  18.486  0.00  0.00    +0.000 NA
ATOM     16  C   UNL     1       1.302   3.596  18.758  0.00  0.00    +0.000 C 
ATOM     17  C   UNL     1       1.979   2.243  19.014  0.00  0.00    +0.000 C 
ATOM     18  O   UNL     1       2.834   1.873  17.922  0.00  0.00    +0.000 OA
ATOM     19  C   UNL     1       3.855   2.858  17.699  0.00  0.00    +0.000 C 
ATOM     20  C   UNL     1       3.258   4.238  17.418  0.00  0.00    +0.000 C 
ENDBRANCH  12  15
ENDBRANCH   3  12
BRANCH   1  21
ATOM     21  N   UNL     1      -0.279   9.149  21.494  0.00  0.00    +0.000 N 
ATOM     22  H   UNL     1      -0.985   8.428  21.621  0.00  0.00    +0.000 HD
BRANCH  21  23
ATOM     23  C   UNL     1      -0.006   9.986  22.662  0.00  0.00    +0.000 C 
BRANCH  23  25
ATOM     24  N   UNL     1      -1.963  11.414  23.105  0.00  0.00    +0.000 N 
ATOM     25  C   UNL     1      -0.657  11.373  22.642  0.00  0.00    +0.000 C 
ATOM     26  O   UNL     1      -0.003  12.338  22.247  0.00  0.00    +0.000 OA
ATOM     27  H   UNL     1      -2.285  10.572  23.565  0.00  0.00    +0.000 HD
BRANCH  24  32
ATOM     28  C   UNL     1      -3.161  14.770  24.104  0.00  0.00    +0.000 A 
ATOM     29  C   UNL     1      -4.379  14.851  23.422  0.00  0.00    +0.000 A 
ATOM     30  C   UNL     1      -4.804  13.786  22.632  0.00  0.00    +0.000 A 
ATOM     31  C   UNL     1      -4.012  12.644  22.514  0.00  0.00    +0.000 A 
ATOM     32  C   UNL     1      -2.791  12.548  23.186  0.00  0.00    +0.000 A 
ATOM     33  C   UNL     1      -2.371  13.616  23.991  0.00  0.00    +0.000 A 
BRANCH  28  35
ATOM     34  N   UNL     1      -2.367  16.765  25.563  0.00  0.00    +0.000 NA
ATOM     35  C   UNL     1      -2.722  15.868  24.914  0.00  0.00    +0.000 C 
ENDBRANCH  28  35
ENDBRANCH  24  32
ENDBRANCH  23  25
ENDBRANCH  21  23
ENDBRANCH   1  21
TORSDOF 8
ENDMDL
