MODEL 1
REMARK VINA RESULT:      -4.7      0.000      0.000
REMARK  Name = 
REMARK  8 active torsions:
REMARK  status: ('A' for Active; 'I' for Inactive)
REMARK    1  A    between atoms: N_1  and  C_2
REMARK    2  A    between atoms: C_2  and  C_3
REMARK    3  A    between atoms: C_3  and  S_4
REMARK    4  A    between atoms: S_4  and  C_7
REMARK    5  A    between atoms: C_7  and  C_8
REMARK    6  A    between atoms: C_8  and  N_9
REMARK    7  A    between atoms: C_8  and  C_10
REMARK    8  A    between atoms: C_10  and  O_12
REMARK                            x       y       z     vdW  Elec       q    Type
REMARK                         _______ _______ _______ _____ _____    ______ ____
ROOT
ATOM      1  C   UNK     1       3.592   3.353  19.744  0.00  0.00    +0.000 C 
ENDROOT
BRANCH   1   2
ATOM      2  S   UNK     1       3.473   4.203  18.179  0.00  0.00    +0.000 S 
ATOM      3  O   UNK     1       2.144   4.754  18.059  0.00  0.00    +0.000 OA
ATOM      4  O   UNK     1       3.977   3.304  17.154  0.00  0.00    +0.000 OA
BRANCH   2   5
ATOM      5  C   UNK     1       4.626   5.557  18.344  0.00  0.00    +0.000 C 
BRANCH   5   6
ATOM      6  C   UNK     1       5.860   5.107  19.109  0.00  0.00    +0.000 C 
BRANCH   6   7
ATOM      7  N   UNK     1       6.717   4.268  18.269  0.00  0.00    +0.000 NA
ATOM      8  H   UNK     1       6.624   3.296  18.567  0.00  0.00    +0.000 HD
ATOM      9  H   UNK     1       7.698   4.509  18.419  0.00  0.00    +0.000 HD
ENDBRANCH   6   7
ENDBRANCH   5   6
ENDBRANCH   2   5
ENDBRANCH   1   2
BRANCH   1  10
ATOM     10  C   UNK     1       2.475   2.331  19.947  0.00  0.00    +0.000 C 
BRANCH  10  11
ATOM     11  N   UNK     1       1.902   1.832  18.680  0.00  0.00    +0.000 NA
ATOM     12  H   UNK     1       1.341   0.984  18.800  0.00  0.00    +0.000 HD
ATOM     13  H   UNK     1       2.595   1.742  17.940  0.00  0.00    +0.000 HD
ENDBRANCH  10  11
BRANCH  10  14
ATOM     14  C   UNK     1       1.411   2.840  20.930  0.00  0.00    +0.000 C 
ATOM     15  O   UNK     1       1.399   2.536  22.114  0.00  0.00    +0.000 OA
BRANCH  14  16
ATOM     16  O   UNK     1       0.456   3.614  20.368  0.00  0.00    +0.000 OA
ATOM     17  H   UNK     1       0.768   4.043  19.551  0.00  0.00    +0.000 HD
ENDBRANCH  14  16
ENDBRANCH  10  14
ENDBRANCH   1  10
TORSDOF 8
ENDMDL
MODEL 2
REMARK VINA RESULT:      -4.7      2.730      5.478
REMARK  Name = 
REMARK  8 active torsions:
REMARK  status: ('A' for Active; 'I' for Inactive)
REMARK    1  A    between atoms: N_1  and  C_2
REMARK    2  A    between atoms: C_2  and  C_3
REMARK    3  A    between atoms: C_3  and  S_4
REMARK    4  A    between atoms: S_4  and  C_7
REMARK    5  A    between atoms: C_7  and  C_8
REMARK    6  A    between atoms: C_8  and  N_9
REMARK    7  A    between atoms: C_8  and  C_10
REMARK    8  A    between atoms: C_10  and  O_12
REMARK                            x       y       z     vdW  Elec       q    Type
REMARK                         _______ _______ _______ _____ _____    ______ ____
ROOT
ATOM      1  C   UNK     1       5.130   3.975  16.989  0.00  0.00    +0.000 C 
ENDROOT
BRANCH   1   2
ATOM      2  S   UNK     1       4.568   4.260  18.658  0.00  0.00    +0.000 S 
ATOM      3  O   UNK     1       4.805   5.645  18.990  0.00  0.00    +0.000 OA
ATOM      4  O   UNK     1       5.129   3.212  19.494  0.00  0.00    +0.000 OA
BRANCH   2   5
ATOM      5  C   UNK     1       2.802   4.006  18.560  0.00  0.00    +0.000 C 
BRANCH   5   6
ATOM      6  C   UNK     1       2.490   2.840  17.635  0.00  0.00    +0.000 C 
BRANCH   6   7
ATOM      7  N   UNK     1       2.724   1.562  18.310  0.00  0.00    +0.000 NA
ATOM      8  H   UNK     1       2.764   1.722  19.319  0.00  0.00    +0.000 HD
ATOM      9  H   UNK     1       3.641   1.193  18.055  0.00  0.00    +0.000 HD
ENDBRANCH   6   7
ENDBRANCH   5   6
ENDBRANCH   2   5
ENDBRANCH   1   2
BRANCH   1  10
ATOM     10  C   UNK     1       6.615   4.285  16.805  0.00  0.00    +0.000 C 
BRANCH  10  11
ATOM     11  N   UNK     1       7.361   4.346  18.078  0.00  0.00    +0.000 NA
ATOM     12  H   UNK     1       7.120   5.164  18.645  0.00  0.00    +0.000 HD
ATOM     13  H   UNK     1       8.365   4.237  17.955  0.00  0.00    +0.000 HD
ENDBRANCH  10  11
BRANCH  10  14
ATOM     14  C   UNK     1       6.831   5.521  15.920  0.00  0.00    +0.000 C 
ATOM     15  O   UNK     1       7.608   5.537  14.977  0.00  0.00    +0.000 OA
BRANCH  14  16
ATOM     16  O   UNK     1       6.126   6.610  16.300  0.00  0.00    +0.000 OA
ATOM     17  H   UNK     1       6.673   7.241  16.803  0.00  0.00    +0.000 HD
ENDBRANCH  14  16
ENDBRANCH  10  14
ENDBRANCH   1  10
TORSDOF 8
ENDMDL
MODEL 3
REMARK VINA RESULT:      -4.7      2.285      3.840
REMARK  Name = 
REMARK  8 active torsions:
REMARK  status: ('A' for Active; 'I' for Inactive)
REMARK    1  A    between atoms: N_1  and  C_2
REMARK    2  A    between atoms: C_2  and  C_3
REMARK    3  A    between atoms: C_3  and  S_4
REMARK    4  A    between atoms: S_4  and  C_7
REMARK    5  A    between atoms: C_7  and  C_8
REMARK    6  A    between atoms: C_8  and  N_9
REMARK    7  A    between atoms: C_8  and  C_10
REMARK    8  A    between atoms: C_10  and  O_12
REMARK                            x       y       z     vdW  Elec       q    Type
REMARK                         _______ _______ _______ _____ _____    ______ ____
ROOT
ATOM      1  C   UNK     1       3.560   3.413  17.798  0.00  0.00    +0.000 C 
ENDROOT
BRANCH   1   2
ATOM      2  S   UNK     1       1.836   3.410  18.260  0.00  0.00    +0.000 S 
ATOM      3  O   UNK     1       1.417   2.041  18.451  0.00  0.00    +0.000 OA
ATOM      4  O   UNK     1       1.128   4.256  17.313  0.00  0.00    +0.000 OA
BRANCH   2   5
ATOM      5  C   UNK     1       1.822   4.224  19.850  0.00  0.00    +0.000 C 
BRANCH   5   6
ATOM      6  C   UNK     1       1.270   3.289  20.914  0.00  0.00    +0.000 C 
BRANCH   6   7
ATOM      7  N   UNK     1       2.260   3.056  21.967  0.00  0.00    +0.000 NA
ATOM      8  H   UNK     1       2.649   2.118  21.855  0.00  0.00    +0.000 HD
ATOM      9  H   UNK     1       1.807   3.058  22.881  0.00  0.00    +0.000 HD
ENDBRANCH   6   7
ENDBRANCH   5   6
ENDBRANCH   2   5
ENDBRANCH   1   2
BRANCH   1  10
ATOM     10  C   UNK     1       4.494   3.351  19.006  0.00  0.00    +0.000 C 
BRANCH  10  11
ATOM     11  N   UNK     1       5.817   3.957  18.753  0.00  0.00    +0.000 NA
ATOM     12  H   UNK     1       5.988   4.794  19.317  0.00  0.00    +0.000 HD
ATOM     13  H   UNK     1       6.002   4.106  17.764  0.00  0.00    +0.000 HD
ENDBRANCH  10  11
BRANCH  10  14
ATOM     14  C   UNK     1       4.582   1.931  19.583  0.00  0.00    +0.000 C 
ATOM     15  O   UNK     1       4.928   1.699  20.732  0.00  0.00    +0.000 OA
BRANCH  14  16
ATOM     16  O   UNK     1       4.293   0.949  18.699  0.00  0.00    +0.000 OA
ATOM     17  H   UNK     1       3.678   0.292  19.073  0.00  0.00    +0.000 HD
ENDBRANCH  14  16
ENDBRANCH  10  14
ENDBRANCH   1  10
TORSDOF 8
ENDMDL
MODEL 4
REMARK VINA RESULT:      -4.6      2.858      5.257
REMARK  Name = 
REMARK  8 active torsions:
REMARK  status: ('A' for Active; 'I' for Inactive)
REMARK    1  A    between atoms: N_1  and  C_2
REMARK    2  A    between atoms: C_2  and  C_3
REMARK    3  A    between atoms: C_3  and  S_4
REMARK    4  A    between atoms: S_4  and  C_7
REMARK    5  A    between atoms: C_7  and  C_8
REMARK    6  A    between atoms: C_8  and  N_9
REMARK    7  A    between atoms: C_8  and  C_10
REMARK    8  A    between atoms: C_10  and  O_12
REMARK                            x       y       z     vdW  Elec       q    Type
REMARK                         _______ _______ _______ _____ _____    ______ ____
ROOT
ATOM      1  C   UNK     1       5.635   5.657  17.957  0.00  0.00    +0.000 C 
ENDROOT
BRANCH   1   2
ATOM      2  S   UNK     1       4.710   4.162  18.261  0.00  0.00    +0.000 S 
ATOM      3  O   UNK     1       5.283   3.494  19.406  0.00  0.00    +0.000 OA
ATOM      4  O   UNK     1       4.593   3.455  16.996  0.00  0.00    +0.000 OA
BRANCH   2   5
ATOM      5  C   UNK     1       3.087   4.753  18.717  0.00  0.00    +0.000 C 
BRANCH   5   6
ATOM      6  C   UNK     1       2.056   4.300  17.694  0.00  0.00    +0.000 C 
BRANCH   6   7
ATOM      7  N   UNK     1       1.793   2.865  17.820  0.00  0.00    +0.000 NA
ATOM      8  H   UNK     1       2.562   2.431  18.335  0.00  0.00    +0.000 HD
ATOM      9  H   UNK     1       1.797   2.426  16.899  0.00  0.00    +0.000 HD
ENDBRANCH   6   7
ENDBRANCH   5   6
ENDBRANCH   2   5
ENDBRANCH   1   2
BRANCH   1  10
ATOM     10  C   UNK     1       7.145   5.421  17.930  0.00  0.00    +0.000 C 
BRANCH  10  11
ATOM     11  N   UNK     1       7.513   4.025  17.620  0.00  0.00    +0.000 NA
ATOM     12  H   UNK     1       8.464   3.786  17.914  0.00  0.00    +0.000 HD
ATOM     13  H   UNK     1       7.327   3.771  16.652  0.00  0.00    +0.000 HD
ENDBRANCH  10  11
BRANCH  10  14
ATOM     14  C   UNK     1       7.826   5.956  19.198  0.00  0.00    +0.000 C 
ATOM     15  O   UNK     1       7.756   5.392  20.280  0.00  0.00    +0.000 OA
BRANCH  14  16
ATOM     16  O   UNK     1       8.470   7.133  19.032  0.00  0.00    +0.000 OA
ATOM     17  H   UNK     1       8.374   7.476  18.126  0.00  0.00    +0.000 HD
ENDBRANCH  14  16
ENDBRANCH  10  14
ENDBRANCH   1  10
TORSDOF 8
ENDMDL
MODEL 5
REMARK VINA RESULT:      -4.6      2.321      4.374
REMARK  Name = 
REMARK  8 active torsions:
REMARK  status: ('A' for Active; 'I' for Inactive)
REMARK    1  A    between atoms: N_1  and  C_2
REMARK    2  A    between atoms: C_2  and  C_3
REMARK    3  A    between atoms: C_3  and  S_4
REMARK    4  A    between atoms: S_4  and  C_7
REMARK    5  A    between atoms: C_7  and  C_8
REMARK    6  A    between atoms: C_8  and  N_9
REMARK    7  A    between atoms: C_8  and  C_10
REMARK    8  A    between atoms: C_10  and  O_12
REMARK                            x       y       z     vdW  Elec       q    Type
REMARK                         _______ _______ _______ _____ _____    ______ ____
ROOT
ATOM      1  C   UNK     1       2.999   4.573  19.092  0.00  0.00    +0.000 C 
ENDROOT
BRANCH   1   2
ATOM      2  S   UNK     1       1.956   3.332  18.346  0.00  0.00    +0.000 S 
ATOM      3  O   UNK     1       2.776   2.195  17.998  0.00  0.00    +0.000 OA
ATOM      4  O   UNK     1       1.160   3.988  17.322  0.00  0.00    +0.000 OA
BRANCH   2   5
ATOM      5  C   UNK     1       0.863   2.845  19.671  0.00  0.00    +0.000 C 
BRANCH   5   6
ATOM      6  C   UNK     1       1.274   3.524  20.968  0.00  0.00    +0.000 C 
BRANCH   6   7
ATOM      7  N   UNK     1       1.631   2.532  21.984  0.00  0.00    +0.000 NA
ATOM      8  H   UNK     1       2.376   1.936  21.619  0.00  0.00    +0.000 HD
ATOM      9  H   UNK     1       0.842   1.910  22.160  0.00  0.00    +0.000 HD
ENDBRANCH   6   7
ENDBRANCH   5   6
ENDBRANCH   2   5
ENDBRANCH   1   2
BRANCH   1  10
ATOM     10  C   UNK     1       4.280   4.823  18.297  0.00  0.00    +0.000 C 
BRANCH  10  11
ATOM     11  N   UNK     1       4.173   4.429  16.878  0.00  0.00    +0.000 NA
ATOM     12  H   UNK     1       3.725   5.143  16.296  0.00  0.00    +0.000 HD
ATOM     13  H   UNK     1       3.762   3.507  16.752  0.00  0.00    +0.000 HD
ENDBRANCH  10  11
BRANCH  10  14
ATOM     14  C   UNK     1       5.509   4.225  18.998  0.00  0.00    +0.000 C 
ATOM     15  O   UNK     1       6.554   4.840  19.149  0.00  0.00    +0.000 OA
BRANCH  14  16
ATOM     16  O   UNK     1       5.357   2.941  19.392  0.00  0.00    +0.000 OA
ATOM     17  H   UNK     1       5.900   2.330  18.861  0.00  0.00    +0.000 HD
ENDBRANCH  14  16
ENDBRANCH  10  14
ENDBRANCH   1  10
TORSDOF 8
ENDMDL
MODEL 6
REMARK VINA RESULT:      -4.5      2.833      3.355
REMARK  Name = 
REMARK  8 active torsions:
REMARK  status: ('A' for Active; 'I' for Inactive)
REMARK    1  A    between atoms: N_1  and  C_2
REMARK    2  A    between atoms: C_2  and  C_3
REMARK    3  A    between atoms: C_3  and  S_4
REMARK    4  A    between atoms: S_4  and  C_7
REMARK    5  A    between atoms: C_7  and  C_8
REMARK    6  A    between atoms: C_8  and  N_9
REMARK    7  A    between atoms: C_8  and  C_10
REMARK    8  A    between atoms: C_10  and  O_12
REMARK                            x       y       z     vdW  Elec       q    Type
REMARK                         _______ _______ _______ _____ _____    ______ ____
ROOT
ATOM      1  C   UNK     1       4.910   3.976  16.813  0.00  0.00    +0.000 C 
ENDROOT
BRANCH   1   2
ATOM      2  S   UNK     1       5.594   5.620  16.934  0.00  0.00    +0.000 S 
ATOM      3  O   UNK     1       4.964   6.296  18.043  0.00  0.00    +0.000 OA
ATOM      4  O   UNK     1       5.548   6.212  15.607  0.00  0.00    +0.000 OA
BRANCH   2   5
ATOM      5  C   UNK     1       7.306   5.336  17.355  0.00  0.00    +0.000 C 
BRANCH   5   6
ATOM      6  C   UNK     1       7.668   6.090  18.625  0.00  0.00    +0.000 C 
BRANCH   6   7
ATOM      7  N   UNK     1       7.222   5.357  19.811  0.00  0.00    +0.000 NA
ATOM      8  H   UNK     1       8.033   5.151  20.398  0.00  0.00    +0.000 HD
ATOM      9  H   UNK     1       6.841   4.450  19.541  0.00  0.00    +0.000 HD
ENDBRANCH   6   7
ENDBRANCH   5   6
ENDBRANCH   2   5
ENDBRANCH   1   2
BRANCH   1  10
ATOM     10  C   UNK     1       4.213   3.531  18.098  0.00  0.00    +0.000 C 
BRANCH  10  11
ATOM     11  N   UNK     1       5.154   3.150  19.171  0.00  0.00    +0.000 NA
ATOM     12  H   UNK     1       5.360   2.147  19.186  0.00  0.00    +0.000 HD
ATOM     13  H   UNK     1       4.880   3.506  20.084  0.00  0.00    +0.000 HD
ENDBRANCH  10  11
BRANCH  10  14
ATOM     14  C   UNK     1       3.146   2.462  17.824  0.00  0.00    +0.000 C 
ATOM     15  O   UNK     1       2.114   2.693  17.211  0.00  0.00    +0.000 OA
BRANCH  14  16
ATOM     16  O   UNK     1       3.417   1.251  18.361  0.00  0.00    +0.000 OA
ATOM     17  H   UNK     1       4.287   1.233  18.799  0.00  0.00    +0.000 HD
ENDBRANCH  14  16
ENDBRANCH  10  14
ENDBRANCH   1  10
TORSDOF 8
ENDMDL
MODEL 7
REMARK VINA RESULT:      -4.5      2.593      5.336
REMARK  Name = 
REMARK  8 active torsions:
REMARK  status: ('A' for Active; 'I' for Inactive)
REMARK    1  A    between atoms: N_1  and  C_2
REMARK    2  A    between atoms: C_2  and  C_3
REMARK    3  A    between atoms: C_3  and  S_4
REMARK    4  A    between atoms: S_4  and  C_7
REMARK    5  A    between atoms: C_7  and  C_8
REMARK    6  A    between atoms: C_8  and  N_9
REMARK    7  A    between atoms: C_8  and  C_10
REMARK    8  A    between atoms: C_10  and  O_12
REMARK                            x       y       z     vdW  Elec       q    Type
REMARK                         _______ _______ _______ _____ _____    ______ ____
ROOT
ATOM      1  C   UNK     1       5.058   5.546  16.984  0.00  0.00    +0.000 C 
ENDROOT
BRANCH   1   2
ATOM      2  S   UNK     1       3.858   5.136  18.240  0.00  0.00    +0.000 S 
ATOM      3  O   UNK     1       2.635   5.846  17.953  0.00  0.00    +0.000 OA
ATOM      4  O   UNK     1       4.504   5.302  19.532  0.00  0.00    +0.000 OA
BRANCH   2   5
ATOM      5  C   UNK     1       3.562   3.392  17.989  0.00  0.00    +0.000 C 
BRANCH   5   6
ATOM      6  C   UNK     1       3.686   2.643  19.306  0.00  0.00    +0.000 C 
BRANCH   6   7
ATOM      7  N   UNK     1       5.092   2.479  19.681  0.00  0.00    +0.000 NA
ATOM      8  H   UNK     1       5.555   3.389  19.641  0.00  0.00    +0.000 HD
ATOM      9  H   UNK     1       5.573   1.897  18.994  0.00  0.00    +0.000 HD
ENDBRANCH   6   7
ENDBRANCH   5   6
ENDBRANCH   2   5
ENDBRANCH   1   2
BRANCH   1  10
ATOM     10  C   UNK     1       6.048   4.411  16.721  0.00  0.00    +0.000 C 
BRANCH  10  11
ATOM     11  N   UNK     1       7.021   4.220  17.815  0.00  0.00    +0.000 NA
ATOM     12  H   UNK     1       7.236   3.235  17.993  0.00  0.00    +0.000 HD
ATOM     13  H   UNK     1       6.770   4.725  18.662  0.00  0.00    +0.000 HD
ENDBRANCH  10  11
BRANCH  10  14
ATOM     14  C   UNK     1       6.709   4.544  15.342  0.00  0.00    +0.000 C 
ATOM     15  O   UNK     1       6.480   3.778  14.417  0.00  0.00    +0.000 OA
BRANCH  14  16
ATOM     16  O   UNK     1       7.607   5.551  15.247  0.00  0.00    +0.000 OA
ATOM     17  H   UNK     1       7.905   5.857  16.122  0.00  0.00    +0.000 HD
ENDBRANCH  14  16
ENDBRANCH  10  14
ENDBRANCH   1  10
TORSDOF 8
ENDMDL
MODEL 8
REMARK VINA RESULT:      -4.5      2.024      2.533
REMARK  Name = 
REMARK  8 active torsions:
REMARK  status: ('A' for Active; 'I' for Inactive)
REMARK    1  A    between atoms: N_1  and  C_2
REMARK    2  A    between atoms: C_2  and  C_3
REMARK    3  A    between atoms: C_3  and  S_4
REMARK    4  A    between atoms: S_4  and  C_7
REMARK    5  A    between atoms: C_7  and  C_8
REMARK    6  A    between atoms: C_8  and  N_9
REMARK    7  A    between atoms: C_8  and  C_10
REMARK    8  A    between atoms: C_10  and  O_12
REMARK                            x       y       z     vdW  Elec       q    Type
REMARK                         _______ _______ _______ _____ _____    ______ ____
ROOT
ATOM      1  C   UNK     1       3.916   4.262  19.489  0.00  0.00    +0.000 C 
ENDROOT
BRANCH   1   2
ATOM      2  S   UNK     1       5.063   4.427  18.131  0.00  0.00    +0.000 S 
ATOM      3  O   UNK     1       4.679   3.500  17.093  0.00  0.00    +0.000 OA
ATOM      4  O   UNK     1       6.406   4.375  18.685  0.00  0.00    +0.000 OA
BRANCH   2   5
ATOM      5  C   UNK     1       4.775   6.085  17.532  0.00  0.00    +0.000 C 
BRANCH   5   6
ATOM      6  C   UNK     1       5.395   6.262  16.155  0.00  0.00    +0.000 C 
BRANCH   6   7
ATOM      7  N   UNK     1       6.856   6.216  16.232  0.00  0.00    +0.000 NA
ATOM      8  H   UNK     1       7.154   6.614  17.125  0.00  0.00    +0.000 HD
ATOM      9  H   UNK     1       7.264   6.817  15.515  0.00  0.00    +0.000 HD
ENDBRANCH   6   7
ENDBRANCH   5   6
ENDBRANCH   2   5
ENDBRANCH   1   2
BRANCH   1  10
ATOM     10  C   UNK     1       3.732   2.811  19.933  0.00  0.00    +0.000 C 
BRANCH  10  11
ATOM     11  N   UNK     1       4.942   1.986  19.746  0.00  0.00    +0.000 NA
ATOM     12  H   UNK     1       5.047   1.260  20.461  0.00  0.00    +0.000 HD
ATOM     13  H   UNK     1       5.786   2.541  19.625  0.00  0.00    +0.000 HD
ENDBRANCH  10  11
BRANCH  10  14
ATOM     14  C   UNK     1       2.473   2.185  19.316  0.00  0.00    +0.000 C 
ATOM     15  O   UNK     1       1.371   2.255  19.839  0.00  0.00    +0.000 OA
BRANCH  14  16
ATOM     16  O   UNK     1       2.692   1.503  18.170  0.00  0.00    +0.000 OA
ATOM     17  H   UNK     1       1.873   1.110  17.817  0.00  0.00    +0.000 HD
ENDBRANCH  14  16
ENDBRANCH  10  14
ENDBRANCH   1  10
TORSDOF 8
ENDMDL
MODEL 9
REMARK VINA RESULT:      -4.5      2.266      4.778
REMARK  Name = 
REMARK  8 active torsions:
REMARK  status: ('A' for Active; 'I' for Inactive)
REMARK    1  A    between atoms: N_1  and  C_2
REMARK    2  A    between atoms: C_2  and  C_3
REMARK    3  A    between atoms: C_3  and  S_4
REMARK    4  A    between atoms: S_4  and  C_7
REMARK    5  A    between atoms: C_7  and  C_8
REMARK    6  A    between atoms: C_8  and  N_9
REMARK    7  A    between atoms: C_8  and  C_10
REMARK    8  A    between atoms: C_10  and  O_12
REMARK                            x       y       z     vdW  Elec       q    Type
REMARK                         _______ _______ _______ _____ _____    ______ ____
ROOT
ATOM      1  C   UNK     1       4.054   3.241  17.745  0.00  0.00    +0.000 C 
ENDROOT
BRANCH   1   2
ATOM      2  S   UNK     1       3.747   3.177  19.502  0.00  0.00    +0.000 S 
ATOM      3  O   UNK     1       3.631   4.529  19.995  0.00  0.00    +0.000 OA
ATOM      4  O   UNK     1       4.730   2.278  20.085  0.00  0.00    +0.000 OA
BRANCH   2   5
ATOM      5  C   UNK     1       2.144   2.399  19.624  0.00  0.00    +0.000 C 
BRANCH   5   6
ATOM      6  C   UNK     1       1.486   2.755  20.947  0.00  0.00    +0.000 C 
BRANCH   6   7
ATOM      7  N   UNK     1       2.467   2.752  22.034  0.00  0.00    +0.000 NA
ATOM      8  H   UNK     1       3.399   2.609  21.640  0.00  0.00    +0.000 HD
ATOM      9  H   UNK     1       2.305   1.955  22.651  0.00  0.00    +0.000 HD
ENDBRANCH   6   7
ENDBRANCH   5   6
ENDBRANCH   2   5
ENDBRANCH   1   2
BRANCH   1  10
ATOM     10  C   UNK     1       5.289   4.070  17.392  0.00  0.00    +0.000 C 
BRANCH  10  11
ATOM     11  N   UNK     1       6.279   4.139  18.486  0.00  0.00    +0.000 NA
ATOM     12  H   UNK     1       6.245   5.023  19.002  0.00  0.00    +0.000 HD
ATOM     13  H   UNK     1       7.220   3.897  18.185  0.00  0.00    +0.000 HD
ENDBRANCH  10  11
BRANCH  10  14
ATOM     14  C   UNK     1       4.907   5.449  16.837  0.00  0.00    +0.000 C 
ATOM     15  O   UNK     1       5.609   6.069  16.051  0.00  0.00    +0.000 OA
BRANCH  14  16
ATOM     16  O   UNK     1       3.750   5.948  17.328  0.00  0.00    +0.000 OA
ATOM     17  H   UNK     1       3.894   6.472  18.137  0.00  0.00    +0.000 HD
ENDBRANCH  14  16
ENDBRANCH  10  14
ENDBRANCH   1  10
TORSDOF 8
ENDMDL
