MODEL 1
REMARK VINA RESULT:      -9.1      0.000      0.000
REMARK  Name = 
REMARK  5 active torsions:
REMARK  status: ('A' for Active; 'I' for Inactive)
REMARK    1  A    between atoms: C_2  and  C_4
REMARK    2  A    between atoms: C_4  and  C_5
REMARK    3  A    between atoms: C_5  and  C_6
REMARK    4  A    between atoms: C_9  and  N_10
REMARK    5  A    between atoms: N_10  and  C_11
REMARK                            x       y       z     vdW  Elec       q    Type
REMARK                         _______ _______ _______ _____ _____    ______ ____
ROOT
ATOM      1  N   UNL     1       3.213   6.920  19.441  0.00  0.00    +0.000 N 
ATOM      2  H   UNL     1       3.177   6.560  20.399  0.00  0.00    +0.000 HD
ENDROOT
BRANCH   1   3
ATOM      3  C   UNL     1       3.264   5.791  18.536  0.00  0.00    +0.000 A 
ATOM      4  C   UNL     1       2.512   4.588  18.776  0.00  0.00    +0.000 A 
ATOM      5  C   UNL     1       1.489   4.371  19.736  0.00  0.00    +0.000 A 
ATOM      6  C   UNL     1       0.816   3.152  19.822  0.00  0.00    +0.000 A 
ATOM      7  C   UNL     1       1.073   2.165  18.884  0.00  0.00    +0.000 A 
ATOM      8  C   UNL     1       2.116   2.340  17.980  0.00  0.00    +0.000 A 
ATOM      9  C   UNL     1       2.903   3.481  18.013  0.00  0.00    +0.000 A 
ATOM     10  N   UNL     1       4.112   3.442  17.449  0.00  0.00    +0.000 NA
ATOM     11  C   UNL     1       4.840   4.562  17.485  0.00  0.00    +0.000 A 
ATOM     12  C   UNL     1       6.169   4.599  17.898  0.00  0.00    +0.000 A 
ATOM     13  C   UNL     1       6.897   5.795  17.901  0.00  0.00    +0.000 A 
ATOM     14  C   UNL     1       6.351   6.887  17.250  0.00  0.00    +0.000 A 
ATOM     15  C   UNL     1       4.992   6.862  16.995  0.00  0.00    +0.000 A 
ATOM     16  C   UNL     1       4.236   5.785  17.506  0.00  0.00    +0.000 A 
ENDBRANCH   1   3
BRANCH   1  20
ATOM     17  C   UNL     1       0.054   9.751  18.983  0.00  0.00    +0.000 A 
ATOM     18  C   UNL     1       0.370   9.225  20.240  0.00  0.00    +0.000 A 
ATOM     19  C   UNL     1       1.456   8.359  20.418  0.00  0.00    +0.000 A 
ATOM     20  C   UNL     1       2.233   7.956  19.332  0.00  0.00    +0.000 A 
ATOM     21  C   UNL     1       2.023   8.580  18.101  0.00  0.00    +0.000 A 
ATOM     22  C   UNL     1       0.914   9.436  17.916  0.00  0.00    +0.000 A 
BRANCH  17  23
ATOM     23  C   UNL     1      -1.169  10.646  18.768  0.00  0.00    +0.000 C 
BRANCH  23  24
ATOM     24  C   UNL     1      -2.182  10.115  17.743  0.00  0.00    +0.000 C 
BRANCH  24  26
ATOM     25  N   UNL     1      -3.774  11.916  17.153  0.00  0.00    +0.000 N 
ATOM     26  C   UNL     1      -2.818  11.040  16.737  0.00  0.00    +0.000 C 
ATOM     27  O   UNL     1      -2.602  10.930  15.527  0.00  0.00    +0.000 OA
ATOM     28  H   UNL     1      -4.176  12.500  16.442  0.00  0.00    +0.000 HD
ATOM     29  H   UNL     1      -3.871  12.218  18.124  0.00  0.00    +0.000 HD
ENDBRANCH  24  26
ENDBRANCH  23  24
ENDBRANCH  17  23
ENDBRANCH   1  20
TORSDOF 5
ENDMDL
MODEL 2
REMARK VINA RESULT:      -9.1      0.645      1.178
REMARK  Name = 
REMARK  5 active torsions:
REMARK  status: ('A' for Active; 'I' for Inactive)
REMARK    1  A    between atoms: C_2  and  C_4
REMARK    2  A    between atoms: C_4  and  C_5
REMARK    3  A    between atoms: C_5  and  C_6
REMARK    4  A    between atoms: C_9  and  N_10
REMARK    5  A    between atoms: N_10  and  C_11
REMARK                            x       y       z     vdW  Elec       q    Type
REMARK                         _______ _______ _______ _____ _____    ______ ____
ROOT
ATOM      1  N   UNL     1       3.262   6.759  19.451  0.00  0.00    +0.000 N 
ATOM      2  H   UNL     1       3.225   6.379  20.402  0.00  0.00    +0.000 HD
ENDROOT
BRANCH   1   3
ATOM      3  C   UNL     1       3.328   5.648  18.525  0.00  0.00    +0.000 A 
ATOM      4  C   UNL     1       2.577   4.438  18.731  0.00  0.00    +0.000 A 
ATOM      5  C   UNL     1       1.542   4.199  19.673  0.00  0.00    +0.000 A 
ATOM      6  C   UNL     1       0.872   2.977  19.726  0.00  0.00    +0.000 A 
ATOM      7  C   UNL     1       1.144   2.009  18.772  0.00  0.00    +0.000 A 
ATOM      8  C   UNL     1       2.200   2.205  17.886  0.00  0.00    +0.000 A 
ATOM      9  C   UNL     1       2.982   3.347  17.951  0.00  0.00    +0.000 A 
ATOM     10  N   UNL     1       4.199   3.324  17.403  0.00  0.00    +0.000 NA
ATOM     11  C   UNL     1       4.923   4.444  17.472  0.00  0.00    +0.000 A 
ATOM     12  C   UNL     1       6.245   4.478  17.902  0.00  0.00    +0.000 A 
ATOM     13  C   UNL     1       6.970   5.675  17.939  0.00  0.00    +0.000 A 
ATOM     14  C   UNL     1       6.429   6.779  17.302  0.00  0.00    +0.000 A 
ATOM     15  C   UNL     1       5.074   6.754  17.029  0.00  0.00    +0.000 A 
ATOM     16  C   UNL     1       4.314   5.665  17.508  0.00  0.00    +0.000 A 
ENDBRANCH   1   3
BRANCH   1  20
ATOM     17  C   UNL     1       0.552  10.052  19.338  0.00  0.00    +0.000 A 
ATOM     18  C   UNL     1       1.259   9.665  18.194  0.00  0.00    +0.000 A 
ATOM     19  C   UNL     1       2.088   8.536  18.195  0.00  0.00    +0.000 A 
ATOM     20  C   UNL     1       2.272   7.786  19.358  0.00  0.00    +0.000 A 
ATOM     21  C   UNL     1       1.468   8.072  20.462  0.00  0.00    +0.000 A 
ATOM     22  C   UNL     1       0.648   9.222  20.469  0.00  0.00    +0.000 A 
BRANCH  17  23
ATOM     23  C   UNL     1      -0.305  11.321  19.364  0.00  0.00    +0.000 C 
BRANCH  23  24
ATOM     24  C   UNL     1      -1.749  11.130  18.876  0.00  0.00    +0.000 C 
BRANCH  24  26
ATOM     25  N   UNL     1      -2.278  11.834  16.562  0.00  0.00    +0.000 N 
ATOM     26  C   UNL     1      -2.039  10.813  17.431  0.00  0.00    +0.000 C 
ATOM     27  O   UNL     1      -2.205   9.654  17.041  0.00  0.00    +0.000 OA
ATOM     28  H   UNL     1      -2.479  11.570  15.615  0.00  0.00    +0.000 HD
ATOM     29  H   UNL     1      -1.972  12.795  16.731  0.00  0.00    +0.000 HD
ENDBRANCH  24  26
ENDBRANCH  23  24
ENDBRANCH  17  23
ENDBRANCH   1  20
TORSDOF 5
ENDMDL
MODEL 3
REMARK VINA RESULT:      -9.0      1.409      3.787
REMARK  Name = 
REMARK  5 active torsions:
REMARK  status: ('A' for Active; 'I' for Inactive)
REMARK    1  A    between atoms: C_2  and  C_4
REMARK    2  A    between atoms: C_4  and  C_5
REMARK    3  A    between atoms: C_5  and  C_6
REMARK    4  A    between atoms: C_9  and  N_10
REMARK    5  A    between atoms: N_10  and  C_11
REMARK                            x       y       z     vdW  Elec       q    Type
REMARK                         _______ _______ _______ _____ _____    ______ ____
ROOT
ATOM      1  N   UNL     1       2.356   6.329  18.407  0.00  0.00    +0.000 N 
ATOM      2  H   UNL     1       2.443   6.324  17.387  0.00  0.00    +0.000 HD
ENDROOT
BRANCH   1   3
ATOM      3  C   UNL     1       3.499   5.633  18.960  0.00  0.00    +0.000 A 
ATOM      4  C   UNL     1       4.822   5.786  18.414  0.00  0.00    +0.000 A 
ATOM      5  C   UNL     1       5.271   6.737  17.459  0.00  0.00    +0.000 A 
ATOM      6  C   UNL     1       6.605   6.789  17.055  0.00  0.00    +0.000 A 
ATOM      7  C   UNL     1       7.537   5.971  17.674  0.00  0.00    +0.000 A 
ATOM      8  C   UNL     1       7.100   4.993  18.562  0.00  0.00    +0.000 A 
ATOM      9  C   UNL     1       5.750   4.823  18.828  0.00  0.00    +0.000 A 
ATOM     10  N   UNL     1       5.336   3.656  19.326  0.00  0.00    +0.000 NA
ATOM     11  C   UNL     1       4.032   3.529  19.583  0.00  0.00    +0.000 A 
ATOM     12  C   UNL     1       3.269   2.443  19.162  0.00  0.00    +0.000 A 
ATOM     13  C   UNL     1       1.907   2.345  19.472  0.00  0.00    +0.000 A 
ATOM     14  C   UNL     1       1.395   3.217  20.417  0.00  0.00    +0.000 A 
ATOM     15  C   UNL     1       2.125   4.359  20.691  0.00  0.00    +0.000 A 
ATOM     16  C   UNL     1       3.279   4.616  19.921  0.00  0.00    +0.000 A 
ENDBRANCH   1   3
BRANCH   1  20
ATOM     17  C   UNL     1       0.929  10.212  19.452  0.00  0.00    +0.000 A 
ATOM     18  C   UNL     1       1.054   9.209  20.420  0.00  0.00    +0.000 A 
ATOM     19  C   UNL     1       1.598   7.957  20.108  0.00  0.00    +0.000 A 
ATOM     20  C   UNL     1       1.992   7.654  18.803  0.00  0.00    +0.000 A 
ATOM     21  C   UNL     1       2.007   8.684  17.862  0.00  0.00    +0.000 A 
ATOM     22  C   UNL     1       1.438   9.940  18.170  0.00  0.00    +0.000 A 
BRANCH  17  23
ATOM     23  C   UNL     1       0.276  11.560  19.769  0.00  0.00    +0.000 C 
BRANCH  23  24
ATOM     24  C   UNL     1      -1.260  11.550  19.748  0.00  0.00    +0.000 C 
BRANCH  24  26
ATOM     25  N   UNL     1      -1.346  12.433  17.437  0.00  0.00    +0.000 N 
ATOM     26  C   UNL     1      -2.016  11.883  18.487  0.00  0.00    +0.000 C 
ATOM     27  O   UNL     1      -3.246  11.802  18.428  0.00  0.00    +0.000 OA
ATOM     28  H   UNL     1      -1.897  12.648  16.626  0.00  0.00    +0.000 HD
ATOM     29  H   UNL     1      -0.335  12.350  17.314  0.00  0.00    +0.000 HD
ENDBRANCH  24  26
ENDBRANCH  23  24
ENDBRANCH  17  23
ENDBRANCH   1  20
TORSDOF 5
ENDMDL
MODEL 4
REMARK VINA RESULT:      -9.0      1.542      1.861
REMARK  Name = 
REMARK  5 active torsions:
REMARK  status: ('A' for Active; 'I' for Inactive)
REMARK    1  A    between atoms: C_2  and  C_4
REMARK    2  A    between atoms: C_4  and  C_5
REMARK    3  A    between atoms: C_5  and  C_6
REMARK    4  A    between atoms: C_9  and  N_10
REMARK    5  A    between atoms: N_10  and  C_11
REMARK                            x       y       z     vdW  Elec       q    Type
REMARK                         _______ _______ _______ _____ _____    ______ ____
ROOT
ATOM      1  N   UNL     1       3.245   6.811  19.498  0.00  0.00    +0.000 N 
ATOM      2  H   UNL     1       3.355   6.422  20.439  0.00  0.00    +0.000 HD
ENDROOT
BRANCH   1   3
ATOM      3  C   UNL     1       3.274   5.715  18.552  0.00  0.00    +0.000 A 
ATOM      4  C   UNL     1       2.538   4.498  18.773  0.00  0.00    +0.000 A 
ATOM      5  C   UNL     1       1.548   4.239  19.757  0.00  0.00    +0.000 A 
ATOM      6  C   UNL     1       0.887   3.013  19.821  0.00  0.00    +0.000 A 
ATOM      7  C   UNL     1       1.119   2.062  18.840  0.00  0.00    +0.000 A 
ATOM      8  C   UNL     1       2.133   2.277  17.910  0.00  0.00    +0.000 A 
ATOM      9  C   UNL     1       2.912   3.422  17.958  0.00  0.00    +0.000 A 
ATOM     10  N   UNL     1       4.103   3.413  17.356  0.00  0.00    +0.000 NA
ATOM     11  C   UNL     1       4.824   4.536  17.409  0.00  0.00    +0.000 A 
ATOM     12  C   UNL     1       6.165   4.569  17.780  0.00  0.00    +0.000 A 
ATOM     13  C   UNL     1       6.885   5.770  17.803  0.00  0.00    +0.000 A 
ATOM     14  C   UNL     1       6.311   6.880  17.209  0.00  0.00    +0.000 A 
ATOM     15  C   UNL     1       4.945   6.852  16.996  0.00  0.00    +0.000 A 
ATOM     16  C   UNL     1       4.213   5.753  17.492  0.00  0.00    +0.000 A 
ENDBRANCH   1   3
BRANCH   1  20
ATOM     17  C   UNL     1       0.305   9.887  19.808  0.00  0.00    +0.000 A 
ATOM     18  C   UNL     1       0.961   9.641  18.597  0.00  0.00    +0.000 A 
ATOM     19  C   UNL     1       1.867   8.582  18.460  0.00  0.00    +0.000 A 
ATOM     20  C   UNL     1       2.180   7.763  19.546  0.00  0.00    +0.000 A 
ATOM     21  C   UNL     1       1.432   7.903  20.716  0.00  0.00    +0.000 A 
ATOM     22  C   UNL     1       0.534   8.985  20.863  0.00  0.00    +0.000 A 
BRANCH  17  23
ATOM     23  C   UNL     1      -0.638  11.080  19.986  0.00  0.00    +0.000 C 
BRANCH  23  24
ATOM     24  C   UNL     1       0.000  12.449  19.705  0.00  0.00    +0.000 C 
BRANCH  24  26
ATOM     25  N   UNL     1      -1.086  12.701  17.495  0.00  0.00    +0.000 N 
ATOM     26  C   UNL     1      -0.474  13.299  18.554  0.00  0.00    +0.000 C 
ATOM     27  O   UNL     1      -0.200  14.500  18.479  0.00  0.00    +0.000 OA
ATOM     28  H   UNL     1      -1.370  13.309  16.749  0.00  0.00    +0.000 HD
ATOM     29  H   UNL     1      -1.529  11.782  17.552  0.00  0.00    +0.000 HD
ENDBRANCH  24  26
ENDBRANCH  23  24
ENDBRANCH  17  23
ENDBRANCH   1  20
TORSDOF 5
ENDMDL
MODEL 5
REMARK VINA RESULT:      -9.0      1.122      3.673
REMARK  Name = 
REMARK  5 active torsions:
REMARK  status: ('A' for Active; 'I' for Inactive)
REMARK    1  A    between atoms: C_2  and  C_4
REMARK    2  A    between atoms: C_4  and  C_5
REMARK    3  A    between atoms: C_5  and  C_6
REMARK    4  A    between atoms: C_9  and  N_10
REMARK    5  A    between atoms: N_10  and  C_11
REMARK                            x       y       z     vdW  Elec       q    Type
REMARK                         _______ _______ _______ _____ _____    ______ ____
ROOT
ATOM      1  N   UNL     1       3.449   6.208  19.979  0.00  0.00    +0.000 N 
ATOM      2  H   UNL     1       3.206   5.858  20.910  0.00  0.00    +0.000 HD
ENDROOT
BRANCH   1   3
ATOM      3  C   UNL     1       3.724   5.070  19.127  0.00  0.00    +0.000 A 
ATOM      4  C   UNL     1       4.355   5.214  17.842  0.00  0.00    +0.000 A 
ATOM      5  C   UNL     1       4.984   6.366  17.300  0.00  0.00    +0.000 A 
ATOM      6  C   UNL     1       5.595   6.341  16.046  0.00  0.00    +0.000 A 
ATOM      7  C   UNL     1       5.687   5.141  15.358  0.00  0.00    +0.000 A 
ATOM      8  C   UNL     1       5.020   4.023  15.847  0.00  0.00    +0.000 A 
ATOM      9  C   UNL     1       4.262   4.096  17.005  0.00  0.00    +0.000 A 
ATOM     10  N   UNL     1       3.323   3.171  17.216  0.00  0.00    +0.000 NA
ATOM     11  C   UNL     1       2.618   3.261  18.348  0.00  0.00    +0.000 A 
ATOM     12  C   UNL     1       1.229   3.197  18.393  0.00  0.00    +0.000 A 
ATOM     13  C   UNL     1       0.535   3.279  19.607  0.00  0.00    +0.000 A 
ATOM     14  C   UNL     1       1.265   3.168  20.778  0.00  0.00    +0.000 A 
ATOM     15  C   UNL     1       2.627   3.387  20.701  0.00  0.00    +0.000 A 
ATOM     16  C   UNL     1       3.169   3.812  19.469  0.00  0.00    +0.000 A 
ENDBRANCH   1   3
BRANCH   1  20
ATOM     17  C   UNL     1       0.861   9.477  19.071  0.00  0.00    +0.000 A 
ATOM     18  C   UNL     1       1.571   8.821  18.060  0.00  0.00    +0.000 A 
ATOM     19  C   UNL     1       2.359   7.696  18.332  0.00  0.00    +0.000 A 
ATOM     20  C   UNL     1       2.498   7.219  19.636  0.00  0.00    +0.000 A 
ATOM     21  C   UNL     1       1.687   7.769  20.630  0.00  0.00    +0.000 A 
ATOM     22  C   UNL     1       0.909   8.918  20.361  0.00  0.00    +0.000 A 
BRANCH  17  23
ATOM     23  C   UNL     1       0.049  10.745  18.794  0.00  0.00    +0.000 C 
BRANCH  23  24
ATOM     24  C   UNL     1      -1.445  10.507  18.532  0.00  0.00    +0.000 C 
BRANCH  24  26
ATOM     25  N   UNL     1      -2.214  11.840  16.594  0.00  0.00    +0.000 N 
ATOM     26  C   UNL     1      -2.010  10.609  17.138  0.00  0.00    +0.000 C 
ATOM     27  O   UNL     1      -2.422   9.617  16.531  0.00  0.00    +0.000 OA
ATOM     28  H   UNL     1      -2.604  11.855  15.669  0.00  0.00    +0.000 HD
ATOM     29  H   UNL     1      -1.732  12.681  16.917  0.00  0.00    +0.000 HD
ENDBRANCH  24  26
ENDBRANCH  23  24
ENDBRANCH  17  23
ENDBRANCH   1  20
TORSDOF 5
ENDMDL
MODEL 6
REMARK VINA RESULT:      -8.8      2.034      2.419
REMARK  Name = 
REMARK  5 active torsions:
REMARK  status: ('A' for Active; 'I' for Inactive)
REMARK    1  A    between atoms: C_2  and  C_4
REMARK    2  A    between atoms: C_4  and  C_5
REMARK    3  A    between atoms: C_5  and  C_6
REMARK    4  A    between atoms: C_9  and  N_10
REMARK    5  A    between atoms: N_10  and  C_11
REMARK                            x       y       z     vdW  Elec       q    Type
REMARK                         _______ _______ _______ _____ _____    ______ ____
ROOT
ATOM      1  N   UNL     1       3.219   6.818  19.448  0.00  0.00    +0.000 N 
ATOM      2  H   UNL     1       3.184   6.451  20.404  0.00  0.00    +0.000 HD
ENDROOT
BRANCH   1   3
ATOM      3  C   UNL     1       3.316   5.696  18.537  0.00  0.00    +0.000 A 
ATOM      4  C   UNL     1       2.575   4.480  18.745  0.00  0.00    +0.000 A 
ATOM      5  C   UNL     1       1.525   4.241  19.670  0.00  0.00    +0.000 A 
ATOM      6  C   UNL     1       0.869   3.012  19.726  0.00  0.00    +0.000 A 
ATOM      7  C   UNL     1       1.170   2.035  18.790  0.00  0.00    +0.000 A 
ATOM      8  C   UNL     1       2.240   2.232  17.922  0.00  0.00    +0.000 A 
ATOM      9  C   UNL     1       3.007   3.385  17.987  0.00  0.00    +0.000 A 
ATOM     10  N   UNL     1       4.234   3.369  17.463  0.00  0.00    +0.000 NA
ATOM     11  C   UNL     1       4.944   4.499  17.530  0.00  0.00    +0.000 A 
ATOM     12  C   UNL     1       6.257   4.553  17.985  0.00  0.00    +0.000 A 
ATOM     13  C   UNL     1       6.967   5.760  18.020  0.00  0.00    +0.000 A 
ATOM     14  C   UNL     1       6.425   6.848  17.359  0.00  0.00    +0.000 A 
ATOM     15  C   UNL     1       5.076   6.804  17.060  0.00  0.00    +0.000 A 
ATOM     16  C   UNL     1       4.320   5.713  17.539  0.00  0.00    +0.000 A 
ENDBRANCH   1   3
BRANCH   1  20
ATOM     17  C   UNL     1       0.457  10.061  19.213  0.00  0.00    +0.000 A 
ATOM     18  C   UNL     1       1.039   9.529  18.058  0.00  0.00    +0.000 A 
ATOM     19  C   UNL     1       1.882   8.413  18.112  0.00  0.00    +0.000 A 
ATOM     20  C   UNL     1       2.207   7.821  19.334  0.00  0.00    +0.000 A 
ATOM     21  C   UNL     1       1.526   8.247  20.475  0.00  0.00    +0.000 A 
ATOM     22  C   UNL     1       0.692   9.387  20.425  0.00  0.00    +0.000 A 
BRANCH  17  23
ATOM     23  C   UNL     1      -0.414  11.320  19.171  0.00  0.00    +0.000 C 
BRANCH  23  24
ATOM     24  C   UNL     1       0.254  12.541  18.521  0.00  0.00    +0.000 C 
BRANCH  24  26
ATOM     25  N   UNL     1       2.568  12.698  17.655  0.00  0.00    +0.000 N 
ATOM     26  C   UNL     1       1.724  12.811  18.718  0.00  0.00    +0.000 C 
ATOM     27  O   UNL     1       2.205  12.995  19.839  0.00  0.00    +0.000 OA
ATOM     28  H   UNL     1       3.538  12.874  17.842  0.00  0.00    +0.000 HD
ATOM     29  H   UNL     1       2.254  12.753  16.684  0.00  0.00    +0.000 HD
ENDBRANCH  24  26
ENDBRANCH  23  24
ENDBRANCH  17  23
ENDBRANCH   1  20
TORSDOF 5
ENDMDL
MODEL 7
REMARK VINA RESULT:      -8.8      1.393      1.477
REMARK  Name = 
REMARK  5 active torsions:
REMARK  status: ('A' for Active; 'I' for Inactive)
REMARK    1  A    between atoms: C_2  and  C_4
REMARK    2  A    between atoms: C_4  and  C_5
REMARK    3  A    between atoms: C_5  and  C_6
REMARK    4  A    between atoms: C_9  and  N_10
REMARK    5  A    between atoms: N_10  and  C_11
REMARK                            x       y       z     vdW  Elec       q    Type
REMARK                         _______ _______ _______ _____ _____    ______ ____
ROOT
ATOM      1  N   UNL     1       3.169   6.847  19.576  0.00  0.00    +0.000 N 
ATOM      2  H   UNL     1       3.233   6.441  20.515  0.00  0.00    +0.000 HD
ENDROOT
BRANCH   1   3
ATOM      3  C   UNL     1       3.100   5.761  18.621  0.00  0.00    +0.000 A 
ATOM      4  C   UNL     1       2.350   4.561  18.884  0.00  0.00    +0.000 A 
ATOM      5  C   UNL     1       1.428   4.317  19.936  0.00  0.00    +0.000 A 
ATOM      6  C   UNL     1       0.741   3.108  20.037  0.00  0.00    +0.000 A 
ATOM      7  C   UNL     1       0.876   2.162  19.033  0.00  0.00    +0.000 A 
ATOM      8  C   UNL     1       1.823   2.361  18.034  0.00  0.00    +0.000 A 
ATOM      9  C   UNL     1       2.634   3.485  18.035  0.00  0.00    +0.000 A 
ATOM     10  N   UNL     1       3.777   3.452  17.346  0.00  0.00    +0.000 NA
ATOM     11  C   UNL     1       4.530   4.555  17.356  0.00  0.00    +0.000 A 
ATOM     12  C   UNL     1       5.895   4.549  17.627  0.00  0.00    +0.000 A 
ATOM     13  C   UNL     1       6.646   5.731  17.608  0.00  0.00    +0.000 A 
ATOM     14  C   UNL     1       6.060   6.862  17.068  0.00  0.00    +0.000 A 
ATOM     15  C   UNL     1       4.682   6.872  16.957  0.00  0.00    +0.000 A 
ATOM     16  C   UNL     1       3.959   5.787  17.495  0.00  0.00    +0.000 A 
ENDBRANCH   1   3
BRANCH   1  20
ATOM     17  C   UNL     1       0.041   9.748  19.560  0.00  0.00    +0.000 A 
ATOM     18  C   UNL     1       0.375   9.058  20.731  0.00  0.00    +0.000 A 
ATOM     19  C   UNL     1       1.452   8.165  20.771  0.00  0.00    +0.000 A 
ATOM     20  C   UNL     1       2.202   7.898  19.624  0.00  0.00    +0.000 A 
ATOM     21  C   UNL     1       1.976   8.679  18.490  0.00  0.00    +0.000 A 
ATOM     22  C   UNL     1       0.875   9.565  18.442  0.00  0.00    +0.000 A 
BRANCH  17  23
ATOM     23  C   UNL     1      -1.174  10.677  19.489  0.00  0.00    +0.000 C 
BRANCH  23  24
ATOM     24  C   UNL     1      -0.851  12.169  19.654  0.00  0.00    +0.000 C 
BRANCH  24  26
ATOM     25  N   UNL     1      -1.179  12.628  17.243  0.00  0.00    +0.000 N 
ATOM     26  C   UNL     1      -0.728  13.069  18.450  0.00  0.00    +0.000 C 
ATOM     27  O   UNL     1      -0.106  14.134  18.497  0.00  0.00    +0.000 OA
ATOM     28  H   UNL     1      -1.061  13.258  16.471  0.00  0.00    +0.000 HD
ATOM     29  H   UNL     1      -1.868  11.880  17.143  0.00  0.00    +0.000 HD
ENDBRANCH  24  26
ENDBRANCH  23  24
ENDBRANCH  17  23
ENDBRANCH   1  20
TORSDOF 5
ENDMDL
MODEL 8
REMARK VINA RESULT:      -8.8      2.568      4.405
REMARK  Name = 
REMARK  5 active torsions:
REMARK  status: ('A' for Active; 'I' for Inactive)
REMARK    1  A    between atoms: C_2  and  C_4
REMARK    2  A    between atoms: C_4  and  C_5
REMARK    3  A    between atoms: C_5  and  C_6
REMARK    4  A    between atoms: C_9  and  N_10
REMARK    5  A    between atoms: N_10  and  C_11
REMARK                            x       y       z     vdW  Elec       q    Type
REMARK                         _______ _______ _______ _____ _____    ______ ____
ROOT
ATOM      1  N   UNL     1       2.304   6.395  18.453  0.00  0.00    +0.000 N 
ATOM      2  H   UNL     1       2.411   6.446  17.435  0.00  0.00    +0.000 HD
ENDROOT
BRANCH   1   3
ATOM      3  C   UNL     1       3.428   5.653  18.986  0.00  0.00    +0.000 A 
ATOM      4  C   UNL     1       4.749   5.763  18.424  0.00  0.00    +0.000 A 
ATOM      5  C   UNL     1       5.220   6.703  17.470  0.00  0.00    +0.000 A 
ATOM      6  C   UNL     1       6.549   6.711  17.049  0.00  0.00    +0.000 A 
ATOM      7  C   UNL     1       7.459   5.855  17.651  0.00  0.00    +0.000 A 
ATOM      8  C   UNL     1       6.999   4.887  18.538  0.00  0.00    +0.000 A 
ATOM      9  C   UNL     1       5.647   4.764  18.820  0.00  0.00    +0.000 A 
ATOM     10  N   UNL     1       5.197   3.609  19.315  0.00  0.00    +0.000 NA
ATOM     11  C   UNL     1       3.892   3.527  19.588  0.00  0.00    +0.000 A 
ATOM     12  C   UNL     1       3.086   2.473  19.170  0.00  0.00    +0.000 A 
ATOM     13  C   UNL     1       1.726   2.422  19.497  0.00  0.00    +0.000 A 
ATOM     14  C   UNL     1       1.257   3.305  20.454  0.00  0.00    +0.000 A 
ATOM     15  C   UNL     1       2.031   4.417  20.726  0.00  0.00    +0.000 A 
ATOM     16  C   UNL     1       3.184   4.639  19.943  0.00  0.00    +0.000 A 
ENDBRANCH   1   3
BRANCH   1  20
ATOM     17  C   UNL     1       0.891  10.214  19.725  0.00  0.00    +0.000 A 
ATOM     18  C   UNL     1       1.107   9.185  20.648  0.00  0.00    +0.000 A 
ATOM     19  C   UNL     1       1.649   7.954  20.256  0.00  0.00    +0.000 A 
ATOM     20  C   UNL     1       1.948   7.699  18.917  0.00  0.00    +0.000 A 
ATOM     21  C   UNL     1       1.874   8.757  18.010  0.00  0.00    +0.000 A 
ATOM     22  C   UNL     1       1.307   9.992  18.400  0.00  0.00    +0.000 A 
BRANCH  17  23
ATOM     23  C   UNL     1       0.240  11.539  20.133  0.00  0.00    +0.000 C 
BRANCH  23  24
ATOM     24  C   UNL     1      -0.975  11.397  21.061  0.00  0.00    +0.000 C 
BRANCH  24  26
ATOM     25  N   UNL     1      -1.054  12.957  22.982  0.00  0.00    +0.000 N 
ATOM     26  C   UNL     1      -0.857  11.685  22.536  0.00  0.00    +0.000 C 
ATOM     27  O   UNL     1      -0.449  10.835  23.332  0.00  0.00    +0.000 OA
ATOM     28  H   UNL     1      -0.950  13.098  23.970  0.00  0.00    +0.000 HD
ATOM     29  H   UNL     1      -1.577  13.659  22.455  0.00  0.00    +0.000 HD
ENDBRANCH  24  26
ENDBRANCH  23  24
ENDBRANCH  17  23
ENDBRANCH   1  20
TORSDOF 5
ENDMDL
MODEL 9
REMARK VINA RESULT:      -8.8      2.322      2.753
REMARK  Name = 
REMARK  5 active torsions:
REMARK  status: ('A' for Active; 'I' for Inactive)
REMARK    1  A    between atoms: C_2  and  C_4
REMARK    2  A    between atoms: C_4  and  C_5
REMARK    3  A    between atoms: C_5  and  C_6
REMARK    4  A    between atoms: C_9  and  N_10
REMARK    5  A    between atoms: N_10  and  C_11
REMARK                            x       y       z     vdW  Elec       q    Type
REMARK                         _______ _______ _______ _____ _____    ______ ____
ROOT
ATOM      1  N   UNL     1       3.215   6.792  19.565  0.00  0.00    +0.000 N 
ATOM      2  H   UNL     1       3.345   6.383  20.495  0.00  0.00    +0.000 HD
ENDROOT
BRANCH   1   3
ATOM      3  C   UNL     1       3.231   5.718  18.594  0.00  0.00    +0.000 A 
ATOM      4  C   UNL     1       2.499   4.496  18.798  0.00  0.00    +0.000 A 
ATOM      5  C   UNL     1       1.523   4.215  19.790  0.00  0.00    +0.000 A 
ATOM      6  C   UNL     1       0.862   2.987  19.835  0.00  0.00    +0.000 A 
ATOM      7  C   UNL     1       1.081   2.058  18.830  0.00  0.00    +0.000 A 
ATOM      8  C   UNL     1       2.081   2.295  17.891  0.00  0.00    +0.000 A 
ATOM      9  C   UNL     1       2.861   3.439  17.954  0.00  0.00    +0.000 A 
ATOM     10  N   UNL     1       4.043   3.444  17.335  0.00  0.00    +0.000 NA
ATOM     11  C   UNL     1       4.765   4.566  17.403  0.00  0.00    +0.000 A 
ATOM     12  C   UNL     1       6.111   4.592  17.755  0.00  0.00    +0.000 A 
ATOM     13  C   UNL     1       6.831   5.792  17.795  0.00  0.00    +0.000 A 
ATOM     14  C   UNL     1       6.248   6.915  17.234  0.00  0.00    +0.000 A 
ATOM     15  C   UNL     1       4.880   6.891  17.041  0.00  0.00    +0.000 A 
ATOM     16  C   UNL     1       4.154   5.781  17.522  0.00  0.00    +0.000 A 
ENDBRANCH   1   3
BRANCH   1  20
ATOM     17  C   UNL     1       0.268   9.846  20.001  0.00  0.00    +0.000 A 
ATOM     18  C   UNL     1       0.905   9.634  18.774  0.00  0.00    +0.000 A 
ATOM     19  C   UNL     1       1.813   8.583  18.595  0.00  0.00    +0.000 A 
ATOM     20  C   UNL     1       2.147   7.738  19.654  0.00  0.00    +0.000 A 
ATOM     21  C   UNL     1       1.418   7.846  20.839  0.00  0.00    +0.000 A 
ATOM     22  C   UNL     1       0.518   8.919  21.029  0.00  0.00    +0.000 A 
BRANCH  17  23
ATOM     23  C   UNL     1      -0.676  11.031  20.225  0.00  0.00    +0.000 C 
BRANCH  23  24
ATOM     24  C   UNL     1      -0.226  12.014  21.315  0.00  0.00    +0.000 C 
BRANCH  24  26
ATOM     25  N   UNL     1      -1.256  13.225  23.213  0.00  0.00    +0.000 N 
ATOM     26  C   UNL     1      -0.900  12.031  22.664  0.00  0.00    +0.000 C 
ATOM     27  O   UNL     1      -1.011  11.009  23.347  0.00  0.00    +0.000 OA
ATOM     28  H   UNL     1      -1.688  13.184  24.118  0.00  0.00    +0.000 HD
ATOM     29  H   UNL     1      -1.391  14.075  22.662  0.00  0.00    +0.000 HD
ENDBRANCH  24  26
ENDBRANCH  23  24
ENDBRANCH  17  23
ENDBRANCH   1  20
TORSDOF 5
ENDMDL
