MODEL 1
REMARK VINA RESULT:      -8.8      0.000      0.000
REMARK  Name = 
REMARK  8 active torsions:
REMARK  status: ('A' for Active; 'I' for Inactive)
REMARK    1  A    between atoms: C_1  and  N_2
REMARK    2  A    between atoms: C_6  and  C_7
REMARK    3  A    between atoms: C_7  and  O_8
REMARK    4  A    between atoms: O_8  and  C_9
REMARK    5  A    between atoms: C_12  and  C_13
REMARK    6  A    between atoms: C_24  and  C_25
REMARK    7  A    between atoms: C_29  and  C_30
REMARK    8  A    between atoms: C_30  and  O_31
REMARK                            x       y       z     vdW  Elec       q    Type
REMARK                         _______ _______ _______ _____ _____    ______ ____
ROOT
ATOM      1  C   UNL     1       2.259   6.328  20.485  0.00  0.00    +0.000 A 
ATOM      2  N   UNL     1       1.438   7.325  20.816  0.00  0.00    +0.000 NA
ATOM      3  N   UNL     1       1.636   8.236  19.841  0.00  0.00    +0.000 N 
ATOM      4  C   UNL     1       0.991   9.472  19.757  0.00  0.00    +0.000 A 
ATOM      5  N   UNL     1       1.181  10.207  18.684  0.00  0.00    +0.000 NA
ATOM      6  N   UNL     1       2.059   9.787  17.658  0.00  0.00    +0.000 NA
ATOM      7  C   UNL     1       2.673   8.653  17.756  0.00  0.00    +0.000 A 
ATOM      8  C   UNL     1       2.462   7.783  18.863  0.00  0.00    +0.000 A 
ATOM      9  C   UNL     1       2.877   6.517  19.223  0.00  0.00    +0.000 A 
ENDROOT
BRANCH   4  10
ATOM     10  C   UNL     1       0.087  10.032  20.790  0.00  0.00    +0.000 A 
ATOM     11  C   UNL     1      -0.938  10.902  20.387  0.00  0.00    +0.000 A 
ATOM     12  C   UNL     1      -1.729  11.531  21.344  0.00  0.00    +0.000 A 
ATOM     13  C   UNL     1      -1.509  11.294  22.700  0.00  0.00    +0.000 A 
ATOM     14  C   UNL     1      -0.496  10.428  23.099  0.00  0.00    +0.000 A 
ATOM     15  C   UNL     1       0.307   9.810  22.147  0.00  0.00    +0.000 A 
ATOM     16  F   UNL     1       1.336   9.073  22.584  0.00  0.00    +0.000 F 
ENDBRANCH   4  10
BRANCH   9  17
ATOM     17  C   UNL     1       3.725   5.680  18.396  0.00  0.00    +0.000 A 
ATOM     18  C   UNL     1       3.144   4.884  17.394  0.00  0.00    +0.000 A 
ATOM     19  C   UNL     1       3.936   4.092  16.578  0.00  0.00    +0.000 A 
ATOM     20  C   UNL     1       5.301   4.053  16.765  0.00  0.00    +0.000 A 
ATOM     21  C   UNL     1       5.908   4.808  17.782  0.00  0.00    +0.000 A 
ATOM     22  C   UNL     1       5.108   5.635  18.586  0.00  0.00    +0.000 A 
BRANCH  21  23
ATOM     23  C   UNL     1       7.396   4.732  17.983  0.00  0.00    +0.000 C 
BRANCH  23  24
ATOM     24  O   UNL     1       8.011   4.113  16.863  0.00  0.00    +0.000 OA
ATOM     25  H   UNL     1       7.935   3.153  16.993  0.00  0.00    +0.000 HD
ENDBRANCH  23  24
ENDBRANCH  21  23
ENDBRANCH   9  17
BRANCH   1  26
ATOM     26  O   UNL     1       2.351   5.247  21.301  0.00  0.00    +0.000 OA
BRANCH  26  27
ATOM     27  C   UNL     1       1.515   4.159  20.880  0.00  0.00    +0.000 C 
BRANCH  27  33
ATOM     28  C   UNL     1       0.720   2.127  18.564  0.00  0.00    +0.000 C 
ATOM     29  N   UNL     1       1.990   2.261  19.230  0.00  0.00    +0.000 N 
ATOM     30  N   UNL     1       3.020   1.477  18.850  0.00  0.00    +0.000 NA
ATOM     31  C   UNL     1       3.994   1.904  19.653  0.00  0.00    +0.000 A 
ATOM     32  N   UNL     1       3.640   2.900  20.509  0.00  0.00    +0.000 NA
ATOM     33  C   UNL     1       2.372   3.132  20.218  0.00  0.00    +0.000 A 
ENDBRANCH  27  33
ENDBRANCH  26  27
ENDBRANCH   1  26
TORSDOF 7
ENDMDL
MODEL 2
REMARK VINA RESULT:      -8.7      0.914      1.238
REMARK  Name = 
REMARK  8 active torsions:
REMARK  status: ('A' for Active; 'I' for Inactive)
REMARK    1  A    between atoms: C_1  and  N_2
REMARK    2  A    between atoms: C_6  and  C_7
REMARK    3  A    between atoms: C_7  and  O_8
REMARK    4  A    between atoms: O_8  and  C_9
REMARK    5  A    between atoms: C_12  and  C_13
REMARK    6  A    between atoms: C_24  and  C_25
REMARK    7  A    between atoms: C_29  and  C_30
REMARK    8  A    between atoms: C_30  and  O_31
REMARK                            x       y       z     vdW  Elec       q    Type
REMARK                         _______ _______ _______ _____ _____    ______ ____
ROOT
ATOM      1  C   UNL     1       2.420   6.254  20.465  0.00  0.00    +0.000 A 
ATOM      2  N   UNL     1       1.641   7.257  20.873  0.00  0.00    +0.000 NA
ATOM      3  N   UNL     1       1.734   8.158  19.873  0.00  0.00    +0.000 N 
ATOM      4  C   UNL     1       1.086   9.395  19.848  0.00  0.00    +0.000 A 
ATOM      5  N   UNL     1       1.159  10.119  18.753  0.00  0.00    +0.000 NA
ATOM      6  N   UNL     1       1.919   9.687  17.642  0.00  0.00    +0.000 NA
ATOM      7  C   UNL     1       2.539   8.552  17.684  0.00  0.00    +0.000 A 
ATOM      8  C   UNL     1       2.448   7.694  18.816  0.00  0.00    +0.000 A 
ATOM      9  C   UNL     1       2.898   6.429  19.141  0.00  0.00    +0.000 A 
ENDROOT
BRANCH   4  10
ATOM     10  C   UNL     1       0.300   9.967  20.967  0.00  0.00    +0.000 A 
ATOM     11  C   UNL     1       0.372   9.348  22.225  0.00  0.00    +0.000 A 
ATOM     12  C   UNL     1      -0.440   9.793  23.264  0.00  0.00    +0.000 A 
ATOM     13  C   UNL     1      -1.318  10.857  23.060  0.00  0.00    +0.000 A 
ATOM     14  C   UNL     1      -1.385  11.474  21.815  0.00  0.00    +0.000 A 
ATOM     15  C   UNL     1      -0.587  11.022  20.770  0.00  0.00    +0.000 A 
ATOM     16  F   UNL     1      -0.767  11.576  19.564  0.00  0.00    +0.000 F 
ENDBRANCH   4  10
BRANCH   9  17
ATOM     17  C   UNL     1       3.649   5.582  18.235  0.00  0.00    +0.000 A 
ATOM     18  C   UNL     1       2.961   4.732  17.353  0.00  0.00    +0.000 A 
ATOM     19  C   UNL     1       3.658   3.929  16.464  0.00  0.00    +0.000 A 
ATOM     20  C   UNL     1       5.036   3.933  16.462  0.00  0.00    +0.000 A 
ATOM     21  C   UNL     1       5.754   4.744  17.356  0.00  0.00    +0.000 A 
ATOM     22  C   UNL     1       5.046   5.581  18.233  0.00  0.00    +0.000 A 
BRANCH  21  23
ATOM     23  C   UNL     1       7.257   4.714  17.351  0.00  0.00    +0.000 C 
BRANCH  23  24
ATOM     24  O   UNL     1       7.748   4.577  18.676  0.00  0.00    +0.000 OA
ATOM     25  H   UNL     1       8.182   5.416  18.905  0.00  0.00    +0.000 HD
ENDBRANCH  23  24
ENDBRANCH  21  23
ENDBRANCH   9  17
BRANCH   1  26
ATOM     26  O   UNL     1       2.599   5.181  21.277  0.00  0.00    +0.000 OA
BRANCH  26  27
ATOM     27  C   UNL     1       1.711   4.097  20.969  0.00  0.00    +0.000 C 
BRANCH  27  33
ATOM     28  C   UNL     1       0.690   2.133  18.683  0.00  0.00    +0.000 C 
ATOM     29  N   UNL     1       2.003   2.206  19.269  0.00  0.00    +0.000 N 
ATOM     30  N   UNL     1       2.975   1.386  18.815  0.00  0.00    +0.000 NA
ATOM     31  C   UNL     1       4.013   1.762  19.560  0.00  0.00    +0.000 A 
ATOM     32  N   UNL     1       3.756   2.758  20.449  0.00  0.00    +0.000 NA
ATOM     33  C   UNL     1       2.482   3.045  20.241  0.00  0.00    +0.000 A 
ENDBRANCH  27  33
ENDBRANCH  26  27
ENDBRANCH   1  26
TORSDOF 7
ENDMDL
MODEL 3
REMARK VINA RESULT:      -8.4      0.616      1.152
REMARK  Name = 
REMARK  8 active torsions:
REMARK  status: ('A' for Active; 'I' for Inactive)
REMARK    1  A    between atoms: C_1  and  N_2
REMARK    2  A    between atoms: C_6  and  C_7
REMARK    3  A    between atoms: C_7  and  O_8
REMARK    4  A    between atoms: O_8  and  C_9
REMARK    5  A    between atoms: C_12  and  C_13
REMARK    6  A    between atoms: C_24  and  C_25
REMARK    7  A    between atoms: C_29  and  C_30
REMARK    8  A    between atoms: C_30  and  O_31
REMARK                            x       y       z     vdW  Elec       q    Type
REMARK                         _______ _______ _______ _____ _____    ______ ____
ROOT
ATOM      1  C   UNL     1       2.427   6.089  20.326  0.00  0.00    +0.000 A 
ATOM      2  N   UNL     1       1.618   7.076  20.713  0.00  0.00    +0.000 NA
ATOM      3  N   UNL     1       1.795   8.021  19.767  0.00  0.00    +0.000 N 
ATOM      4  C   UNL     1       1.153   9.261  19.744  0.00  0.00    +0.000 A 
ATOM      5  N   UNL     1       1.317  10.033  18.693  0.00  0.00    +0.000 NA
ATOM      6  N   UNL     1       2.167   9.648  17.631  0.00  0.00    +0.000 NA
ATOM      7  C   UNL     1       2.779   8.509  17.672  0.00  0.00    +0.000 A 
ATOM      8  C   UNL     1       2.593   7.601  18.752  0.00  0.00    +0.000 A 
ATOM      9  C   UNL     1       3.013   6.321  19.056  0.00  0.00    +0.000 A 
ENDROOT
BRANCH   4  10
ATOM     10  C   UNL     1       0.278   9.786  20.820  0.00  0.00    +0.000 A 
ATOM     11  C   UNL     1      -0.770  10.652  20.472  0.00  0.00    +0.000 A 
ATOM     12  C   UNL     1      -1.535  11.250  21.469  0.00  0.00    +0.000 A 
ATOM     13  C   UNL     1      -1.267  10.985  22.811  0.00  0.00    +0.000 A 
ATOM     14  C   UNL     1      -0.231  10.122  23.156  0.00  0.00    +0.000 A 
ATOM     15  C   UNL     1       0.546   9.535  22.163  0.00  0.00    +0.000 A 
ATOM     16  F   UNL     1       1.598   8.801  22.548  0.00  0.00    +0.000 F 
ENDBRANCH   4  10
BRANCH   9  17
ATOM     17  C   UNL     1       3.835   5.512  18.177  0.00  0.00    +0.000 A 
ATOM     18  C   UNL     1       3.220   4.672  17.232  0.00  0.00    +0.000 A 
ATOM     19  C   UNL     1       3.986   3.906  16.368  0.00  0.00    +0.000 A 
ATOM     20  C   UNL     1       5.362   3.935  16.452  0.00  0.00    +0.000 A 
ATOM     21  C   UNL     1       6.006   4.735  17.410  0.00  0.00    +0.000 A 
ATOM     22  C   UNL     1       5.229   5.535  18.262  0.00  0.00    +0.000 A 
BRANCH  21  23
ATOM     23  C   UNL     1       7.507   4.733  17.499  0.00  0.00    +0.000 C 
BRANCH  23  24
ATOM     24  O   UNL     1       7.917   4.722  18.858  0.00  0.00    +0.000 OA
ATOM     25  H   UNL     1       8.887   4.662  18.860  0.00  0.00    +0.000 HD
ENDBRANCH  23  24
ENDBRANCH  21  23
ENDBRANCH   9  17
BRANCH   1  26
ATOM     26  O   UNL     1       2.536   4.978  21.100  0.00  0.00    +0.000 OA
BRANCH  26  27
ATOM     27  C   UNL     1       1.379   4.132  21.025  0.00  0.00    +0.000 C 
BRANCH  27  33
ATOM     28  C   UNL     1       4.034   2.462  20.488  0.00  0.00    +0.000 C 
ATOM     29  N   UNL     1       2.786   2.399  19.772  0.00  0.00    +0.000 N 
ATOM     30  N   UNL     1       2.651   1.522  18.756  0.00  0.00    +0.000 NA
ATOM     31  C   UNL     1       1.392   1.738  18.379  0.00  0.00    +0.000 A 
ATOM     32  N   UNL     1       0.733   2.691  19.090  0.00  0.00    +0.000 NA
ATOM     33  C   UNL     1       1.621   3.090  19.984  0.00  0.00    +0.000 A 
ENDBRANCH  27  33
ENDBRANCH  26  27
ENDBRANCH   1  26
TORSDOF 7
ENDMDL
MODEL 4
REMARK VINA RESULT:      -8.4      1.173      1.750
REMARK  Name = 
REMARK  8 active torsions:
REMARK  status: ('A' for Active; 'I' for Inactive)
REMARK    1  A    between atoms: C_1  and  N_2
REMARK    2  A    between atoms: C_6  and  C_7
REMARK    3  A    between atoms: C_7  and  O_8
REMARK    4  A    between atoms: O_8  and  C_9
REMARK    5  A    between atoms: C_12  and  C_13
REMARK    6  A    between atoms: C_24  and  C_25
REMARK    7  A    between atoms: C_29  and  C_30
REMARK    8  A    between atoms: C_30  and  O_31
REMARK                            x       y       z     vdW  Elec       q    Type
REMARK                         _______ _______ _______ _____ _____    ______ ____
ROOT
ATOM      1  C   UNL     1       2.595   6.230  20.219  0.00  0.00    +0.000 A 
ATOM      2  N   UNL     1       1.811   7.191  20.710  0.00  0.00    +0.000 NA
ATOM      3  N   UNL     1       1.830   8.138  19.749  0.00  0.00    +0.000 N 
ATOM      4  C   UNL     1       1.150   9.356  19.811  0.00  0.00    +0.000 A 
ATOM      5  N   UNL     1       1.150  10.129  18.748  0.00  0.00    +0.000 NA
ATOM      6  N   UNL     1       1.865   9.768  17.583  0.00  0.00    +0.000 NA
ATOM      7  C   UNL     1       2.515   8.651  17.543  0.00  0.00    +0.000 A 
ATOM      8  C   UNL     1       2.503   7.741  18.638  0.00  0.00    +0.000 A 
ATOM      9  C   UNL     1       3.001   6.477  18.883  0.00  0.00    +0.000 A 
ENDROOT
BRANCH   4  10
ATOM     10  C   UNL     1       0.407   9.856  20.992  0.00  0.00    +0.000 A 
ATOM     11  C   UNL     1       0.559   9.185  22.216  0.00  0.00    +0.000 A 
ATOM     12  C   UNL     1      -0.211   9.561  23.312  0.00  0.00    +0.000 A 
ATOM     13  C   UNL     1      -1.128  10.606  23.200  0.00  0.00    +0.000 A 
ATOM     14  C   UNL     1      -1.275  11.274  21.988  0.00  0.00    +0.000 A 
ATOM     15  C   UNL     1      -0.518  10.891  20.886  0.00  0.00    +0.000 A 
ATOM     16  F   UNL     1      -0.775  11.491  19.716  0.00  0.00    +0.000 F 
ENDBRANCH   4  10
BRANCH   9  17
ATOM     17  C   UNL     1       3.728   5.692  17.904  0.00  0.00    +0.000 A 
ATOM     18  C   UNL     1       3.111   4.573  17.319  0.00  0.00    +0.000 A 
ATOM     19  C   UNL     1       3.779   3.820  16.366  0.00  0.00    +0.000 A 
ATOM     20  C   UNL     1       5.070   4.145  16.008  0.00  0.00    +0.000 A 
ATOM     21  C   UNL     1       5.728   5.235  16.601  0.00  0.00    +0.000 A 
ATOM     22  C   UNL     1       5.038   6.015  17.542  0.00  0.00    +0.000 A 
BRANCH  21  23
ATOM     23  C   UNL     1       7.144   5.556  16.212  0.00  0.00    +0.000 C 
BRANCH  23  24
ATOM     24  O   UNL     1       7.487   6.863  16.647  0.00  0.00    +0.000 OA
ATOM     25  H   UNL     1       6.876   7.090  17.369  0.00  0.00    +0.000 HD
ENDBRANCH  23  24
ENDBRANCH  21  23
ENDBRANCH   9  17
BRANCH   1  26
ATOM     26  O   UNL     1       2.841   5.127  20.972  0.00  0.00    +0.000 OA
BRANCH  26  27
ATOM     27  C   UNL     1       1.663   4.348  21.219  0.00  0.00    +0.000 C 
BRANCH  27  33
ATOM     28  C   UNL     1       3.964   2.358  20.286  0.00  0.00    +0.000 C 
ATOM     29  N   UNL     1       2.608   2.432  19.809  0.00  0.00    +0.000 N 
ATOM     30  N   UNL     1       2.189   1.557  18.871  0.00  0.00    +0.000 NA
ATOM     31  C   UNL     1       0.915   1.915  18.717  0.00  0.00    +0.000 A 
ATOM     32  N   UNL     1       0.511   2.955  19.494  0.00  0.00    +0.000 NA
ATOM     33  C   UNL     1       1.588   3.263  20.197  0.00  0.00    +0.000 A 
ENDBRANCH  27  33
ENDBRANCH  26  27
ENDBRANCH   1  26
TORSDOF 7
ENDMDL
MODEL 5
REMARK VINA RESULT:      -8.3      3.789      6.411
REMARK  Name = 
REMARK  8 active torsions:
REMARK  status: ('A' for Active; 'I' for Inactive)
REMARK    1  A    between atoms: C_1  and  N_2
REMARK    2  A    between atoms: C_6  and  C_7
REMARK    3  A    between atoms: C_7  and  O_8
REMARK    4  A    between atoms: O_8  and  C_9
REMARK    5  A    between atoms: C_12  and  C_13
REMARK    6  A    between atoms: C_24  and  C_25
REMARK    7  A    between atoms: C_29  and  C_30
REMARK    8  A    between atoms: C_30  and  O_31
REMARK                            x       y       z     vdW  Elec       q    Type
REMARK                         _______ _______ _______ _____ _____    ______ ____
ROOT
ATOM      1  C   UNL     1      -0.220  10.497  19.278  0.00  0.00    +0.000 A 
ATOM      2  N   UNL     1      -0.773  11.276  20.208  0.00  0.00    +0.000 NA
ATOM      3  N   UNL     1      -0.384  10.710  21.369  0.00  0.00    +0.000 N 
ATOM      4  C   UNL     1      -0.724  11.175  22.641  0.00  0.00    +0.000 A 
ATOM      5  N   UNL     1      -0.169  10.605  23.687  0.00  0.00    +0.000 NA
ATOM      6  N   UNL     1       0.712   9.510  23.539  0.00  0.00    +0.000 NA
ATOM      7  C   UNL     1       1.001   9.067  22.358  0.00  0.00    +0.000 A 
ATOM      8  C   UNL     1       0.483   9.680  21.184  0.00  0.00    +0.000 A 
ATOM      9  C   UNL     1       0.649   9.518  19.823  0.00  0.00    +0.000 A 
ENDROOT
BRANCH   4  10
ATOM     10  C   UNL     1      -1.670  12.284  22.917  0.00  0.00    +0.000 A 
ATOM     11  C   UNL     1      -3.026  11.979  23.114  0.00  0.00    +0.000 A 
ATOM     12  C   UNL     1      -3.952  13.006  23.261  0.00  0.00    +0.000 A 
ATOM     13  C   UNL     1      -3.536  14.336  23.220  0.00  0.00    +0.000 A 
ATOM     14  C   UNL     1      -2.192  14.638  23.029  0.00  0.00    +0.000 A 
ATOM     15  C   UNL     1      -1.264  13.615  22.867  0.00  0.00    +0.000 A 
ATOM     16  F   UNL     1      -0.003  13.959  22.577  0.00  0.00    +0.000 F 
ENDBRANCH   4  10
BRANCH   9  17
ATOM     17  C   UNL     1       1.553   8.551  19.230  0.00  0.00    +0.000 A 
ATOM     18  C   UNL     1       2.199   8.859  18.020  0.00  0.00    +0.000 A 
ATOM     19  C   UNL     1       3.083   7.959  17.447  0.00  0.00    +0.000 A 
ATOM     20  C   UNL     1       3.310   6.737  18.043  0.00  0.00    +0.000 A 
ATOM     21  C   UNL     1       2.653   6.384  19.232  0.00  0.00    +0.000 A 
ATOM     22  C   UNL     1       1.783   7.310  19.829  0.00  0.00    +0.000 A 
BRANCH  21  23
ATOM     23  C   UNL     1       2.899   5.036  19.852  0.00  0.00    +0.000 C 
BRANCH  23  24
ATOM     24  O   UNL     1       2.548   5.058  21.227  0.00  0.00    +0.000 OA
ATOM     25  H   UNL     1       1.660   5.451  21.286  0.00  0.00    +0.000 HD
ENDBRANCH  23  24
ENDBRANCH  21  23
ENDBRANCH   9  17
BRANCH   1  26
ATOM     26  O   UNL     1      -0.460  10.758  17.967  0.00  0.00    +0.000 OA
BRANCH  26  27
ATOM     27  C   UNL     1      -1.378   9.829  17.373  0.00  0.00    +0.000 C 
BRANCH  27  33
ATOM     28  C   UNL     1      -2.999  10.151  14.654  0.00  0.00    +0.000 C 
ATOM     29  N   UNL     1      -3.343  10.657  15.957  0.00  0.00    +0.000 N 
ATOM     30  N   UNL     1      -4.498  11.335  16.118  0.00  0.00    +0.000 NA
ATOM     31  C   UNL     1      -4.474  11.605  17.423  0.00  0.00    +0.000 A 
ATOM     32  N   UNL     1      -3.380  11.143  18.086  0.00  0.00    +0.000 NA
ATOM     33  C   UNL     1      -2.679  10.526  17.150  0.00  0.00    +0.000 A 
ENDBRANCH  27  33
ENDBRANCH  26  27
ENDBRANCH   1  26
TORSDOF 7
ENDMDL
MODEL 6
REMARK VINA RESULT:      -8.3      3.825      6.599
REMARK  Name = 
REMARK  8 active torsions:
REMARK  status: ('A' for Active; 'I' for Inactive)
REMARK    1  A    between atoms: C_1  and  N_2
REMARK    2  A    between atoms: C_6  and  C_7
REMARK    3  A    between atoms: C_7  and  O_8
REMARK    4  A    between atoms: O_8  and  C_9
REMARK    5  A    between atoms: C_12  and  C_13
REMARK    6  A    between atoms: C_24  and  C_25
REMARK    7  A    between atoms: C_29  and  C_30
REMARK    8  A    between atoms: C_30  and  O_31
REMARK                            x       y       z     vdW  Elec       q    Type
REMARK                         _______ _______ _______ _____ _____    ______ ____
ROOT
ATOM      1  C   UNL     1      -0.239  10.568  19.345  0.00  0.00    +0.000 A 
ATOM      2  N   UNL     1      -0.800  11.318  20.294  0.00  0.00    +0.000 NA
ATOM      3  N   UNL     1      -0.427  10.713  21.440  0.00  0.00    +0.000 N 
ATOM      4  C   UNL     1      -0.781  11.138  22.723  0.00  0.00    +0.000 A 
ATOM      5  N   UNL     1      -0.239  10.533  23.756  0.00  0.00    +0.000 NA
ATOM      6  N   UNL     1       0.641   9.440  23.582  0.00  0.00    +0.000 NA
ATOM      7  C   UNL     1       0.943   9.035  22.392  0.00  0.00    +0.000 A 
ATOM      8  C   UNL     1       0.439   9.688  21.231  0.00  0.00    +0.000 A 
ATOM      9  C   UNL     1       0.621   9.569  19.868  0.00  0.00    +0.000 A 
ENDROOT
BRANCH   4  10
ATOM     10  C   UNL     1      -1.726  12.240  23.023  0.00  0.00    +0.000 A 
ATOM     11  C   UNL     1      -3.049  11.918  23.365  0.00  0.00    +0.000 A 
ATOM     12  C   UNL     1      -3.986  12.932  23.540  0.00  0.00    +0.000 A 
ATOM     13  C   UNL     1      -3.612  14.266  23.384  0.00  0.00    +0.000 A 
ATOM     14  C   UNL     1      -2.300  14.585  23.050  0.00  0.00    +0.000 A 
ATOM     15  C   UNL     1      -1.364  13.575  22.858  0.00  0.00    +0.000 A 
ATOM     16  F   UNL     1      -0.145  13.928  22.431  0.00  0.00    +0.000 F 
ENDBRANCH   4  10
BRANCH   9  17
ATOM     17  C   UNL     1       1.530   8.619  19.255  0.00  0.00    +0.000 A 
ATOM     18  C   UNL     1       2.066   8.895  17.985  0.00  0.00    +0.000 A 
ATOM     19  C   UNL     1       2.952   8.012  17.389  0.00  0.00    +0.000 A 
ATOM     20  C   UNL     1       3.289   6.836  18.025  0.00  0.00    +0.000 A 
ATOM     21  C   UNL     1       2.742   6.513  19.277  0.00  0.00    +0.000 A 
ATOM     22  C   UNL     1       1.870   7.424  19.893  0.00  0.00    +0.000 A 
BRANCH  21  23
ATOM     23  C   UNL     1       3.106   5.214  19.940  0.00  0.00    +0.000 C 
BRANCH  23  24
ATOM     24  O   UNL     1       2.543   5.155  21.243  0.00  0.00    +0.000 OA
ATOM     25  H   UNL     1       2.443   6.071  21.549  0.00  0.00    +0.000 HD
ENDBRANCH  23  24
ENDBRANCH  21  23
ENDBRANCH   9  17
BRANCH   1  26
ATOM     26  O   UNL     1      -0.463  10.872  18.041  0.00  0.00    +0.000 OA
BRANCH  26  27
ATOM     27  C   UNL     1      -1.342  11.993  17.873  0.00  0.00    +0.000 C 
BRANCH  27  33
ATOM     28  C   UNL     1      -4.362  12.050  18.874  0.00  0.00    +0.000 C 
ATOM     29  N   UNL     1      -3.852  11.560  17.620  0.00  0.00    +0.000 N 
ATOM     30  N   UNL     1      -4.713  11.080  16.699  0.00  0.00    +0.000 NA
ATOM     31  C   UNL     1      -3.891  10.762  15.700  0.00  0.00    +0.000 A 
ATOM     32  N   UNL     1      -2.575  11.008  15.937  0.00  0.00    +0.000 NA
ATOM     33  C   UNL     1      -2.564  11.533  17.150  0.00  0.00    +0.000 A 
ENDBRANCH  27  33
ENDBRANCH  26  27
ENDBRANCH   1  26
TORSDOF 7
ENDMDL
MODEL 7
REMARK VINA RESULT:      -8.1      2.976      4.636
REMARK  Name = 
REMARK  8 active torsions:
REMARK  status: ('A' for Active; 'I' for Inactive)
REMARK    1  A    between atoms: C_1  and  N_2
REMARK    2  A    between atoms: C_6  and  C_7
REMARK    3  A    between atoms: C_7  and  O_8
REMARK    4  A    between atoms: O_8  and  C_9
REMARK    5  A    between atoms: C_12  and  C_13
REMARK    6  A    between atoms: C_24  and  C_25
REMARK    7  A    between atoms: C_29  and  C_30
REMARK    8  A    between atoms: C_30  and  O_31
REMARK                            x       y       z     vdW  Elec       q    Type
REMARK                         _______ _______ _______ _____ _____    ______ ____
ROOT
ATOM      1  C   UNL     1       2.969   7.633  17.842  0.00  0.00    +0.000 A 
ATOM      2  N   UNL     1       2.504   8.860  18.079  0.00  0.00    +0.000 NA
ATOM      3  N   UNL     1       1.748   8.705  19.186  0.00  0.00    +0.000 N 
ATOM      4  C   UNL     1       1.040   9.727  19.822  0.00  0.00    +0.000 A 
ATOM      5  N   UNL     1       0.451   9.464  20.967  0.00  0.00    +0.000 NA
ATOM      6  N   UNL     1       0.484   8.163  21.522  0.00  0.00    +0.000 NA
ATOM      7  C   UNL     1       1.119   7.216  20.912  0.00  0.00    +0.000 A 
ATOM      8  C   UNL     1       1.829   7.451  19.702  0.00  0.00    +0.000 A 
ATOM      9  C   UNL     1       2.647   6.712  18.871  0.00  0.00    +0.000 A 
ENDROOT
BRANCH   4  10
ATOM     10  C   UNL     1       0.901  11.112  19.311  0.00  0.00    +0.000 A 
ATOM     11  C   UNL     1       1.895  12.050  19.630  0.00  0.00    +0.000 A 
ATOM     12  C   UNL     1       1.735  13.382  19.261  0.00  0.00    +0.000 A 
ATOM     13  C   UNL     1       0.594  13.785  18.569  0.00  0.00    +0.000 A 
ATOM     14  C   UNL     1      -0.389  12.854  18.247  0.00  0.00    +0.000 A 
ATOM     15  C   UNL     1      -0.240  11.524  18.628  0.00  0.00    +0.000 A 
ATOM     16  F   UNL     1      -1.262  10.691  18.393  0.00  0.00    +0.000 F 
ENDBRANCH   4  10
BRANCH   9  17
ATOM     17  C   UNL     1       3.025   5.335  19.127  0.00  0.00    +0.000 A 
ATOM     18  C   UNL     1       4.362   5.031  19.433  0.00  0.00    +0.000 A 
ATOM     19  C   UNL     1       4.742   3.725  19.701  0.00  0.00    +0.000 A 
ATOM     20  C   UNL     1       3.814   2.708  19.637  0.00  0.00    +0.000 A 
ATOM     21  C   UNL     1       2.478   2.974  19.297  0.00  0.00    +0.000 A 
ATOM     22  C   UNL     1       2.089   4.301  19.058  0.00  0.00    +0.000 A 
BRANCH  21  23
ATOM     23  C   UNL     1       1.489   1.845  19.209  0.00  0.00    +0.000 C 
BRANCH  23  24
ATOM     24  O   UNL     1       0.331   2.262  18.501  0.00  0.00    +0.000 OA
ATOM     25  H   UNL     1      -0.164   1.458  18.271  0.00  0.00    +0.000 HD
ENDBRANCH  23  24
ENDBRANCH  21  23
ENDBRANCH   9  17
BRANCH   1  26
ATOM     26  O   UNL     1       3.739   7.417  16.745  0.00  0.00    +0.000 OA
BRANCH  26  27
ATOM     27  C   UNL     1       5.141   7.574  17.009  0.00  0.00    +0.000 C 
BRANCH  27  33
ATOM     28  C   UNL     1       7.611   5.946  18.182  0.00  0.00    +0.000 C 
ATOM     29  N   UNL     1       6.943   5.758  16.920  0.00  0.00    +0.000 N 
ATOM     30  N   UNL     1       7.349   4.767  16.100  0.00  0.00    +0.000 NA
ATOM     31  C   UNL     1       6.498   4.894  15.082  0.00  0.00    +0.000 A 
ATOM     32  N   UNL     1       5.592   5.899  15.211  0.00  0.00    +0.000 NA
ATOM     33  C   UNL     1       5.871   6.428  16.390  0.00  0.00    +0.000 A 
ENDBRANCH  27  33
ENDBRANCH  26  27
ENDBRANCH   1  26
TORSDOF 7
ENDMDL
MODEL 8
REMARK VINA RESULT:      -8.0      2.817      4.331
REMARK  Name = 
REMARK  8 active torsions:
REMARK  status: ('A' for Active; 'I' for Inactive)
REMARK    1  A    between atoms: C_1  and  N_2
REMARK    2  A    between atoms: C_6  and  C_7
REMARK    3  A    between atoms: C_7  and  O_8
REMARK    4  A    between atoms: O_8  and  C_9
REMARK    5  A    between atoms: C_12  and  C_13
REMARK    6  A    between atoms: C_24  and  C_25
REMARK    7  A    between atoms: C_29  and  C_30
REMARK    8  A    between atoms: C_30  and  O_31
REMARK                            x       y       z     vdW  Elec       q    Type
REMARK                         _______ _______ _______ _____ _____    ______ ____
ROOT
ATOM      1  C   UNL     1       2.345   7.649  18.471  0.00  0.00    +0.000 A 
ATOM      2  N   UNL     1       2.082   8.948  18.620  0.00  0.00    +0.000 NA
ATOM      3  N   UNL     1       1.376   8.999  19.769  0.00  0.00    +0.000 N 
ATOM      4  C   UNL     1       0.866  10.164  20.344  0.00  0.00    +0.000 A 
ATOM      5  N   UNL     1       0.311  10.086  21.533  0.00  0.00    +0.000 NA
ATOM      6  N   UNL     1       0.181   8.844  22.197  0.00  0.00    +0.000 NA
ATOM      7  C   UNL     1       0.632   7.765  21.645  0.00  0.00    +0.000 A 
ATOM      8  C   UNL     1       1.299   7.792  20.388  0.00  0.00    +0.000 A 
ATOM      9  C   UNL     1       1.949   6.873  19.589  0.00  0.00    +0.000 A 
ENDROOT
BRANCH   4  10
ATOM     10  C   UNL     1       0.906  11.509  19.721  0.00  0.00    +0.000 A 
ATOM     11  C   UNL     1       1.858  12.434  20.176  0.00  0.00    +0.000 A 
ATOM     12  C   UNL     1       1.845  13.738  19.691  0.00  0.00    +0.000 A 
ATOM     13  C   UNL     1       0.893  14.125  18.748  0.00  0.00    +0.000 A 
ATOM     14  C   UNL     1      -0.048  13.206  18.293  0.00  0.00    +0.000 A 
ATOM     15  C   UNL     1      -0.048  11.906  18.788  0.00  0.00    +0.000 A 
ATOM     16  F   UNL     1      -1.040  11.094  18.401  0.00  0.00    +0.000 F 
ENDBRANCH   4  10
BRANCH   9  17
ATOM     17  C   UNL     1       2.132   5.479  19.947  0.00  0.00    +0.000 A 
ATOM     18  C   UNL     1       1.068   4.770  20.531  0.00  0.00    +0.000 A 
ATOM     19  C   UNL     1       1.213   3.432  20.862  0.00  0.00    +0.000 A 
ATOM     20  C   UNL     1       2.416   2.794  20.651  0.00  0.00    +0.000 A 
ATOM     21  C   UNL     1       3.510   3.484  20.104  0.00  0.00    +0.000 A 
ATOM     22  C   UNL     1       3.351   4.830  19.739  0.00  0.00    +0.000 A 
BRANCH  21  23
ATOM     23  C   UNL     1       4.820   2.773  19.906  0.00  0.00    +0.000 C 
BRANCH  23  24
ATOM     24  O   UNL     1       5.654   3.520  19.032  0.00  0.00    +0.000 OA
ATOM     25  H   UNL     1       6.447   2.982  18.870  0.00  0.00    +0.000 HD
ENDBRANCH  23  24
ENDBRANCH  21  23
ENDBRANCH   9  17
BRANCH   1  26
ATOM     26  O   UNL     1       3.011   7.231  17.364  0.00  0.00    +0.000 OA
BRANCH  26  27
ATOM     27  C   UNL     1       4.406   7.565  17.394  0.00  0.00    +0.000 C 
BRANCH  27  33
ATOM     28  C   UNL     1       7.550   7.096  17.536  0.00  0.00    +0.000 C 
ATOM     29  N   UNL     1       6.546   6.221  16.987  0.00  0.00    +0.000 N 
ATOM     30  N   UNL     1       6.917   5.026  16.482  0.00  0.00    +0.000 NA
ATOM     31  C   UNL     1       5.744   4.515  16.111  0.00  0.00    +0.000 A 
ATOM     32  N   UNL     1       4.668   5.311  16.348  0.00  0.00    +0.000 NA
ATOM     33  C   UNL     1       5.187   6.383  16.922  0.00  0.00    +0.000 A 
ENDBRANCH  27  33
ENDBRANCH  26  27
ENDBRANCH   1  26
TORSDOF 7
ENDMDL
MODEL 9
REMARK VINA RESULT:      -7.8      5.265     10.153
REMARK  Name = 
REMARK  8 active torsions:
REMARK  status: ('A' for Active; 'I' for Inactive)
REMARK    1  A    between atoms: C_1  and  N_2
REMARK    2  A    between atoms: C_6  and  C_7
REMARK    3  A    between atoms: C_7  and  O_8
REMARK    4  A    between atoms: O_8  and  C_9
REMARK    5  A    between atoms: C_12  and  C_13
REMARK    6  A    between atoms: C_24  and  C_25
REMARK    7  A    between atoms: C_29  and  C_30
REMARK    8  A    between atoms: C_30  and  O_31
REMARK                            x       y       z     vdW  Elec       q    Type
REMARK                         _______ _______ _______ _____ _____    ______ ____
ROOT
ATOM      1  C   UNL     1       1.221  13.431  20.231  0.00  0.00    +0.000 A 
ATOM      2  N   UNL     1       1.485  12.152  19.963  0.00  0.00    +0.000 NA
ATOM      3  N   UNL     1       0.410  11.747  19.256  0.00  0.00    +0.000 N 
ATOM      4  C   UNL     1       0.224  10.458  18.749  0.00  0.00    +0.000 A 
ATOM      5  N   UNL     1      -0.807  10.235  17.966  0.00  0.00    +0.000 NA
ATOM      6  N   UNL     1      -1.742  11.257  17.682  0.00  0.00    +0.000 NA
ATOM      7  C   UNL     1      -1.577  12.441  18.178  0.00  0.00    +0.000 A 
ATOM      8  C   UNL     1      -0.448  12.763  18.981  0.00  0.00    +0.000 A 
ATOM      9  C   UNL     1       0.056  13.903  19.575  0.00  0.00    +0.000 A 
ENDROOT
BRANCH   4  10
ATOM     10  C   UNL     1       1.113   9.302  19.017  0.00  0.00    +0.000 A 
ATOM     11  C   UNL     1       1.869   8.775  17.959  0.00  0.00    +0.000 A 
ATOM     12  C   UNL     1       2.623   7.622  18.153  0.00  0.00    +0.000 A 
ATOM     13  C   UNL     1       2.635   6.994  19.398  0.00  0.00    +0.000 A 
ATOM     14  C   UNL     1       1.890   7.520  20.449  0.00  0.00    +0.000 A 
ATOM     15  C   UNL     1       1.122   8.664  20.254  0.00  0.00    +0.000 A 
ATOM     16  F   UNL     1       0.339   9.066  21.263  0.00  0.00    +0.000 F 
ENDBRANCH   4  10
BRANCH   9  17
ATOM     17  C   UNL     1      -0.554  15.213  19.451  0.00  0.00    +0.000 A 
ATOM     18  C   UNL     1      -1.533  15.611  20.379  0.00  0.00    +0.000 A 
ATOM     19  C   UNL     1      -2.114  16.866  20.292  0.00  0.00    +0.000 A 
ATOM     20  C   UNL     1      -1.760  17.724  19.273  0.00  0.00    +0.000 A 
ATOM     21  C   UNL     1      -0.813  17.343  18.309  0.00  0.00    +0.000 A 
ATOM     22  C   UNL     1      -0.202  16.084  18.417  0.00  0.00    +0.000 A 
BRANCH  21  23
ATOM     23  C   UNL     1      -0.460  18.286  17.193  0.00  0.00    +0.000 C 
BRANCH  23  24
ATOM     24  O   UNL     1       0.950  18.385  17.063  0.00  0.00    +0.000 OA
ATOM     25  H   UNL     1       1.234  19.127  17.623  0.00  0.00    +0.000 HD
ENDBRANCH  23  24
ENDBRANCH  21  23
ENDBRANCH   9  17
BRANCH   1  26
ATOM     26  O   UNL     1       2.092  14.144  20.990  0.00  0.00    +0.000 OA
BRANCH  26  27
ATOM     27  C   UNL     1       3.416  14.175  20.437  0.00  0.00    +0.000 C 
BRANCH  27  33
ATOM     28  C   UNL     1       3.077  17.339  20.416  0.00  0.00    +0.000 C 
ATOM     29  N   UNL     1       3.254  16.458  19.291  0.00  0.00    +0.000 N 
ATOM     30  N   UNL     1       3.322  16.979  18.048  0.00  0.00    +0.000 NA
ATOM     31  C   UNL     1       3.510  15.888  17.308  0.00  0.00    +0.000 A 
ATOM     32  N   UNL     1       3.562  14.721  18.004  0.00  0.00    +0.000 NA
ATOM     33  C   UNL     1       3.417  15.097  19.263  0.00  0.00    +0.000 A 
ENDBRANCH  27  33
ENDBRANCH  26  27
ENDBRANCH   1  26
TORSDOF 7
ENDMDL
