MODEL 1
REMARK VINA RESULT:      -9.2      0.000      0.000
REMARK  Name = 
REMARK  6 active torsions:
REMARK  status: ('A' for Active; 'I' for Inactive)
REMARK    1  A    between atoms: C_1  and  N_2
REMARK    2  A    between atoms: C_3  and  C_4
REMARK    3  A    between atoms: C_4  and  C_5
REMARK    4  A    between atoms: C_5  and  C_6
REMARK    5  A    between atoms: C_9  and  N_10
REMARK    6  A    between atoms: N_13  and  C_14
REMARK                            x       y       z     vdW  Elec       q    Type
REMARK                         _______ _______ _______ _____ _____    ______ ____
ROOT
ATOM      1  C   UNL     1       7.021   5.405  17.123  0.00  0.00    +0.000 A 
ATOM      2  C   UNL     1       7.582   5.193  18.386  0.00  0.00    +0.000 A 
ATOM      3  C   UNL     1       8.156   6.241  19.101  0.00  0.00    +0.000 A 
ATOM      4  C   UNL     1       8.230   7.528  18.563  0.00  0.00    +0.000 A 
ATOM      5  C   UNL     1       7.655   7.761  17.316  0.00  0.00    +0.000 A 
ATOM      6  C   UNL     1       7.072   6.706  16.594  0.00  0.00    +0.000 A 
ENDROOT
BRANCH   4   7
ATOM      7  N   UNL     1       8.870   8.584  19.253  0.00  0.00    +0.000 N 
ATOM      8  C   UNL     1       8.798   9.908  18.856  0.00  0.00    +0.000 C 
ATOM      9  O   UNL     1       8.079  10.326  17.952  0.00  0.00    +0.000 OA
ATOM     10  N   UNL     1       9.646  10.723  19.587  0.00  0.00    +0.000 N 
ATOM     11  H   UNL     1       9.121   8.426  20.219  0.00  0.00    +0.000 HD
ATOM     12  H   UNL     1      10.540  10.296  19.801  0.00  0.00    +0.000 HD
BRANCH  10  13
ATOM     13  C   UNL     1       9.694  12.117  19.313  0.00  0.00    +0.000 A 
ATOM     14  C   UNL     1       8.799  12.996  19.940  0.00  0.00    +0.000 A 
ATOM     15  C   UNL     1       8.783  14.351  19.608  0.00  0.00    +0.000 A 
ATOM     16  C   UNL     1       9.662  14.843  18.649  0.00  0.00    +0.000 A 
ATOM     17  C   UNL     1      10.579  13.983  18.037  0.00  0.00    +0.000 A 
ATOM     18  C   UNL     1      10.606  12.629  18.380  0.00  0.00    +0.000 A 
ATOM     19 CL   UNL     1      11.719  11.589  17.562  0.00  0.00    +0.000 Cl
ENDBRANCH  10  13
ENDBRANCH   4   7
BRANCH   1  20
ATOM     20  C   UNL     1       6.430   4.263  16.318  0.00  0.00    +0.000 C 
BRANCH  20  21
ATOM     21  C   UNL     1       4.940   4.427  15.991  0.00  0.00    +0.000 C 
BRANCH  21  24
ATOM     22  C   UNL     1       3.593   6.582  17.838  0.00  0.00    +0.000 C 
ATOM     23  N   UNL     1       3.461   5.148  17.946  0.00  0.00    +0.000 N 
ATOM     24  C   UNL     1       4.059   4.177  17.172  0.00  0.00    +0.000 A 
ATOM     25  N   UNL     1       3.699   2.974  17.576  0.00  0.00    +0.000 NA
ATOM     26  C   UNL     1       2.828   3.169  18.616  0.00  0.00    +0.000 A 
ATOM     27  C   UNL     1       2.134   2.225  19.384  0.00  0.00    +0.000 A 
ATOM     28  C   UNL     1       1.286   2.679  20.402  0.00  0.00    +0.000 A 
ATOM     29  C   UNL     1       1.133   4.044  20.648  0.00  0.00    +0.000 A 
ATOM     30  C   UNL     1       1.817   5.000  19.888  0.00  0.00    +0.000 A 
ATOM     31  C   UNL     1       2.659   4.524  18.875  0.00  0.00    +0.000 A 
ENDBRANCH  21  24
ENDBRANCH  20  21
ENDBRANCH   1  20
TORSDOF 5
ENDMDL
MODEL 2
REMARK VINA RESULT:      -9.0      4.921      7.688
REMARK  Name = 
REMARK  6 active torsions:
REMARK  status: ('A' for Active; 'I' for Inactive)
REMARK    1  A    between atoms: C_1  and  N_2
REMARK    2  A    between atoms: C_3  and  C_4
REMARK    3  A    between atoms: C_4  and  C_5
REMARK    4  A    between atoms: C_5  and  C_6
REMARK    5  A    between atoms: C_9  and  N_10
REMARK    6  A    between atoms: N_13  and  C_14
REMARK                            x       y       z     vdW  Elec       q    Type
REMARK                         _______ _______ _______ _____ _____    ______ ____
ROOT
ATOM      1  C   UNL     1       2.129   4.691  18.673  0.00  0.00    +0.000 A 
ATOM      2  C   UNL     1       2.399   5.985  18.217  0.00  0.00    +0.000 A 
ATOM      3  C   UNL     1       2.326   7.078  19.077  0.00  0.00    +0.000 A 
ATOM      4  C   UNL     1       1.939   6.924  20.410  0.00  0.00    +0.000 A 
ATOM      5  C   UNL     1       1.691   5.639  20.886  0.00  0.00    +0.000 A 
ATOM      6  C   UNL     1       1.767   4.533  20.021  0.00  0.00    +0.000 A 
ENDROOT
BRANCH   4   7
ATOM      7  N   UNL     1       1.798   8.035  21.274  0.00  0.00    +0.000 N 
ATOM      8  C   UNL     1       0.711   8.892  21.242  0.00  0.00    +0.000 C 
ATOM      9  O   UNL     1      -0.296   8.715  20.562  0.00  0.00    +0.000 OA
ATOM     10  N   UNL     1       0.888   9.995  22.061  0.00  0.00    +0.000 N 
ATOM     11  H   UNL     1       2.330   8.030  22.133  0.00  0.00    +0.000 HD
ATOM     12  H   UNL     1       1.833  10.360  22.058  0.00  0.00    +0.000 HD
BRANCH  10  13
ATOM     13  C   UNL     1      -0.137  10.976  22.152  0.00  0.00    +0.000 A 
ATOM     14  C   UNL     1      -1.167  10.842  23.094  0.00  0.00    +0.000 A 
ATOM     15  C   UNL     1      -2.223  11.755  23.127  0.00  0.00    +0.000 A 
ATOM     16  C   UNL     1      -2.258  12.812  22.223  0.00  0.00    +0.000 A 
ATOM     17  C   UNL     1      -1.222  12.973  21.299  0.00  0.00    +0.000 A 
ATOM     18  C   UNL     1      -0.157  12.068  21.275  0.00  0.00    +0.000 A 
ATOM     19 CL   UNL     1       1.076  12.273  20.081  0.00  0.00    +0.000 Cl
ENDBRANCH  10  13
ENDBRANCH   4   7
BRANCH   1  20
ATOM     20  C   UNL     1       2.166   3.499  17.735  0.00  0.00    +0.000 C 
BRANCH  20  21
ATOM     21  C   UNL     1       3.523   2.784  17.676  0.00  0.00    +0.000 C 
BRANCH  21  24
ATOM     22  C   UNL     1       4.779   4.577  15.423  0.00  0.00    +0.000 C 
ATOM     23  N   UNL     1       5.186   4.518  16.806  0.00  0.00    +0.000 N 
ATOM     24  C   UNL     1       4.677   3.724  17.812  0.00  0.00    +0.000 A 
ATOM     25  N   UNL     1       5.309   3.947  18.947  0.00  0.00    +0.000 NA
ATOM     26  C   UNL     1       6.231   4.926  18.680  0.00  0.00    +0.000 A 
ATOM     27  C   UNL     1       7.144   5.548  19.542  0.00  0.00    +0.000 A 
ATOM     28  C   UNL     1       7.989   6.538  19.026  0.00  0.00    +0.000 A 
ATOM     29  C   UNL     1       7.925   6.900  17.681  0.00  0.00    +0.000 A 
ATOM     30  C   UNL     1       7.017   6.292  16.806  0.00  0.00    +0.000 A 
ATOM     31  C   UNL     1       6.181   5.304  17.344  0.00  0.00    +0.000 A 
ENDBRANCH  21  24
ENDBRANCH  20  21
ENDBRANCH   1  20
TORSDOF 5
ENDMDL
MODEL 3
REMARK VINA RESULT:      -8.7      1.267      2.228
REMARK  Name = 
REMARK  6 active torsions:
REMARK  status: ('A' for Active; 'I' for Inactive)
REMARK    1  A    between atoms: C_1  and  N_2
REMARK    2  A    between atoms: C_3  and  C_4
REMARK    3  A    between atoms: C_4  and  C_5
REMARK    4  A    between atoms: C_5  and  C_6
REMARK    5  A    between atoms: C_9  and  N_10
REMARK    6  A    between atoms: N_13  and  C_14
REMARK                            x       y       z     vdW  Elec       q    Type
REMARK                         _______ _______ _______ _____ _____    ______ ____
ROOT
ATOM      1  C   UNL     1       6.698   4.919  16.841  0.00  0.00    +0.000 A 
ATOM      2  C   UNL     1       6.624   6.259  16.451  0.00  0.00    +0.000 A 
ATOM      3  C   UNL     1       7.278   7.254  17.174  0.00  0.00    +0.000 A 
ATOM      4  C   UNL     1       7.992   6.952  18.336  0.00  0.00    +0.000 A 
ATOM      5  C   UNL     1       8.095   5.619  18.725  0.00  0.00    +0.000 A 
ATOM      6  C   UNL     1       7.439   4.612  17.995  0.00  0.00    +0.000 A 
ENDROOT
BRANCH   4   7
ATOM      7  N   UNL     1       8.603   7.963  19.114  0.00  0.00    +0.000 N 
ATOM      8  C   UNL     1       8.711   9.280  18.704  0.00  0.00    +0.000 C 
ATOM      9  O   UNL     1       8.184   9.740  17.695  0.00  0.00    +0.000 OA
ATOM     10  N   UNL     1       9.500  10.033  19.557  0.00  0.00    +0.000 N 
ATOM     11  H   UNL     1       8.683   7.802  20.109  0.00  0.00    +0.000 HD
ATOM     12  H   UNL     1      10.307   9.536  19.914  0.00  0.00    +0.000 HD
BRANCH  10  13
ATOM     13  C   UNL     1       9.711  11.413  19.287  0.00  0.00    +0.000 A 
ATOM     14  C   UNL     1      10.276  11.821  18.071  0.00  0.00    +0.000 A 
ATOM     15  C   UNL     1      10.568  13.166  17.837  0.00  0.00    +0.000 A 
ATOM     16  C   UNL     1      10.295  14.116  18.816  0.00  0.00    +0.000 A 
ATOM     17  C   UNL     1       9.705  13.726  20.021  0.00  0.00    +0.000 A 
ATOM     18  C   UNL     1       9.398  12.382  20.249  0.00  0.00    +0.000 A 
ATOM     19 CL   UNL     1       8.718  11.936  21.774  0.00  0.00    +0.000 Cl
ENDBRANCH  10  13
ENDBRANCH   4   7
BRANCH   1  20
ATOM     20  C   UNL     1       5.956   3.833  16.085  0.00  0.00    +0.000 C 
BRANCH  20  21
ATOM     21  C   UNL     1       4.464   4.121  15.870  0.00  0.00    +0.000 C 
BRANCH  21  24
ATOM     22  C   UNL     1       3.587   1.736  17.716  0.00  0.00    +0.000 C 
ATOM     23  N   UNL     1       3.356   3.141  17.953  0.00  0.00    +0.000 N 
ATOM     24  C   UNL     1       3.702   4.209  17.152  0.00  0.00    +0.000 A 
ATOM     25  N   UNL     1       3.320   5.345  17.701  0.00  0.00    +0.000 NA
ATOM     26  C   UNL     1       2.739   5.011  18.896  0.00  0.00    +0.000 A 
ATOM     27  C   UNL     1       2.190   5.841  19.882  0.00  0.00    +0.000 A 
ATOM     28  C   UNL     1       1.653   5.255  21.034  0.00  0.00    +0.000 A 
ATOM     29  C   UNL     1       1.664   3.869  21.201  0.00  0.00    +0.000 A 
ATOM     30  C   UNL     1       2.212   3.025  20.228  0.00  0.00    +0.000 A 
ATOM     31  C   UNL     1       2.743   3.634  19.083  0.00  0.00    +0.000 A 
ENDBRANCH  21  24
ENDBRANCH  20  21
ENDBRANCH   1  20
TORSDOF 5
ENDMDL
MODEL 4
REMARK VINA RESULT:      -8.7      1.409      1.936
REMARK  Name = 
REMARK  6 active torsions:
REMARK  status: ('A' for Active; 'I' for Inactive)
REMARK    1  A    between atoms: C_1  and  N_2
REMARK    2  A    between atoms: C_3  and  C_4
REMARK    3  A    between atoms: C_4  and  C_5
REMARK    4  A    between atoms: C_5  and  C_6
REMARK    5  A    between atoms: C_9  and  N_10
REMARK    6  A    between atoms: N_13  and  C_14
REMARK                            x       y       z     vdW  Elec       q    Type
REMARK                         _______ _______ _______ _____ _____    ______ ____
ROOT
ATOM      1  C   UNL     1       6.488   4.940  16.987  0.00  0.00    +0.000 A 
ATOM      2  C   UNL     1       6.347   6.286  16.636  0.00  0.00    +0.000 A 
ATOM      3  C   UNL     1       7.068   7.279  17.294  0.00  0.00    +0.000 A 
ATOM      4  C   UNL     1       7.923   6.968  18.355  0.00  0.00    +0.000 A 
ATOM      5  C   UNL     1       8.093   5.630  18.701  0.00  0.00    +0.000 A 
ATOM      6  C   UNL     1       7.369   4.625  18.036  0.00  0.00    +0.000 A 
ENDROOT
BRANCH   4   7
ATOM      7  N   UNL     1       8.609   7.975  19.073  0.00  0.00    +0.000 N 
ATOM      8  C   UNL     1       8.684   9.292  18.656  0.00  0.00    +0.000 C 
ATOM      9  O   UNL     1       8.068   9.756  17.700  0.00  0.00    +0.000 OA
ATOM     10  N   UNL     1       9.552  10.041  19.432  0.00  0.00    +0.000 N 
ATOM     11  H   UNL     1       8.780   7.813  20.056  0.00  0.00    +0.000 HD
ATOM     12  H   UNL     1      10.387   9.540  19.712  0.00  0.00    +0.000 HD
BRANCH  10  13
ATOM     13  C   UNL     1       9.745  11.420  19.145  0.00  0.00    +0.000 A 
ATOM     14  C   UNL     1      10.309  11.820  17.925  0.00  0.00    +0.000 A 
ATOM     15  C   UNL     1      10.582  13.166  17.675  0.00  0.00    +0.000 A 
ATOM     16  C   UNL     1      10.290  14.125  18.639  0.00  0.00    +0.000 A 
ATOM     17  C   UNL     1       9.700  13.743  19.847  0.00  0.00    +0.000 A 
ATOM     18  C   UNL     1       9.413  12.398  20.092  0.00  0.00    +0.000 A 
ATOM     19 CL   UNL     1       8.732  11.961  21.620  0.00  0.00    +0.000 Cl
ENDBRANCH  10  13
ENDBRANCH   4   7
BRANCH   1  20
ATOM     20  C   UNL     1       5.676   3.855  16.305  0.00  0.00    +0.000 C 
BRANCH  20  21
ATOM     21  C   UNL     1       4.158   4.072  16.364  0.00  0.00    +0.000 C 
BRANCH  21  24
ATOM     22  C   UNL     1       1.296   4.838  17.409  0.00  0.00    +0.000 C 
ATOM     23  N   UNL     1       2.312   4.110  18.131  0.00  0.00    +0.000 N 
ATOM     24  C   UNL     1       3.585   3.783  17.714  0.00  0.00    +0.000 A 
ATOM     25  N   UNL     1       4.225   3.116  18.653  0.00  0.00    +0.000 NA
ATOM     26  C   UNL     1       3.342   2.983  19.692  0.00  0.00    +0.000 A 
ATOM     27  C   UNL     1       3.505   2.335  20.924  0.00  0.00    +0.000 A 
ATOM     28  C   UNL     1       2.438   2.332  21.830  0.00  0.00    +0.000 A 
ATOM     29  C   UNL     1       1.233   2.960  21.515  0.00  0.00    +0.000 A 
ATOM     30  C   UNL     1       1.050   3.609  20.288  0.00  0.00    +0.000 A 
ATOM     31  C   UNL     1       2.131   3.599  19.397  0.00  0.00    +0.000 A 
ENDBRANCH  21  24
ENDBRANCH  20  21
ENDBRANCH   1  20
TORSDOF 5
ENDMDL
MODEL 5
REMARK VINA RESULT:      -8.7      0.596      1.500
REMARK  Name = 
REMARK  6 active torsions:
REMARK  status: ('A' for Active; 'I' for Inactive)
REMARK    1  A    between atoms: C_1  and  N_2
REMARK    2  A    between atoms: C_3  and  C_4
REMARK    3  A    between atoms: C_4  and  C_5
REMARK    4  A    between atoms: C_5  and  C_6
REMARK    5  A    between atoms: C_9  and  N_10
REMARK    6  A    between atoms: N_13  and  C_14
REMARK                            x       y       z     vdW  Elec       q    Type
REMARK                         _______ _______ _______ _____ _____    ______ ____
ROOT
ATOM      1  C   UNL     1       7.025   5.313  17.114  0.00  0.00    +0.000 A 
ATOM      2  C   UNL     1       7.546   5.127  18.397  0.00  0.00    +0.000 A 
ATOM      3  C   UNL     1       8.119   6.185  19.100  0.00  0.00    +0.000 A 
ATOM      4  C   UNL     1       8.231   7.454  18.528  0.00  0.00    +0.000 A 
ATOM      5  C   UNL     1       7.695   7.662  17.260  0.00  0.00    +0.000 A 
ATOM      6  C   UNL     1       7.113   6.597  16.550  0.00  0.00    +0.000 A 
ENDROOT
BRANCH   4   7
ATOM      7  N   UNL     1       8.870   8.519  19.206  0.00  0.00    +0.000 N 
ATOM      8  C   UNL     1       8.768   9.842  18.815  0.00  0.00    +0.000 C 
ATOM      9  O   UNL     1       8.023  10.251  17.929  0.00  0.00    +0.000 OA
ATOM     10  N   UNL     1       9.620  10.668  19.529  0.00  0.00    +0.000 N 
ATOM     11  H   UNL     1       9.145   8.362  20.166  0.00  0.00    +0.000 HD
ATOM     12  H   UNL     1      10.525  10.255  19.722  0.00  0.00    +0.000 HD
BRANCH  10  13
ATOM     13  C   UNL     1       9.640  12.064  19.259  0.00  0.00    +0.000 A 
ATOM     14  C   UNL     1       8.746  12.927  19.909  0.00  0.00    +0.000 A 
ATOM     15  C   UNL     1       8.701  14.283  19.581  0.00  0.00    +0.000 A 
ATOM     16  C   UNL     1       9.551  14.790  18.604  0.00  0.00    +0.000 A 
ATOM     17  C   UNL     1      10.467  13.947  17.969  0.00  0.00    +0.000 A 
ATOM     18  C   UNL     1      10.523  12.592  18.308  0.00  0.00    +0.000 A 
ATOM     19 CL   UNL     1      11.633  11.573  17.462  0.00  0.00    +0.000 Cl
ENDBRANCH  10  13
ENDBRANCH   4   7
BRANCH   1  20
ATOM     20  C   UNL     1       6.437   4.159  16.324  0.00  0.00    +0.000 C 
BRANCH  20  21
ATOM     21  C   UNL     1       4.968   4.352  15.924  0.00  0.00    +0.000 C 
BRANCH  21  24
ATOM     22  C   UNL     1       3.646   2.063  17.621  0.00  0.00    +0.000 C 
ATOM     23  N   UNL     1       3.522   3.484  17.843  0.00  0.00    +0.000 N 
ATOM     24  C   UNL     1       4.064   4.513  17.103  0.00  0.00    +0.000 A 
ATOM     25  N   UNL     1       3.727   5.681  17.613  0.00  0.00    +0.000 NA
ATOM     26  C   UNL     1       2.974   5.405  18.724  0.00  0.00    +0.000 A 
ATOM     27  C   UNL     1       2.388   6.285  19.644  0.00  0.00    +0.000 A 
ATOM     28  C   UNL     1       1.659   5.753  20.714  0.00  0.00    +0.000 A 
ATOM     29  C   UNL     1       1.518   4.373  20.865  0.00  0.00    +0.000 A 
ATOM     30  C   UNL     1       2.099   3.480  19.958  0.00  0.00    +0.000 A 
ATOM     31  C   UNL     1       2.823   4.034  18.895  0.00  0.00    +0.000 A 
ENDBRANCH  21  24
ENDBRANCH  20  21
ENDBRANCH   1  20
TORSDOF 5
ENDMDL
MODEL 6
REMARK VINA RESULT:      -8.7      1.649      2.818
REMARK  Name = 
REMARK  6 active torsions:
REMARK  status: ('A' for Active; 'I' for Inactive)
REMARK    1  A    between atoms: C_1  and  N_2
REMARK    2  A    between atoms: C_3  and  C_4
REMARK    3  A    between atoms: C_4  and  C_5
REMARK    4  A    between atoms: C_5  and  C_6
REMARK    5  A    between atoms: C_9  and  N_10
REMARK    6  A    between atoms: N_13  and  C_14
REMARK                            x       y       z     vdW  Elec       q    Type
REMARK                         _______ _______ _______ _____ _____    ______ ____
ROOT
ATOM      1  C   UNL     1       6.079   4.888  17.244  0.00  0.00    +0.000 A 
ATOM      2  C   UNL     1       6.512   6.003  16.520  0.00  0.00    +0.000 A 
ATOM      3  C   UNL     1       7.378   6.935  17.087  0.00  0.00    +0.000 A 
ATOM      4  C   UNL     1       7.809   6.809  18.409  0.00  0.00    +0.000 A 
ATOM      5  C   UNL     1       7.407   5.692  19.136  0.00  0.00    +0.000 A 
ATOM      6  C   UNL     1       6.535   4.748  18.566  0.00  0.00    +0.000 A 
ENDROOT
BRANCH   4   7
ATOM      7  N   UNL     1       8.635   7.785  19.015  0.00  0.00    +0.000 N 
ATOM      8  C   UNL     1       8.630   9.120  18.652  0.00  0.00    +0.000 C 
ATOM      9  O   UNL     1       7.832   9.625  17.868  0.00  0.00    +0.000 OA
ATOM     10  N   UNL     1       9.645   9.835  19.265  0.00  0.00    +0.000 N 
ATOM     11  H   UNL     1       9.005   7.578  19.933  0.00  0.00    +0.000 HD
ATOM     12  H   UNL     1      10.517   9.325  19.342  0.00  0.00    +0.000 HD
BRANCH  10  13
ATOM     13  C   UNL     1       9.782  11.227  19.008  0.00  0.00    +0.000 A 
ATOM     14  C   UNL     1      10.310  11.675  17.789  0.00  0.00    +0.000 A 
ATOM     15  C   UNL     1      10.529  13.036  17.566  0.00  0.00    +0.000 A 
ATOM     16  C   UNL     1      10.220  13.961  18.558  0.00  0.00    +0.000 A 
ATOM     17  C   UNL     1       9.665  13.529  19.767  0.00  0.00    +0.000 A 
ATOM     18  C   UNL     1       9.432  12.169  19.984  0.00  0.00    +0.000 A 
ATOM     19 CL   UNL     1       8.795  11.672  21.512  0.00  0.00    +0.000 Cl
ENDBRANCH  10  13
ENDBRANCH   4   7
BRANCH   1  20
ATOM     20  C   UNL     1       5.103   3.890  16.651  0.00  0.00    +0.000 C 
BRANCH  20  21
ATOM     21  C   UNL     1       3.922   3.542  17.567  0.00  0.00    +0.000 C 
BRANCH  21  24
ATOM     22  C   UNL     1       2.782   3.874  20.475  0.00  0.00    +0.000 C 
ATOM     23  N   UNL     1       2.795   4.874  19.434  0.00  0.00    +0.000 N 
ATOM     24  C   UNL     1       3.261   4.752  18.141  0.00  0.00    +0.000 A 
ATOM     25  N   UNL     1       3.101   5.883  17.481  0.00  0.00    +0.000 NA
ATOM     26  C   UNL     1       2.545   6.765  18.371  0.00  0.00    +0.000 A 
ATOM     27  C   UNL     1       2.196   8.110  18.191  0.00  0.00    +0.000 A 
ATOM     28  C   UNL     1       1.641   8.811  19.268  0.00  0.00    +0.000 A 
ATOM     29  C   UNL     1       1.438   8.185  20.498  0.00  0.00    +0.000 A 
ATOM     30  C   UNL     1       1.783   6.843  20.697  0.00  0.00    +0.000 A 
ATOM     31  C   UNL     1       2.337   6.161  19.606  0.00  0.00    +0.000 A 
ENDBRANCH  21  24
ENDBRANCH  20  21
ENDBRANCH   1  20
TORSDOF 5
ENDMDL
MODEL 7
REMARK VINA RESULT:      -8.6      5.055      7.385
REMARK  Name = 
REMARK  6 active torsions:
REMARK  status: ('A' for Active; 'I' for Inactive)
REMARK    1  A    between atoms: C_1  and  N_2
REMARK    2  A    between atoms: C_3  and  C_4
REMARK    3  A    between atoms: C_4  and  C_5
REMARK    4  A    between atoms: C_5  and  C_6
REMARK    5  A    between atoms: C_9  and  N_10
REMARK    6  A    between atoms: N_13  and  C_14
REMARK                            x       y       z     vdW  Elec       q    Type
REMARK                         _______ _______ _______ _____ _____    ______ ____
ROOT
ATOM      1  C   UNL     1       2.107   4.470  18.531  0.00  0.00    +0.000 A 
ATOM      2  C   UNL     1       1.737   4.364  19.875  0.00  0.00    +0.000 A 
ATOM      3  C   UNL     1       1.599   5.497  20.673  0.00  0.00    +0.000 A 
ATOM      4  C   UNL     1       1.867   6.772  20.169  0.00  0.00    +0.000 A 
ATOM      5  C   UNL     1       2.212   6.897  18.826  0.00  0.00    +0.000 A 
ATOM      6  C   UNL     1       2.349   5.755  18.018  0.00  0.00    +0.000 A 
ENDROOT
BRANCH   4   7
ATOM      7  N   UNL     1       1.793   7.923  20.989  0.00  0.00    +0.000 N 
ATOM      8  C   UNL     1       1.041   9.039  20.670  0.00  0.00    +0.000 C 
ATOM      9  O   UNL     1       0.264   9.108  19.721  0.00  0.00    +0.000 OA
ATOM     10  N   UNL     1       1.271  10.093  21.538  0.00  0.00    +0.000 N 
ATOM     11  H   UNL     1       2.033   7.817  21.965  0.00  0.00    +0.000 HD
ATOM     12  H   UNL     1       2.239  10.187  21.821  0.00  0.00    +0.000 HD
BRANCH  10  13
ATOM     13  C   UNL     1       0.573  11.320  21.358  0.00  0.00    +0.000 A 
ATOM     14  C   UNL     1       1.041  12.276  20.445  0.00  0.00    +0.000 A 
ATOM     15  C   UNL     1       0.412  13.517  20.330  0.00  0.00    +0.000 A 
ATOM     16  C   UNL     1      -0.693  13.812  21.122  0.00  0.00    +0.000 A 
ATOM     17  C   UNL     1      -1.187  12.856  22.014  0.00  0.00    +0.000 A 
ATOM     18  C   UNL     1      -0.566  11.609  22.119  0.00  0.00    +0.000 A 
ATOM     19 CL   UNL     1      -1.176  10.475  23.273  0.00  0.00    +0.000 Cl
ENDBRANCH  10  13
ENDBRANCH   4   7
BRANCH   1  20
ATOM     20  C   UNL     1       2.300   3.240  17.664  0.00  0.00    +0.000 C 
BRANCH  20  21
ATOM     21  C   UNL     1       3.684   2.589  17.794  0.00  0.00    +0.000 C 
BRANCH  21  24
ATOM     22  C   UNL     1       4.790   4.400  15.478  0.00  0.00    +0.000 C 
ATOM     23  N   UNL     1       5.232   4.391  16.852  0.00  0.00    +0.000 N 
ATOM     24  C   UNL     1       4.788   3.592  17.884  0.00  0.00    +0.000 A 
ATOM     25  N   UNL     1       5.433   3.872  19.000  0.00  0.00    +0.000 NA
ATOM     26  C   UNL     1       6.294   4.893  18.693  0.00  0.00    +0.000 A 
ATOM     27  C   UNL     1       7.191   5.581  19.520  0.00  0.00    +0.000 A 
ATOM     28  C   UNL     1       7.970   6.604  18.966  0.00  0.00    +0.000 A 
ATOM     29  C   UNL     1       7.856   6.935  17.615  0.00  0.00    +0.000 A 
ATOM     30  C   UNL     1       6.963   6.260  16.774  0.00  0.00    +0.000 A 
ATOM     31  C   UNL     1       6.194   5.240  17.350  0.00  0.00    +0.000 A 
ENDBRANCH  21  24
ENDBRANCH  20  21
ENDBRANCH   1  20
TORSDOF 5
ENDMDL
MODEL 8
REMARK VINA RESULT:      -8.6      4.927      7.693
REMARK  Name = 
REMARK  6 active torsions:
REMARK  status: ('A' for Active; 'I' for Inactive)
REMARK    1  A    between atoms: C_1  and  N_2
REMARK    2  A    between atoms: C_3  and  C_4
REMARK    3  A    between atoms: C_4  and  C_5
REMARK    4  A    between atoms: C_5  and  C_6
REMARK    5  A    between atoms: C_9  and  N_10
REMARK    6  A    between atoms: N_13  and  C_14
REMARK                            x       y       z     vdW  Elec       q    Type
REMARK                         _______ _______ _______ _____ _____    ______ ____
ROOT
ATOM      1  C   UNL     1       1.911   4.681  18.546  0.00  0.00    +0.000 A 
ATOM      2  C   UNL     1       2.188   5.978  18.105  0.00  0.00    +0.000 A 
ATOM      3  C   UNL     1       2.174   7.055  18.989  0.00  0.00    +0.000 A 
ATOM      4  C   UNL     1       1.842   6.880  20.334  0.00  0.00    +0.000 A 
ATOM      5  C   UNL     1       1.587   5.591  20.794  0.00  0.00    +0.000 A 
ATOM      6  C   UNL     1       1.603   4.502  19.905  0.00  0.00    +0.000 A 
ENDROOT
BRANCH   4   7
ATOM      7  N   UNL     1       1.760   7.976  21.226  0.00  0.00    +0.000 N 
ATOM      8  C   UNL     1       0.695   8.859  21.252  0.00  0.00    +0.000 C 
ATOM      9  O   UNL     1      -0.340   8.721  20.607  0.00  0.00    +0.000 OA
ATOM     10  N   UNL     1       0.930   9.940  22.086  0.00  0.00    +0.000 N 
ATOM     11  H   UNL     1       2.324   7.939  22.064  0.00  0.00    +0.000 HD
ATOM     12  H   UNL     1       1.883  10.282  22.055  0.00  0.00    +0.000 HD
BRANCH  10  13
ATOM     13  C   UNL     1      -0.066  10.944  22.236  0.00  0.00    +0.000 A 
ATOM     14  C   UNL     1      -1.152  10.744  23.100  0.00  0.00    +0.000 A 
ATOM     15  C   UNL     1      -2.178  11.687  23.183  0.00  0.00    +0.000 A 
ATOM     16  C   UNL     1      -2.126  12.840  22.407  0.00  0.00    +0.000 A 
ATOM     17  C   UNL     1      -1.034  13.065  21.564  0.00  0.00    +0.000 A 
ATOM     18  C   UNL     1       0.001  12.129  21.492  0.00  0.00    +0.000 A 
ATOM     19 CL   UNL     1       1.306  12.420  20.397  0.00  0.00    +0.000 Cl
ENDBRANCH  10  13
ENDBRANCH   4   7
BRANCH   1  20
ATOM     20  C   UNL     1       1.882   3.508  17.584  0.00  0.00    +0.000 C 
BRANCH  20  21
ATOM     21  C   UNL     1       3.268   2.977  17.195  0.00  0.00    +0.000 C 
BRANCH  21  24
ATOM     22  C   UNL     1       4.981   3.178  19.821  0.00  0.00    +0.000 C 
ATOM     23  N   UNL     1       5.114   3.996  18.639  0.00  0.00    +0.000 N 
ATOM     24  C   UNL     1       4.362   3.953  17.484  0.00  0.00    +0.000 A 
ATOM     25  N   UNL     1       4.780   4.861  16.624  0.00  0.00    +0.000 NA
ATOM     26  C   UNL     1       5.842   5.488  17.221  0.00  0.00    +0.000 A 
ATOM     27  C   UNL     1       6.663   6.511  16.730  0.00  0.00    +0.000 A 
ATOM     28  C   UNL     1       7.701   6.988  17.539  0.00  0.00    +0.000 A 
ATOM     29  C   UNL     1       7.917   6.456  18.811  0.00  0.00    +0.000 A 
ATOM     30  C   UNL     1       7.108   5.432  19.316  0.00  0.00    +0.000 A 
ATOM     31  C   UNL     1       6.076   4.970  18.490  0.00  0.00    +0.000 A 
ENDBRANCH  21  24
ENDBRANCH  20  21
ENDBRANCH   1  20
TORSDOF 5
ENDMDL
MODEL 9
REMARK VINA RESULT:      -8.5      7.546     10.597
REMARK  Name = 
REMARK  6 active torsions:
REMARK  status: ('A' for Active; 'I' for Inactive)
REMARK    1  A    between atoms: C_1  and  N_2
REMARK    2  A    between atoms: C_3  and  C_4
REMARK    3  A    between atoms: C_4  and  C_5
REMARK    4  A    between atoms: C_5  and  C_6
REMARK    5  A    between atoms: C_9  and  N_10
REMARK    6  A    between atoms: N_13  and  C_14
REMARK                            x       y       z     vdW  Elec       q    Type
REMARK                         _______ _______ _______ _____ _____    ______ ____
ROOT
ATOM      1  C   UNL     1      -0.623  11.272  21.846  0.00  0.00    +0.000 A 
ATOM      2  C   UNL     1       0.245  11.121  20.761  0.00  0.00    +0.000 A 
ATOM      3  C   UNL     1       0.998   9.960  20.600  0.00  0.00    +0.000 A 
ATOM      4  C   UNL     1       0.942   8.928  21.539  0.00  0.00    +0.000 A 
ATOM      5  C   UNL     1       0.064   9.051  22.612  0.00  0.00    +0.000 A 
ATOM      6  C   UNL     1      -0.699  10.220  22.775  0.00  0.00    +0.000 A 
ENDROOT
BRANCH   4   7
ATOM      7  N   UNL     1       1.751   7.773  21.419  0.00  0.00    +0.000 N 
ATOM      8  C   UNL     1       2.115   7.220  20.204  0.00  0.00    +0.000 C 
ATOM      9  O   UNL     1       1.889   7.732  19.110  0.00  0.00    +0.000 OA
ATOM     10  N   UNL     1       2.759   6.003  20.352  0.00  0.00    +0.000 N 
ATOM     11  H   UNL     1       2.334   7.528  22.207  0.00  0.00    +0.000 HD
ATOM     12  H   UNL     1       2.373   5.423  21.088  0.00  0.00    +0.000 HD
BRANCH  10  13
ATOM     13  C   UNL     1       3.208   5.298  19.201  0.00  0.00    +0.000 A 
ATOM     14  C   UNL     1       4.390   5.678  18.552  0.00  0.00    +0.000 A 
ATOM     15  C   UNL     1       4.788   5.047  17.372  0.00  0.00    +0.000 A 
ATOM     16  C   UNL     1       4.009   4.028  16.832  0.00  0.00    +0.000 A 
ATOM     17  C   UNL     1       2.843   3.620  17.486  0.00  0.00    +0.000 A 
ATOM     18  C   UNL     1       2.453   4.241  18.676  0.00  0.00    +0.000 A 
ATOM     19 CL   UNL     1       0.977   3.743  19.424  0.00  0.00    +0.000 Cl
ENDBRANCH  10  13
ENDBRANCH   4   7
BRANCH   1  20
ATOM     20  C   UNL     1      -1.416  12.549  22.054  0.00  0.00    +0.000 C 
BRANCH  20  21
ATOM     21  C   UNL     1      -1.814  13.262  20.755  0.00  0.00    +0.000 C 
BRANCH  21  24
ATOM     22  C   UNL     1      -2.372  11.645  18.120  0.00  0.00    +0.000 C 
ATOM     23  N   UNL     1      -3.350  12.084  19.087  0.00  0.00    +0.000 N 
ATOM     24  C   UNL     1      -3.143  12.817  20.236  0.00  0.00    +0.000 A 
ATOM     25  N   UNL     1      -4.283  13.030  20.863  0.00  0.00    +0.000 NA
ATOM     26  C   UNL     1      -5.247  12.398  20.122  0.00  0.00    +0.000 A 
ATOM     27  C   UNL     1      -6.624  12.290  20.357  0.00  0.00    +0.000 A 
ATOM     28  C   UNL     1      -7.410  11.578  19.443  0.00  0.00    +0.000 A 
ATOM     29  C   UNL     1      -6.835  10.985  18.319  0.00  0.00    +0.000 A 
ATOM     30  C   UNL     1      -5.461  11.079  18.070  0.00  0.00    +0.000 A 
ATOM     31  C   UNL     1      -4.694  11.796  18.997  0.00  0.00    +0.000 A 
ENDBRANCH  21  24
ENDBRANCH  20  21
ENDBRANCH   1  20
TORSDOF 5
ENDMDL
