MODEL 1
REMARK VINA RESULT:      -8.3      0.000      0.000
REMARK  Name = 
REMARK  7 active torsions:
REMARK  status: ('A' for Active; 'I' for Inactive)
REMARK    1  A    between atoms: C_1  and  C_2
REMARK    2  A    between atoms: C_7  and  C_8
REMARK    3  A    between atoms: C_9  and  N_10
REMARK    4  A    between atoms: C_11  and  C_13
REMARK    5  A    between atoms: N_18  and  C_19
REMARK    6  A    between atoms: C_19  and  C_20
REMARK    7  A    between atoms: C_30  and  C_31
REMARK                            x       y       z     vdW  Elec       q    Type
REMARK                         _______ _______ _______ _____ _____    ______ ____
ROOT
ATOM      1  C   UNL     1      -1.166  11.633  20.669  0.00  0.00    +0.000 A 
ATOM      2  S   UNL     1      -0.967  11.529  18.961  0.00  0.00    +0.000 S 
ATOM      3  C   UNL     1       0.104  10.217  19.073  0.00  0.00    +0.000 A 
ATOM      4  N   UNL     1       0.717   9.714  17.968  0.00  0.00    +0.000 NA
ATOM      5  C   UNL     1       1.544   8.748  18.208  0.00  0.00    +0.000 A 
ATOM      6  N   UNL     1       1.801   8.201  19.451  0.00  0.00    +0.000 N 
ATOM      7  C   UNL     1       1.168   8.670  20.598  0.00  0.00    +0.000 A 
ATOM      8  O   UNL     1       1.361   8.187  21.711  0.00  0.00    +0.000 OA
ATOM      9  C   UNL     1       0.259   9.788  20.370  0.00  0.00    +0.000 A 
ATOM     10  C   UNL     1      -0.517  10.576  21.312  0.00  0.00    +0.000 A 
ATOM     11  C   UNL     1      -0.567  10.335  22.791  0.00  0.00    +0.000 C 
ENDROOT
BRANCH   1  13
ATOM     12  N   UNL     1      -3.218  12.416  21.686  0.00  0.00    +0.000 N 
ATOM     13  C   UNL     1      -1.924  12.751  21.277  0.00  0.00    +0.000 C 
ATOM     14  O   UNL     1      -1.479  13.892  21.330  0.00  0.00    +0.000 OA
ATOM     15  H   UNL     1      -3.545  11.545  21.292  0.00  0.00    +0.000 HD
BRANCH  12  24
ATOM     16  C   UNL     1      -3.296  13.688  24.406  0.00  0.00    +0.000 C 
ATOM     17  C   UNL     1      -4.275  13.966  23.298  0.00  0.00    +0.000 A 
ATOM     18  C   UNL     1      -5.345  14.833  23.601  0.00  0.00    +0.000 A 
ATOM     19  C   UNL     1      -6.339  15.094  22.667  0.00  0.00    +0.000 A 
ATOM     20 BR   UNL     1      -7.765  16.251  23.111  0.00  0.00    +0.000 Br
ATOM     21  C   UNL     1      -6.294  14.495  21.416  0.00  0.00    +0.000 A 
ATOM     22  C   UNL     1      -5.248  13.615  21.082  0.00  0.00    +0.000 A 
ATOM     23  C   UNL     1      -5.256  13.026  19.694  0.00  0.00    +0.000 C 
ATOM     24  C   UNL     1      -4.216  13.365  22.021  0.00  0.00    +0.000 A 
ENDBRANCH  12  24
ENDBRANCH   1  13
BRANCH   6  25
ATOM     25  C   UNL     1       2.779   7.120  19.586  0.00  0.00    +0.000 C 
BRANCH  25  26
ATOM     26  C   UNL     1       2.147   5.769  19.356  0.00  0.00    +0.000 A 
ATOM     27  C   UNL     1       2.126   5.199  18.073  0.00  0.00    +0.000 A 
ATOM     28  C   UNL     1       1.679   3.888  17.886  0.00  0.00    +0.000 A 
ATOM     29  C   UNL     1       1.240   3.138  18.975  0.00  0.00    +0.000 A 
ATOM     30  C   UNL     1       1.212   3.717  20.237  0.00  0.00    +0.000 A 
ATOM     31  F   UNL     1       0.789   2.997  21.283  0.00  0.00    +0.000 F 
ATOM     32  C   UNL     1       1.647   5.024  20.434  0.00  0.00    +0.000 A 
ENDBRANCH  25  26
ENDBRANCH   6  25
TORSDOF 4
ENDMDL
MODEL 2
REMARK VINA RESULT:      -8.3      1.844      2.250
REMARK  Name = 
REMARK  7 active torsions:
REMARK  status: ('A' for Active; 'I' for Inactive)
REMARK    1  A    between atoms: C_1  and  C_2
REMARK    2  A    between atoms: C_7  and  C_8
REMARK    3  A    between atoms: C_9  and  N_10
REMARK    4  A    between atoms: C_11  and  C_13
REMARK    5  A    between atoms: N_18  and  C_19
REMARK    6  A    between atoms: C_19  and  C_20
REMARK    7  A    between atoms: C_30  and  C_31
REMARK                            x       y       z     vdW  Elec       q    Type
REMARK                         _______ _______ _______ _____ _____    ______ ____
ROOT
ATOM      1  C   UNL     1      -0.583  11.467  20.198  0.00  0.00    +0.000 A 
ATOM      2  S   UNL     1      -0.149  11.340  18.537  0.00  0.00    +0.000 S 
ATOM      3  C   UNL     1       0.753   9.923  18.786  0.00  0.00    +0.000 A 
ATOM      4  N   UNL     1       1.465   9.356  17.776  0.00  0.00    +0.000 NA
ATOM      5  C   UNL     1       2.143   8.309  18.121  0.00  0.00    +0.000 A 
ATOM      6  N   UNL     1       2.158   7.741  19.381  0.00  0.00    +0.000 N 
ATOM      7  C   UNL     1       1.416   8.277  20.429  0.00  0.00    +0.000 A 
ATOM      8  O   UNL     1       1.393   7.779  21.552  0.00  0.00    +0.000 OA
ATOM      9  C   UNL     1       0.671   9.483  20.087  0.00  0.00    +0.000 A 
ATOM     10  C   UNL     1      -0.148  10.349  20.915  0.00  0.00    +0.000 A 
ATOM     11  C   UNL     1      -0.439  10.118  22.368  0.00  0.00    +0.000 C 
ENDROOT
BRANCH   1  13
ATOM     12  N   UNL     1      -0.851  13.123  21.943  0.00  0.00    +0.000 N 
ATOM     13  C   UNL     1      -1.302  12.660  20.704  0.00  0.00    +0.000 C 
ATOM     14  O   UNL     1      -2.268  13.138  20.121  0.00  0.00    +0.000 OA
ATOM     15  H   UNL     1      -0.281  12.449  22.434  0.00  0.00    +0.000 HD
BRANCH  12  24
ATOM     16  C   UNL     1      -3.194  12.257  23.610  0.00  0.00    +0.000 C 
ATOM     17  C   UNL     1      -2.668  13.664  23.533  0.00  0.00    +0.000 A 
ATOM     18  C   UNL     1      -3.384  14.649  24.243  0.00  0.00    +0.000 A 
ATOM     19  C   UNL     1      -3.018  15.987  24.174  0.00  0.00    +0.000 A 
ATOM     20 BR   UNL     1      -4.008  17.282  25.129  0.00  0.00    +0.000 Br
ATOM     21  C   UNL     1      -1.937  16.375  23.395  0.00  0.00    +0.000 A 
ATOM     22  C   UNL     1      -1.205  15.421  22.664  0.00  0.00    +0.000 A 
ATOM     23  C   UNL     1      -0.029  15.918  21.863  0.00  0.00    +0.000 C 
ATOM     24  C   UNL     1      -1.557  14.051  22.749  0.00  0.00    +0.000 A 
ENDBRANCH  12  24
ENDBRANCH   1  13
BRANCH   6  25
ATOM     25  C   UNL     1       2.988   6.564  19.643  0.00  0.00    +0.000 C 
BRANCH  25  26
ATOM     26  C   UNL     1       2.196   5.286  19.511  0.00  0.00    +0.000 A 
ATOM     27  C   UNL     1       1.934   4.736  18.247  0.00  0.00    +0.000 A 
ATOM     28  C   UNL     1       1.334   3.478  18.131  0.00  0.00    +0.000 A 
ATOM     29  C   UNL     1       0.981   2.765  19.275  0.00  0.00    +0.000 A 
ATOM     30  C   UNL     1       1.192   3.331  20.525  0.00  0.00    +0.000 A 
ATOM     31  F   UNL     1       0.852   2.646  21.624  0.00  0.00    +0.000 F 
ATOM     32  C   UNL     1       1.782   4.584  20.652  0.00  0.00    +0.000 A 
ENDBRANCH  25  26
ENDBRANCH   6  25
TORSDOF 4
ENDMDL
MODEL 3
REMARK VINA RESULT:      -8.3      0.806      1.729
REMARK  Name = 
REMARK  7 active torsions:
REMARK  status: ('A' for Active; 'I' for Inactive)
REMARK    1  A    between atoms: C_1  and  C_2
REMARK    2  A    between atoms: C_7  and  C_8
REMARK    3  A    between atoms: C_9  and  N_10
REMARK    4  A    between atoms: C_11  and  C_13
REMARK    5  A    between atoms: N_18  and  C_19
REMARK    6  A    between atoms: C_19  and  C_20
REMARK    7  A    between atoms: C_30  and  C_31
REMARK                            x       y       z     vdW  Elec       q    Type
REMARK                         _______ _______ _______ _____ _____    ______ ____
ROOT
ATOM      1  C   UNL     1      -0.649  11.516  20.265  0.00  0.00    +0.000 A 
ATOM      2  S   UNL     1      -0.338  11.370  18.577  0.00  0.00    +0.000 S 
ATOM      3  C   UNL     1       0.603   9.972  18.778  0.00  0.00    +0.000 A 
ATOM      4  N   UNL     1       1.247   9.401  17.726  0.00  0.00    +0.000 NA
ATOM      5  C   UNL     1       1.967   8.370  18.034  0.00  0.00    +0.000 A 
ATOM      6  N   UNL     1       2.086   7.821  19.297  0.00  0.00    +0.000 N 
ATOM      7  C   UNL     1       1.415   8.361  20.390  0.00  0.00    +0.000 A 
ATOM      8  O   UNL     1       1.484   7.881  21.518  0.00  0.00    +0.000 OA
ATOM      9  C   UNL     1       0.626   9.550  20.087  0.00  0.00    +0.000 A 
ATOM     10  C   UNL     1      -0.143  10.416  20.963  0.00  0.00    +0.000 A 
ATOM     11  C   UNL     1      -0.320  10.203  22.436  0.00  0.00    +0.000 C 
ENDROOT
BRANCH   1  13
ATOM     12  N   UNL     1      -2.325  12.415  21.762  0.00  0.00    +0.000 N 
ATOM     13  C   UNL     1      -1.348  12.705  20.806  0.00  0.00    +0.000 C 
ATOM     14  O   UNL     1      -1.143  13.835  20.380  0.00  0.00    +0.000 OA
ATOM     15  H   UNL     1      -2.594  11.440  21.771  0.00  0.00    +0.000 HD
BRANCH  12  24
ATOM     16  C   UNL     1      -4.989  12.613  20.388  0.00  0.00    +0.000 C 
ATOM     17  C   UNL     1      -4.562  13.453  21.561  0.00  0.00    +0.000 A 
ATOM     18  C   UNL     1      -5.461  14.451  21.987  0.00  0.00    +0.000 A 
ATOM     19  C   UNL     1      -5.126  15.323  23.015  0.00  0.00    +0.000 A 
ATOM     20 BR   UNL     1      -6.351  16.658  23.551  0.00  0.00    +0.000 Br
ATOM     21  C   UNL     1      -3.889  15.225  23.637  0.00  0.00    +0.000 A 
ATOM     22  C   UNL     1      -2.962  14.247  23.232  0.00  0.00    +0.000 A 
ATOM     23  C   UNL     1      -1.652  14.188  23.975  0.00  0.00    +0.000 C 
ATOM     24  C   UNL     1      -3.307  13.338  22.201  0.00  0.00    +0.000 A 
ENDBRANCH  12  24
ENDBRANCH   1  13
BRANCH   6  25
ATOM     25  C   UNL     1       2.952   6.662  19.512  0.00  0.00    +0.000 C 
BRANCH  25  26
ATOM     26  C   UNL     1       2.187   5.367  19.392  0.00  0.00    +0.000 A 
ATOM     27  C   UNL     1       1.953   4.789  18.135  0.00  0.00    +0.000 A 
ATOM     28  C   UNL     1       1.379   3.518  18.033  0.00  0.00    +0.000 A 
ATOM     29  C   UNL     1       1.023   2.819  19.185  0.00  0.00    +0.000 A 
ATOM     30  C   UNL     1       1.206   3.411  20.427  0.00  0.00    +0.000 A 
ATOM     31  F   UNL     1       0.863   2.740  21.534  0.00  0.00    +0.000 F 
ATOM     32  C   UNL     1       1.770   4.678  20.540  0.00  0.00    +0.000 A 
ENDBRANCH  25  26
ENDBRANCH   6  25
TORSDOF 4
ENDMDL
MODEL 4
REMARK VINA RESULT:      -8.0      3.191      4.188
REMARK  Name = 
REMARK  7 active torsions:
REMARK  status: ('A' for Active; 'I' for Inactive)
REMARK    1  A    between atoms: C_1  and  C_2
REMARK    2  A    between atoms: C_7  and  C_8
REMARK    3  A    between atoms: C_9  and  N_10
REMARK    4  A    between atoms: C_11  and  C_13
REMARK    5  A    between atoms: N_18  and  C_19
REMARK    6  A    between atoms: C_19  and  C_20
REMARK    7  A    between atoms: C_30  and  C_31
REMARK                            x       y       z     vdW  Elec       q    Type
REMARK                         _______ _______ _______ _____ _____    ______ ____
ROOT
ATOM      1  C   UNL     1       0.550  10.383  19.613  0.00  0.00    +0.000 A 
ATOM      2  S   UNL     1       1.353  10.422  18.089  0.00  0.00    +0.000 S 
ATOM      3  C   UNL     1       2.046   8.889  18.312  0.00  0.00    +0.000 A 
ATOM      4  N   UNL     1       2.926   8.377  17.410  0.00  0.00    +0.000 NA
ATOM      5  C   UNL     1       3.412   7.222  17.733  0.00  0.00    +0.000 A 
ATOM      6  N   UNL     1       3.080   6.497  18.862  0.00  0.00    +0.000 N 
ATOM      7  C   UNL     1       2.159   6.976  19.789  0.00  0.00    +0.000 A 
ATOM      8  O   UNL     1       1.829   6.343  20.788  0.00  0.00    +0.000 OA
ATOM      9  C   UNL     1       1.621   8.296  19.479  0.00  0.00    +0.000 A 
ATOM     10  C   UNL     1       0.706   9.139  20.228  0.00  0.00    +0.000 A 
ATOM     11  C   UNL     1       0.062   8.757  21.527  0.00  0.00    +0.000 C 
ENDROOT
BRANCH   1  13
ATOM     12  N   UNL     1       0.449  12.192  21.218  0.00  0.00    +0.000 N 
ATOM     13  C   UNL     1      -0.164  11.577  20.123  0.00  0.00    +0.000 C 
ATOM     14  O   UNL     1      -1.247  11.934  19.674  0.00  0.00    +0.000 OA
ATOM     15  H   UNL     1       1.143  11.608  21.663  0.00  0.00    +0.000 HD
BRANCH  12  24
ATOM     16  C   UNL     1      -1.674  11.389  23.185  0.00  0.00    +0.000 C 
ATOM     17  C   UNL     1      -1.190  12.797  22.969  0.00  0.00    +0.000 A 
ATOM     18  C   UNL     1      -1.843  13.811  23.699  0.00  0.00    +0.000 A 
ATOM     19  C   UNL     1      -1.515  15.148  23.515  0.00  0.00    +0.000 A 
ATOM     20 BR   UNL     1      -2.421  16.482  24.501  0.00  0.00    +0.000 Br
ATOM     21  C   UNL     1      -0.537  15.506  22.598  0.00  0.00    +0.000 A 
ATOM     22  C   UNL     1       0.129  14.522  21.844  0.00  0.00    +0.000 A 
ATOM     23  C   UNL     1       1.198  14.990  20.889  0.00  0.00    +0.000 C 
ATOM     24  C   UNL     1      -0.182  13.154  22.045  0.00  0.00    +0.000 A 
ENDBRANCH  12  24
ENDBRANCH   1  13
BRANCH   6  25
ATOM     25  C   UNL     1       3.721   5.207  19.118  0.00  0.00    +0.000 C 
BRANCH  25  26
ATOM     26  C   UNL     1       5.014   5.068  18.352  0.00  0.00    +0.000 A 
ATOM     27  C   UNL     1       6.227   5.492  18.915  0.00  0.00    +0.000 A 
ATOM     28  C   UNL     1       7.440   5.227  18.272  0.00  0.00    +0.000 A 
ATOM     29  C   UNL     1       7.451   4.546  17.057  0.00  0.00    +0.000 A 
ATOM     30  C   UNL     1       6.249   4.172  16.472  0.00  0.00    +0.000 A 
ATOM     31  F   UNL     1       6.258   3.518  15.304  0.00  0.00    +0.000 F 
ATOM     32  C   UNL     1       5.035   4.436  17.100  0.00  0.00    +0.000 A 
ENDBRANCH  25  26
ENDBRANCH   6  25
TORSDOF 4
ENDMDL
MODEL 5
REMARK VINA RESULT:      -8.0      2.136      2.548
REMARK  Name = 
REMARK  7 active torsions:
REMARK  status: ('A' for Active; 'I' for Inactive)
REMARK    1  A    between atoms: C_1  and  C_2
REMARK    2  A    between atoms: C_7  and  C_8
REMARK    3  A    between atoms: C_9  and  N_10
REMARK    4  A    between atoms: C_11  and  C_13
REMARK    5  A    between atoms: N_18  and  C_19
REMARK    6  A    between atoms: C_19  and  C_20
REMARK    7  A    between atoms: C_30  and  C_31
REMARK                            x       y       z     vdW  Elec       q    Type
REMARK                         _______ _______ _______ _____ _____    ______ ____
ROOT
ATOM      1  C   UNL     1      -0.132  11.413  19.946  0.00  0.00    +0.000 A 
ATOM      2  S   UNL     1       0.373  11.260  18.307  0.00  0.00    +0.000 S 
ATOM      3  C   UNL     1       1.172   9.790  18.595  0.00  0.00    +0.000 A 
ATOM      4  N   UNL     1       1.896   9.180  17.619  0.00  0.00    +0.000 NA
ATOM      5  C   UNL     1       2.491   8.094  17.993  0.00  0.00    +0.000 A 
ATOM      6  N   UNL     1       2.410   7.525  19.250  0.00  0.00    +0.000 N 
ATOM      7  C   UNL     1       1.652   8.106  20.263  0.00  0.00    +0.000 A 
ATOM      8  O   UNL     1       1.545   7.610  21.382  0.00  0.00    +0.000 OA
ATOM      9  C   UNL     1       1.000   9.356  19.889  0.00  0.00    +0.000 A 
ATOM     10  C   UNL     1       0.198  10.271  20.680  0.00  0.00    +0.000 A 
ATOM     11  C   UNL     1      -0.176  10.059  22.116  0.00  0.00    +0.000 C 
ENDROOT
BRANCH   1  13
ATOM     12  N   UNL     1      -0.392  13.075  21.687  0.00  0.00    +0.000 N 
ATOM     13  C   UNL     1      -0.800  12.649  20.420  0.00  0.00    +0.000 C 
ATOM     14  O   UNL     1      -1.697  13.192  19.787  0.00  0.00    +0.000 OA
ATOM     15  H   UNL     1       0.104  12.363  22.204  0.00  0.00    +0.000 HD
BRANCH  12  24
ATOM     16  C   UNL     1       0.509  15.940  21.742  0.00  0.00    +0.000 C 
ATOM     17  C   UNL     1      -0.666  15.393  22.506  0.00  0.00    +0.000 A 
ATOM     18  C   UNL     1      -1.337  16.289  23.364  0.00  0.00    +0.000 A 
ATOM     19  C   UNL     1      -2.387  15.860  24.165  0.00  0.00    +0.000 A 
ATOM     20 BR   UNL     1      -3.255  17.085  25.312  0.00  0.00    +0.000 Br
ATOM     21  C   UNL     1      -2.789  14.532  24.134  0.00  0.00    +0.000 A 
ATOM     22  C   UNL     1      -2.137  13.607  23.299  0.00  0.00    +0.000 A 
ATOM     23  C   UNL     1      -2.650  12.189  23.303  0.00  0.00    +0.000 C 
ATOM     24  C   UNL     1      -1.081  14.043  22.460  0.00  0.00    +0.000 A 
ENDBRANCH  12  24
ENDBRANCH   1  13
BRANCH   6  25
ATOM     25  C   UNL     1       3.152   6.299  19.549  0.00  0.00    +0.000 C 
BRANCH  25  26
ATOM     26  C   UNL     1       2.258   5.084  19.499  0.00  0.00    +0.000 A 
ATOM     27  C   UNL     1       1.861   4.539  18.269  0.00  0.00    +0.000 A 
ATOM     28  C   UNL     1       1.161   3.329  18.221  0.00  0.00    +0.000 A 
ATOM     29  C   UNL     1       0.842   2.661  19.402  0.00  0.00    +0.000 A 
ATOM     30  C   UNL     1       1.189   3.225  20.622  0.00  0.00    +0.000 A 
ATOM     31  F   UNL     1       0.882   2.583  21.756  0.00  0.00    +0.000 F 
ATOM     32  C   UNL     1       1.880   4.431  20.682  0.00  0.00    +0.000 A 
ENDBRANCH  25  26
ENDBRANCH   6  25
TORSDOF 4
ENDMDL
MODEL 6
REMARK VINA RESULT:      -8.0      3.242      4.216
REMARK  Name = 
REMARK  7 active torsions:
REMARK  status: ('A' for Active; 'I' for Inactive)
REMARK    1  A    between atoms: C_1  and  C_2
REMARK    2  A    between atoms: C_7  and  C_8
REMARK    3  A    between atoms: C_9  and  N_10
REMARK    4  A    between atoms: C_11  and  C_13
REMARK    5  A    between atoms: N_18  and  C_19
REMARK    6  A    between atoms: C_19  and  C_20
REMARK    7  A    between atoms: C_30  and  C_31
REMARK                            x       y       z     vdW  Elec       q    Type
REMARK                         _______ _______ _______ _____ _____    ______ ____
ROOT
ATOM      1  C   UNL     1       0.650  10.315  19.580  0.00  0.00    +0.000 A 
ATOM      2  S   UNL     1       1.497  10.308  18.080  0.00  0.00    +0.000 S 
ATOM      3  C   UNL     1       2.123   8.752  18.336  0.00  0.00    +0.000 A 
ATOM      4  N   UNL     1       3.008   8.198  17.465  0.00  0.00    +0.000 NA
ATOM      5  C   UNL     1       3.440   7.028  17.811  0.00  0.00    +0.000 A 
ATOM      6  N   UNL     1       3.048   6.327  18.936  0.00  0.00    +0.000 N 
ATOM      7  C   UNL     1       2.120   6.851  19.832  0.00  0.00    +0.000 A 
ATOM      8  O   UNL     1       1.737   6.241  20.827  0.00  0.00    +0.000 OA
ATOM      9  C   UNL     1       1.643   8.187  19.495  0.00  0.00    +0.000 A 
ATOM     10  C   UNL     1       0.740   9.072  20.210  0.00  0.00    +0.000 A 
ATOM     11  C   UNL     1       0.045   8.728  21.493  0.00  0.00    +0.000 C 
ENDROOT
BRANCH   1  13
ATOM     12  N   UNL     1       0.556  12.125  21.184  0.00  0.00    +0.000 N 
ATOM     13  C   UNL     1      -0.031  11.541  20.059  0.00  0.00    +0.000 C 
ATOM     14  O   UNL     1      -1.074  11.948  19.559  0.00  0.00    +0.000 OA
ATOM     15  H   UNL     1       1.200  11.509  21.660  0.00  0.00    +0.000 HD
BRANCH  12  24
ATOM     16  C   UNL     1      -1.620  11.403  23.124  0.00  0.00    +0.000 C 
ATOM     17  C   UNL     1      -1.101  12.797  22.894  0.00  0.00    +0.000 A 
ATOM     18  C   UNL     1      -1.745  13.837  23.594  0.00  0.00    +0.000 A 
ATOM     19  C   UNL     1      -1.385  15.163  23.393  0.00  0.00    +0.000 A 
ATOM     20 BR   UNL     1      -2.279  16.533  24.339  0.00  0.00    +0.000 Br
ATOM     21  C   UNL     1      -0.382  15.483  22.489  0.00  0.00    +0.000 A 
ATOM     22  C   UNL     1       0.276  14.473  21.764  0.00  0.00    +0.000 A 
ATOM     23  C   UNL     1       1.372  14.900  20.821  0.00  0.00    +0.000 C 
ATOM     24  C   UNL     1      -0.069  13.115  21.983  0.00  0.00    +0.000 A 
ENDBRANCH  12  24
ENDBRANCH   1  13
BRANCH   6  25
ATOM     25  C   UNL     1       3.631   5.016  19.222  0.00  0.00    +0.000 C 
BRANCH  25  26
ATOM     26  C   UNL     1       4.997   4.868  18.597  0.00  0.00    +0.000 A 
ATOM     27  C   UNL     1       5.144   4.277  17.333  0.00  0.00    +0.000 A 
ATOM     28  C   UNL     1       6.385   4.277  16.689  0.00  0.00    +0.000 A 
ATOM     29  C   UNL     1       7.491   4.857  17.307  0.00  0.00    +0.000 A 
ATOM     30  C   UNL     1       7.359   5.396  18.579  0.00  0.00    +0.000 A 
ATOM     31  F   UNL     1       8.422   5.953  19.173  0.00  0.00    +0.000 F 
ATOM     32  C   UNL     1       6.131   5.396  19.232  0.00  0.00    +0.000 A 
ENDBRANCH  25  26
ENDBRANCH   6  25
TORSDOF 4
ENDMDL
MODEL 7
REMARK VINA RESULT:      -8.0      3.253      4.245
REMARK  Name = 
REMARK  7 active torsions:
REMARK  status: ('A' for Active; 'I' for Inactive)
REMARK    1  A    between atoms: C_1  and  C_2
REMARK    2  A    between atoms: C_7  and  C_8
REMARK    3  A    between atoms: C_9  and  N_10
REMARK    4  A    between atoms: C_11  and  C_13
REMARK    5  A    between atoms: N_18  and  C_19
REMARK    6  A    between atoms: C_19  and  C_20
REMARK    7  A    between atoms: C_30  and  C_31
REMARK                            x       y       z     vdW  Elec       q    Type
REMARK                         _______ _______ _______ _____ _____    ______ ____
ROOT
ATOM      1  C   UNL     1       0.530  10.370  19.600  0.00  0.00    +0.000 A 
ATOM      2  S   UNL     1       1.359  10.415  18.091  0.00  0.00    +0.000 S 
ATOM      3  C   UNL     1       2.061   8.887  18.328  0.00  0.00    +0.000 A 
ATOM      4  N   UNL     1       2.960   8.381  17.443  0.00  0.00    +0.000 NA
ATOM      5  C   UNL     1       3.450   7.230  17.775  0.00  0.00    +0.000 A 
ATOM      6  N   UNL     1       3.103   6.504  18.898  0.00  0.00    +0.000 N 
ATOM      7  C   UNL     1       2.162   6.977  19.808  0.00  0.00    +0.000 A 
ATOM      8  O   UNL     1       1.820   6.342  20.803  0.00  0.00    +0.000 OA
ATOM      9  C   UNL     1       1.620   8.292  19.487  0.00  0.00    +0.000 A 
ATOM     10  C   UNL     1       0.685   9.128  20.220  0.00  0.00    +0.000 A 
ATOM     11  C   UNL     1       0.021   8.742  21.507  0.00  0.00    +0.000 C 
ENDROOT
BRANCH   1  13
ATOM     12  N   UNL     1       0.403  12.198  21.183  0.00  0.00    +0.000 N 
ATOM     13  C   UNL     1      -0.202  11.559  20.097  0.00  0.00    +0.000 C 
ATOM     14  O   UNL     1      -1.292  11.893  19.645  0.00  0.00    +0.000 OA
ATOM     15  H   UNL     1       1.107  11.630  21.634  0.00  0.00    +0.000 HD
BRANCH  12  24
ATOM     16  C   UNL     1       1.099  15.113  20.985  0.00  0.00    +0.000 C 
ATOM     17  C   UNL     1       0.080  14.535  21.928  0.00  0.00    +0.000 A 
ATOM     18  C   UNL     1      -0.531  15.431  22.829  0.00  0.00    +0.000 A 
ATOM     19  C   UNL     1      -1.432  14.980  23.785  0.00  0.00    +0.000 A 
ATOM     20 BR   UNL     1      -2.221  16.207  24.985  0.00  0.00    +0.000 Br
ATOM     21  C   UNL     1      -1.740  13.629  23.869  0.00  0.00    +0.000 A 
ATOM     22  C   UNL     1      -1.142  12.704  22.994  0.00  0.00    +0.000 A 
ATOM     23  C   UNL     1      -1.550  11.259  23.133  0.00  0.00    +0.000 C 
ATOM     24  C   UNL     1      -0.242  13.160  21.999  0.00  0.00    +0.000 A 
ENDBRANCH  12  24
ENDBRANCH   1  13
BRANCH   6  25
ATOM     25  C   UNL     1       3.750   5.219  19.167  0.00  0.00    +0.000 C 
BRANCH  25  26
ATOM     26  C   UNL     1       5.045   5.079  18.404  0.00  0.00    +0.000 A 
ATOM     27  C   UNL     1       6.261   5.474  18.982  0.00  0.00    +0.000 A 
ATOM     28  C   UNL     1       7.473   5.206  18.339  0.00  0.00    +0.000 A 
ATOM     29  C   UNL     1       7.480   4.552  17.109  0.00  0.00    +0.000 A 
ATOM     30  C   UNL     1       6.275   4.207  16.511  0.00  0.00    +0.000 A 
ATOM     31  F   UNL     1       6.282   3.580  15.328  0.00  0.00    +0.000 F 
ATOM     32  C   UNL     1       5.063   4.475  17.138  0.00  0.00    +0.000 A 
ENDBRANCH  25  26
ENDBRANCH   6  25
TORSDOF 4
ENDMDL
MODEL 8
REMARK VINA RESULT:      -8.0      3.070      4.001
REMARK  Name = 
REMARK  7 active torsions:
REMARK  status: ('A' for Active; 'I' for Inactive)
REMARK    1  A    between atoms: C_1  and  C_2
REMARK    2  A    between atoms: C_7  and  C_8
REMARK    3  A    between atoms: C_9  and  N_10
REMARK    4  A    between atoms: C_11  and  C_13
REMARK    5  A    between atoms: N_18  and  C_19
REMARK    6  A    between atoms: C_19  and  C_20
REMARK    7  A    between atoms: C_30  and  C_31
REMARK                            x       y       z     vdW  Elec       q    Type
REMARK                         _______ _______ _______ _____ _____    ______ ____
ROOT
ATOM      1  C   UNL     1       0.994  10.242  20.092  0.00  0.00    +0.000 A 
ATOM      2  S   UNL     1       1.548  10.336  18.464  0.00  0.00    +0.000 S 
ATOM      3  C   UNL     1       2.074   8.722  18.454  0.00  0.00    +0.000 A 
ATOM      4  N   UNL     1       2.733   8.203  17.384  0.00  0.00    +0.000 NA
ATOM      5  C   UNL     1       3.118   6.977  17.534  0.00  0.00    +0.000 A 
ATOM      6  N   UNL     1       2.879   6.190  18.645  0.00  0.00    +0.000 N 
ATOM      7  C   UNL     1       2.179   6.679  19.744  0.00  0.00    +0.000 A 
ATOM      8  O   UNL     1       1.933   5.995  20.735  0.00  0.00    +0.000 OA
ATOM      9  C   UNL     1       1.766   8.073  19.627  0.00  0.00    +0.000 A 
ATOM     10  C   UNL     1       1.089   8.936  20.578  0.00  0.00    +0.000 A 
ATOM     11  C   UNL     1       0.612   8.508  21.933  0.00  0.00    +0.000 C 
ENDROOT
BRANCH   1  13
ATOM     12  N   UNL     1      -0.816  11.782  20.554  0.00  0.00    +0.000 N 
ATOM     13  C   UNL     1       0.520  11.454  20.801  0.00  0.00    +0.000 C 
ATOM     14  O   UNL     1       1.268  12.154  21.473  0.00  0.00    +0.000 OA
ATOM     15  H   UNL     1      -1.198  11.307  19.748  0.00  0.00    +0.000 HD
BRANCH  12  24
ATOM     16  C   UNL     1      -0.394  14.191  18.811  0.00  0.00    +0.000 C 
ATOM     17  C   UNL     1      -1.206  14.178  20.077  0.00  0.00    +0.000 A 
ATOM     18  C   UNL     1      -1.739  15.412  20.501  0.00  0.00    +0.000 A 
ATOM     19  C   UNL     1      -2.441  15.515  21.695  0.00  0.00    +0.000 A 
ATOM     20 BR   UNL     1      -3.131  17.187  22.239  0.00  0.00    +0.000 Br
ATOM     21  C   UNL     1      -2.624  14.394  22.494  0.00  0.00    +0.000 A 
ATOM     22  C   UNL     1      -2.097  13.148  22.109  0.00  0.00    +0.000 A 
ATOM     23  C   UNL     1      -2.361  11.975  23.018  0.00  0.00    +0.000 C 
ATOM     24  C   UNL     1      -1.401  13.031  20.879  0.00  0.00    +0.000 A 
ENDBRANCH  12  24
ENDBRANCH   1  13
BRANCH   6  25
ATOM     25  C   UNL     1       3.388   4.819  18.695  0.00  0.00    +0.000 C 
BRANCH  25  26
ATOM     26  C   UNL     1       4.816   4.741  18.211  0.00  0.00    +0.000 A 
ATOM     27  C   UNL     1       5.113   4.227  16.940  0.00  0.00    +0.000 A 
ATOM     28  C   UNL     1       6.414   4.294  16.432  0.00  0.00    +0.000 A 
ATOM     29  C   UNL     1       7.431   4.863  17.195  0.00  0.00    +0.000 A 
ATOM     30  C   UNL     1       7.150   5.325  18.474  0.00  0.00    +0.000 A 
ATOM     31  F   UNL     1       8.128   5.872  19.207  0.00  0.00    +0.000 F 
ATOM     32  C   UNL     1       5.861   5.258  18.991  0.00  0.00    +0.000 A 
ENDBRANCH  25  26
ENDBRANCH   6  25
TORSDOF 4
ENDMDL
MODEL 9
REMARK VINA RESULT:      -8.0      3.294      4.252
REMARK  Name = 
REMARK  7 active torsions:
REMARK  status: ('A' for Active; 'I' for Inactive)
REMARK    1  A    between atoms: C_1  and  C_2
REMARK    2  A    between atoms: C_7  and  C_8
REMARK    3  A    between atoms: C_9  and  N_10
REMARK    4  A    between atoms: C_11  and  C_13
REMARK    5  A    between atoms: N_18  and  C_19
REMARK    6  A    between atoms: C_19  and  C_20
REMARK    7  A    between atoms: C_30  and  C_31
REMARK                            x       y       z     vdW  Elec       q    Type
REMARK                         _______ _______ _______ _____ _____    ______ ____
ROOT
ATOM      1  C   UNL     1       0.654  10.378  19.562  0.00  0.00    +0.000 A 
ATOM      2  S   UNL     1       1.510  10.358  18.068  0.00  0.00    +0.000 S 
ATOM      3  C   UNL     1       2.127   8.800  18.338  0.00  0.00    +0.000 A 
ATOM      4  N   UNL     1       3.014   8.236  17.476  0.00  0.00    +0.000 NA
ATOM      5  C   UNL     1       3.437   7.066  17.832  0.00  0.00    +0.000 A 
ATOM      6  N   UNL     1       3.034   6.374  18.959  0.00  0.00    +0.000 N 
ATOM      7  C   UNL     1       2.103   6.908  19.845  0.00  0.00    +0.000 A 
ATOM      8  O   UNL     1       1.710   6.306  20.841  0.00  0.00    +0.000 OA
ATOM      9  C   UNL     1       1.636   8.245  19.497  0.00  0.00    +0.000 A 
ATOM     10  C   UNL     1       0.733   9.138  20.201  0.00  0.00    +0.000 A 
ATOM     11  C   UNL     1       0.027   8.806  21.481  0.00  0.00    +0.000 C 
ENDROOT
BRANCH   1  13
ATOM     12  N   UNL     1       0.538  12.180  21.175  0.00  0.00    +0.000 N 
ATOM     13  C   UNL     1      -0.024  11.610  20.030  0.00  0.00    +0.000 C 
ATOM     14  O   UNL     1      -1.046  12.035  19.502  0.00  0.00    +0.000 OA
ATOM     15  H   UNL     1       1.159  11.551  21.666  0.00  0.00    +0.000 HD
BRANCH  12  24
ATOM     16  C   UNL     1       1.381  15.058  21.009  0.00  0.00    +0.000 C 
ATOM     17  C   UNL     1       0.294  14.531  21.906  0.00  0.00    +0.000 A 
ATOM     18  C   UNL     1      -0.313  15.456  22.779  0.00  0.00    +0.000 A 
ATOM     19  C   UNL     1      -1.275  15.051  23.694  0.00  0.00    +0.000 A 
ATOM     20 BR   UNL     1      -2.058  16.316  24.859  0.00  0.00    +0.000 Br
ATOM     21  C   UNL     1      -1.651  13.716  23.765  0.00  0.00    +0.000 A 
ATOM     22  C   UNL     1      -1.060  12.762  22.917  0.00  0.00    +0.000 A 
ATOM     23  C   UNL     1      -1.541  11.338  23.037  0.00  0.00    +0.000 C 
ATOM     24  C   UNL     1      -0.096  13.173  21.963  0.00  0.00    +0.000 A 
ENDBRANCH  12  24
ENDBRANCH   1  13
BRANCH   6  25
ATOM     25  C   UNL     1       3.608   5.061  19.256  0.00  0.00    +0.000 C 
BRANCH  25  26
ATOM     26  C   UNL     1       4.969   4.895  18.625  0.00  0.00    +0.000 A 
ATOM     27  C   UNL     1       5.103   4.301  17.361  0.00  0.00    +0.000 A 
ATOM     28  C   UNL     1       6.342   4.285  16.712  0.00  0.00    +0.000 A 
ATOM     29  C   UNL     1       7.458   4.851  17.324  0.00  0.00    +0.000 A 
ATOM     30  C   UNL     1       7.338   5.393  18.597  0.00  0.00    +0.000 A 
ATOM     31  F   UNL     1       8.411   5.936  19.186  0.00  0.00    +0.000 F 
ATOM     32  C   UNL     1       6.112   5.409  19.255  0.00  0.00    +0.000 A 
ENDBRANCH  25  26
ENDBRANCH   6  25
TORSDOF 4
ENDMDL
