MODEL 1
REMARK VINA RESULT:      -8.5      0.000      0.000
REMARK  Name = 
REMARK  11 active torsions:
REMARK  status: ('A' for Active; 'I' for Inactive)
REMARK    1  A    between atoms: C_1  and  C_2
REMARK    2  A    between atoms: C_2  and  C_3
REMARK    3  A    between atoms: C_2  and  C_4
REMARK    4  A    between atoms: C_2  and  N_5
REMARK    5  A    between atoms: N_5  and  C_6
REMARK    6  A    between atoms: C_6  and  C_7
REMARK    7  A    between atoms: C_13  and  C_15
REMARK    8  A    between atoms: C_15  and  O_16
REMARK    9  A    between atoms: O_16  and  C_17
REMARK   10  A    between atoms: C_17  and  C_19
REMARK   11  A    between atoms: N_21  and  C_22
REMARK                            x       y       z     vdW  Elec       q    Type
REMARK                         _______ _______ _______ _____ _____    ______ ____
ROOT
ATOM      1  O   UNL     1       2.332   8.396  18.715  0.00  0.00    +0.000 OA
ENDROOT
BRANCH   1   2
ATOM      2  C   UNL     1       1.964   7.732  19.827  0.00  0.00    +0.000 C 
ATOM      3  O   UNL     1       1.265   8.124  20.742  0.00  0.00    +0.000 OA
BRANCH   2   4
ATOM      4  C   UNL     1       2.449   6.281  19.729  0.00  0.00    +0.000 C 
ATOM      5  N   UNL     1       3.425   6.005  18.923  0.00  0.00    +0.000 NA
ATOM      6  N   UNL     1       3.811   4.698  18.730  0.00  0.00    +0.000 N 
ATOM      7  C   UNL     1       3.112   3.599  19.242  0.00  0.00    +0.000 C 
ATOM      8  O   UNL     1       3.448   2.418  19.137  0.00  0.00    +0.000 OA
ATOM      9  C   UNL     1       1.801   3.913  19.921  0.00  0.00    +0.000 C 
ATOM     10  C   UNL     1       1.760   5.268  20.583  0.00  0.00    +0.000 C 
BRANCH   6  11
ATOM     11  C   UNL     1       4.914   4.572  17.821  0.00  0.00    +0.000 A 
ATOM     12  C   UNL     1       4.723   4.326  16.453  0.00  0.00    +0.000 A 
ATOM     13  C   UNL     1       5.808   4.253  15.573  0.00  0.00    +0.000 A 
ATOM     14  C   UNL     1       7.106   4.404  16.049  0.00  0.00    +0.000 A 
ATOM     15  C   UNL     1       7.321   4.642  17.401  0.00  0.00    +0.000 A 
ATOM     16  C   UNL     1       6.234   4.741  18.277  0.00  0.00    +0.000 A 
ENDBRANCH   6  11
ENDBRANCH   2   4
ENDBRANCH   1   2
BRANCH   1  17
ATOM     17  C   UNL     1       1.347   9.200  18.084  0.00  0.00    +0.000 C 
BRANCH  17  19
ATOM     18  N   UNL     1       0.142  11.199  19.122  0.00  0.00    +0.000 N 
ATOM     19  C   UNL     1       1.295  10.683  18.497  0.00  0.00    +0.000 C 
ATOM     20  O   UNL     1       2.318  11.344  18.301  0.00  0.00    +0.000 OA
BRANCH  18  22
ATOM     21  C   UNL     1      -0.190  13.593  18.350  0.00  0.00    +0.000 C 
ATOM     22  C   UNL     1       0.043  12.658  19.559  0.00  0.00    +0.000 C 
ATOM     23  C   UNL     1       1.343  13.103  20.268  0.00  0.00    +0.000 C 
ATOM     24  C   UNL     1      -1.111  12.973  20.544  0.00  0.00    +0.000 C 
ENDBRANCH  18  22
BRANCH  18  25
ATOM     25  C   UNL     1      -1.086  10.374  19.205  0.00  0.00    +0.000 C 
BRANCH  25  26
ATOM     26  C   UNL     1      -2.071  10.490  18.059  0.00  0.00    +0.000 A 
ATOM     27  C   UNL     1      -1.911   9.826  16.837  0.00  0.00    +0.000 A 
ATOM     28  C   UNL     1      -2.840   9.992  15.806  0.00  0.00    +0.000 A 
ATOM     29  C   UNL     1      -3.944  10.821  15.983  0.00  0.00    +0.000 A 
ATOM     30  C   UNL     1      -4.139  11.462  17.203  0.00  0.00    +0.000 A 
ATOM     31  C   UNL     1      -3.214  11.290  18.236  0.00  0.00    +0.000 A 
ENDBRANCH  25  26
ENDBRANCH  18  25
ENDBRANCH  17  19
ENDBRANCH   1  17
TORSDOF 8
ENDMDL
MODEL 2
REMARK VINA RESULT:      -8.5      0.076      1.442
REMARK  Name = 
REMARK  11 active torsions:
REMARK  status: ('A' for Active; 'I' for Inactive)
REMARK    1  A    between atoms: C_1  and  C_2
REMARK    2  A    between atoms: C_2  and  C_3
REMARK    3  A    between atoms: C_2  and  C_4
REMARK    4  A    between atoms: C_2  and  N_5
REMARK    5  A    between atoms: N_5  and  C_6
REMARK    6  A    between atoms: C_6  and  C_7
REMARK    7  A    between atoms: C_13  and  C_15
REMARK    8  A    between atoms: C_15  and  O_16
REMARK    9  A    between atoms: O_16  and  C_17
REMARK   10  A    between atoms: C_17  and  C_19
REMARK   11  A    between atoms: N_21  and  C_22
REMARK                            x       y       z     vdW  Elec       q    Type
REMARK                         _______ _______ _______ _____ _____    ______ ____
ROOT
ATOM      1  O   UNL     1       2.332   8.419  18.723  0.00  0.00    +0.000 OA
ENDROOT
BRANCH   1   2
ATOM      2  C   UNL     1       1.962   7.748  19.829  0.00  0.00    +0.000 C 
ATOM      3  O   UNL     1       1.237   8.124  20.732  0.00  0.00    +0.000 OA
BRANCH   2   4
ATOM      4  C   UNL     1       2.484   6.310  19.743  0.00  0.00    +0.000 C 
ATOM      5  N   UNL     1       3.455   6.049  18.926  0.00  0.00    +0.000 NA
ATOM      6  N   UNL     1       3.874   4.750  18.745  0.00  0.00    +0.000 N 
ATOM      7  C   UNL     1       3.212   3.640  19.282  0.00  0.00    +0.000 C 
ATOM      8  O   UNL     1       3.580   2.467  19.186  0.00  0.00    +0.000 OA
ATOM      9  C   UNL     1       1.904   3.928  19.975  0.00  0.00    +0.000 C 
ATOM     10  C   UNL     1       1.836   5.289  20.620  0.00  0.00    +0.000 C 
BRANCH   6  11
ATOM     11  C   UNL     1       4.967   4.642  17.820  0.00  0.00    +0.000 A 
ATOM     12  C   UNL     1       6.302   4.758  18.235  0.00  0.00    +0.000 A 
ATOM     13  C   UNL     1       7.356   4.603  17.328  0.00  0.00    +0.000 A 
ATOM     14  C   UNL     1       7.094   4.349  15.986  0.00  0.00    +0.000 A 
ATOM     15  C   UNL     1       5.778   4.237  15.551  0.00  0.00    +0.000 A 
ATOM     16  C   UNL     1       4.725   4.366  16.463  0.00  0.00    +0.000 A 
ENDBRANCH   6  11
ENDBRANCH   2   4
ENDBRANCH   1   2
BRANCH   1  17
ATOM     17  C   UNL     1       1.346   9.223  18.092  0.00  0.00    +0.000 C 
BRANCH  17  19
ATOM     18  N   UNL     1       0.139  11.219  19.131  0.00  0.00    +0.000 N 
ATOM     19  C   UNL     1       1.293  10.706  18.505  0.00  0.00    +0.000 C 
ATOM     20  O   UNL     1       2.315  11.367  18.310  0.00  0.00    +0.000 OA
BRANCH  18  22
ATOM     21  C   UNL     1       1.352  13.160  20.226  0.00  0.00    +0.000 C 
ATOM     22  C   UNL     1       0.039  12.678  19.569  0.00  0.00    +0.000 C 
ATOM     23  C   UNL     1      -1.106  12.862  20.592  0.00  0.00    +0.000 C 
ATOM     24  C   UNL     1      -0.240  13.689  18.429  0.00  0.00    +0.000 C 
ENDBRANCH  18  22
BRANCH  18  25
ATOM     25  C   UNL     1      -1.088  10.393  19.213  0.00  0.00    +0.000 C 
BRANCH  25  26
ATOM     26  C   UNL     1      -2.102  10.555  18.098  0.00  0.00    +0.000 A 
ATOM     27  C   UNL     1      -3.231  11.375  18.198  0.00  0.00    +0.000 A 
ATOM     28  C   UNL     1      -4.147  11.464  17.147  0.00  0.00    +0.000 A 
ATOM     29  C   UNL     1      -3.945  10.737  15.977  0.00  0.00    +0.000 A 
ATOM     30  C   UNL     1      -2.810   9.942  15.844  0.00  0.00    +0.000 A 
ATOM     31  C   UNL     1      -1.891   9.859  16.893  0.00  0.00    +0.000 A 
ENDBRANCH  25  26
ENDBRANCH  18  25
ENDBRANCH  17  19
ENDBRANCH   1  17
TORSDOF 8
ENDMDL
MODEL 3
REMARK VINA RESULT:      -8.1      1.566      9.386
REMARK  Name = 
REMARK  11 active torsions:
REMARK  status: ('A' for Active; 'I' for Inactive)
REMARK    1  A    between atoms: C_1  and  C_2
REMARK    2  A    between atoms: C_2  and  C_3
REMARK    3  A    between atoms: C_2  and  C_4
REMARK    4  A    between atoms: C_2  and  N_5
REMARK    5  A    between atoms: N_5  and  C_6
REMARK    6  A    between atoms: C_6  and  C_7
REMARK    7  A    between atoms: C_13  and  C_15
REMARK    8  A    between atoms: C_15  and  O_16
REMARK    9  A    between atoms: O_16  and  C_17
REMARK   10  A    between atoms: C_17  and  C_19
REMARK   11  A    between atoms: N_21  and  C_22
REMARK                            x       y       z     vdW  Elec       q    Type
REMARK                         _______ _______ _______ _____ _____    ______ ____
ROOT
ATOM      1  O   UNL     1       2.030   8.061  19.404  0.00  0.00    +0.000 OA
ENDROOT
BRANCH   1   2
ATOM      2  C   UNL     1       1.693   9.057  18.564  0.00  0.00    +0.000 C 
ATOM      3  O   UNL     1       2.068   9.239  17.421  0.00  0.00    +0.000 OA
BRANCH   2   4
ATOM      4  C   UNL     1       0.600   9.914  19.214  0.00  0.00    +0.000 C 
ATOM      5  N   UNL     1      -0.466  10.186  18.530  0.00  0.00    +0.000 NA
ATOM      6  N   UNL     1      -1.415  11.041  19.043  0.00  0.00    +0.000 N 
ATOM      7  C   UNL     1      -1.239  11.778  20.221  0.00  0.00    +0.000 C 
ATOM      8  O   UNL     1      -2.079  12.515  20.741  0.00  0.00    +0.000 OA
ATOM      9  C   UNL     1       0.130  11.694  20.849  0.00  0.00    +0.000 C 
ATOM     10  C   UNL     1       0.837  10.383  20.612  0.00  0.00    +0.000 C 
BRANCH   6  11
ATOM     11  C   UNL     1      -2.536  11.219  18.165  0.00  0.00    +0.000 A 
ATOM     12  C   UNL     1      -2.454  10.945  16.793  0.00  0.00    +0.000 A 
ATOM     13  C   UNL     1      -3.570  11.078  15.960  0.00  0.00    +0.000 A 
ATOM     14  C   UNL     1      -4.785  11.509  16.483  0.00  0.00    +0.000 A 
ATOM     15  C   UNL     1      -4.889  11.794  17.839  0.00  0.00    +0.000 A 
ATOM     16  C   UNL     1      -3.779  11.634  18.676  0.00  0.00    +0.000 A 
ENDBRANCH   6  11
ENDBRANCH   2   4
ENDBRANCH   1   2
BRANCH   1  17
ATOM     17  C   UNL     1       2.617   6.902  18.833  0.00  0.00    +0.000 C 
BRANCH  17  19
ATOM     18  N   UNL     1       2.637   4.348  18.865  0.00  0.00    +0.000 N 
ATOM     19  C   UNL     1       2.290   5.555  19.504  0.00  0.00    +0.000 C 
ATOM     20  O   UNL     1       1.776   5.611  20.624  0.00  0.00    +0.000 OA
BRANCH  18  22
ATOM     21  C   UNL     1       2.902   1.836  18.625  0.00  0.00    +0.000 C 
ATOM     22  C   UNL     1       2.343   2.988  19.492  0.00  0.00    +0.000 C 
ATOM     23  C   UNL     1       0.819   2.776  19.645  0.00  0.00    +0.000 C 
ATOM     24  C   UNL     1       2.950   2.768  20.900  0.00  0.00    +0.000 C 
ENDBRANCH  18  22
BRANCH  18  25
ATOM     25  C   UNL     1       3.134   4.367  17.470  0.00  0.00    +0.000 C 
BRANCH  25  26
ATOM     26  C   UNL     1       4.635   4.434  17.275  0.00  0.00    +0.000 A 
ATOM     27  C   UNL     1       5.538   4.636  18.325  0.00  0.00    +0.000 A 
ATOM     28  C   UNL     1       6.912   4.716  18.082  0.00  0.00    +0.000 A 
ATOM     29  C   UNL     1       7.404   4.592  16.786  0.00  0.00    +0.000 A 
ATOM     30  C   UNL     1       6.525   4.356  15.732  0.00  0.00    +0.000 A 
ATOM     31  C   UNL     1       5.152   4.269  15.977  0.00  0.00    +0.000 A 
ENDBRANCH  25  26
ENDBRANCH  18  25
ENDBRANCH  17  19
ENDBRANCH   1  17
TORSDOF 8
ENDMDL
MODEL 4
REMARK VINA RESULT:      -8.1      1.729      8.955
REMARK  Name = 
REMARK  11 active torsions:
REMARK  status: ('A' for Active; 'I' for Inactive)
REMARK    1  A    between atoms: C_1  and  C_2
REMARK    2  A    between atoms: C_2  and  C_3
REMARK    3  A    between atoms: C_2  and  C_4
REMARK    4  A    between atoms: C_2  and  N_5
REMARK    5  A    between atoms: N_5  and  C_6
REMARK    6  A    between atoms: C_6  and  C_7
REMARK    7  A    between atoms: C_13  and  C_15
REMARK    8  A    between atoms: C_15  and  O_16
REMARK    9  A    between atoms: O_16  and  C_17
REMARK   10  A    between atoms: C_17  and  C_19
REMARK   11  A    between atoms: N_21  and  C_22
REMARK                            x       y       z     vdW  Elec       q    Type
REMARK                         _______ _______ _______ _____ _____    ______ ____
ROOT
ATOM      1  O   UNL     1       0.936   8.074  20.575  0.00  0.00    +0.000 OA
ENDROOT
BRANCH   1   2
ATOM      2  C   UNL     1       1.101   9.172  21.335  0.00  0.00    +0.000 C 
ATOM      3  O   UNL     1       1.643   9.263  22.421  0.00  0.00    +0.000 OA
BRANCH   2   4
ATOM      4  C   UNL     1       0.614  10.400  20.558  0.00  0.00    +0.000 C 
ATOM      5  N   UNL     1      -0.373  10.260  19.730  0.00  0.00    +0.000 NA
ATOM      6  N   UNL     1      -0.763  11.316  18.936  0.00  0.00    +0.000 N 
ATOM      7  C   UNL     1      -0.057  12.521  18.848  0.00  0.00    +0.000 C 
ATOM      8  O   UNL     1      -0.395  13.507  18.191  0.00  0.00    +0.000 OA
ATOM      9  C   UNL     1       1.263  12.564  19.578  0.00  0.00    +0.000 C 
ATOM     10  C   UNL     1       1.314  11.695  20.809  0.00  0.00    +0.000 C 
BRANCH   6  11
ATOM     11  C   UNL     1      -1.879  10.995  18.092  0.00  0.00    +0.000 A 
ATOM     12  C   UNL     1      -3.122  11.626  18.237  0.00  0.00    +0.000 A 
ATOM     13  C   UNL     1      -4.185  11.336  17.375  0.00  0.00    +0.000 A 
ATOM     14  C   UNL     1      -4.029  10.392  16.365  0.00  0.00    +0.000 A 
ATOM     15  C   UNL     1      -2.807   9.748  16.206  0.00  0.00    +0.000 A 
ATOM     16  C   UNL     1      -1.737  10.059  17.052  0.00  0.00    +0.000 A 
ENDBRANCH   6  11
ENDBRANCH   2   4
ENDBRANCH   1   2
BRANCH   1  17
ATOM     17  C   UNL     1       2.105   7.349  20.222  0.00  0.00    +0.000 C 
BRANCH  17  19
ATOM     18  N   UNL     1       2.620   5.205  18.934  0.00  0.00    +0.000 N 
ATOM     19  C   UNL     1       1.938   5.835  19.994  0.00  0.00    +0.000 C 
ATOM     20  O   UNL     1       1.240   5.231  20.811  0.00  0.00    +0.000 OA
BRANCH  18  22
ATOM     21  C   UNL     1       3.283   2.885  19.719  0.00  0.00    +0.000 C 
ATOM     22  C   UNL     1       2.498   3.706  18.671  0.00  0.00    +0.000 C 
ATOM     23  C   UNL     1       3.051   3.352  17.271  0.00  0.00    +0.000 C 
ATOM     24  C   UNL     1       1.054   3.146  18.715  0.00  0.00    +0.000 C 
ENDBRANCH  18  22
BRANCH  18  25
ATOM     25  C   UNL     1       3.335   6.021  17.925  0.00  0.00    +0.000 C 
BRANCH  25  26
ATOM     26  C   UNL     1       4.843   6.105  18.052  0.00  0.00    +0.000 A 
ATOM     27  C   UNL     1       5.657   6.768  17.126  0.00  0.00    +0.000 A 
ATOM     28  C   UNL     1       7.046   6.790  17.280  0.00  0.00    +0.000 A 
ATOM     29  C   UNL     1       7.641   6.153  18.364  0.00  0.00    +0.000 A 
ATOM     30  C   UNL     1       6.847   5.517  19.315  0.00  0.00    +0.000 A 
ATOM     31  C   UNL     1       5.458   5.502  19.164  0.00  0.00    +0.000 A 
ENDBRANCH  25  26
ENDBRANCH  18  25
ENDBRANCH  17  19
ENDBRANCH   1  17
TORSDOF 8
ENDMDL
MODEL 5
REMARK VINA RESULT:      -8.0      1.086      2.005
REMARK  Name = 
REMARK  11 active torsions:
REMARK  status: ('A' for Active; 'I' for Inactive)
REMARK    1  A    between atoms: C_1  and  C_2
REMARK    2  A    between atoms: C_2  and  C_3
REMARK    3  A    between atoms: C_2  and  C_4
REMARK    4  A    between atoms: C_2  and  N_5
REMARK    5  A    between atoms: N_5  and  C_6
REMARK    6  A    between atoms: C_6  and  C_7
REMARK    7  A    between atoms: C_13  and  C_15
REMARK    8  A    between atoms: C_15  and  O_16
REMARK    9  A    between atoms: O_16  and  C_17
REMARK   10  A    between atoms: C_17  and  C_19
REMARK   11  A    between atoms: N_21  and  C_22
REMARK                            x       y       z     vdW  Elec       q    Type
REMARK                         _______ _______ _______ _____ _____    ______ ____
ROOT
ATOM      1  O   UNL     1       1.316   8.455  20.730  0.00  0.00    +0.000 OA
ENDROOT
BRANCH   1   2
ATOM      2  C   UNL     1       1.832   8.087  19.543  0.00  0.00    +0.000 C 
ATOM      3  O   UNL     1       1.956   8.756  18.534  0.00  0.00    +0.000 OA
BRANCH   2   4
ATOM      4  C   UNL     1       2.409   6.672  19.664  0.00  0.00    +0.000 C 
ATOM      5  N   UNL     1       3.390   6.333  18.889  0.00  0.00    +0.000 NA
ATOM      6  N   UNL     1       3.858   5.038  18.896  0.00  0.00    +0.000 N 
ATOM      7  C   UNL     1       3.238   3.993  19.592  0.00  0.00    +0.000 C 
ATOM      8  O   UNL     1       3.650   2.834  19.666  0.00  0.00    +0.000 OA
ATOM      9  C   UNL     1       1.920   4.329  20.243  0.00  0.00    +0.000 C 
ATOM     10  C   UNL     1       1.799   5.767  20.683  0.00  0.00    +0.000 C 
BRANCH   6  11
ATOM     11  C   UNL     1       4.954   4.838  17.992  0.00  0.00    +0.000 A 
ATOM     12  C   UNL     1       6.289   4.937  18.412  0.00  0.00    +0.000 A 
ATOM     13  C   UNL     1       7.345   4.692  17.528  0.00  0.00    +0.000 A 
ATOM     14  C   UNL     1       7.086   4.364  16.202  0.00  0.00    +0.000 A 
ATOM     15  C   UNL     1       5.772   4.266  15.760  0.00  0.00    +0.000 A 
ATOM     16  C   UNL     1       4.715   4.484  16.651  0.00  0.00    +0.000 A 
ENDBRANCH   6  11
ENDBRANCH   2   4
ENDBRANCH   1   2
BRANCH   1  17
ATOM     17  C   UNL     1       0.162   9.283  20.707  0.00  0.00    +0.000 C 
BRANCH  17  19
ATOM     18  N   UNL     1       0.152  11.749  20.044  0.00  0.00    +0.000 N 
ATOM     19  C   UNL     1       0.371  10.773  21.036  0.00  0.00    +0.000 C 
ATOM     20  O   UNL     1       0.673  11.040  22.202  0.00  0.00    +0.000 OA
BRANCH  18  22
ATOM     21  C   UNL     1       1.754  13.542  20.855  0.00  0.00    +0.000 C 
ATOM     22  C   UNL     1       0.335  13.239  20.321  0.00  0.00    +0.000 C 
ATOM     23  C   UNL     1      -0.688  13.727  21.373  0.00  0.00    +0.000 C 
ATOM     24  C   UNL     1       0.159  14.164  19.091  0.00  0.00    +0.000 C 
ENDBRANCH  18  22
BRANCH  18  25
ATOM     25  C   UNL     1      -0.084  11.337  18.641  0.00  0.00    +0.000 C 
BRANCH  25  26
ATOM     26  C   UNL     1      -1.521  11.082  18.232  0.00  0.00    +0.000 A 
ATOM     27  C   UNL     1      -2.605  11.807  18.738  0.00  0.00    +0.000 A 
ATOM     28  C   UNL     1      -3.912  11.509  18.344  0.00  0.00    +0.000 A 
ATOM     29  C   UNL     1      -4.154  10.484  17.434  0.00  0.00    +0.000 A 
ATOM     30  C   UNL     1      -3.087   9.774  16.893  0.00  0.00    +0.000 A 
ATOM     31  C   UNL     1      -1.779  10.077  17.281  0.00  0.00    +0.000 A 
ENDBRANCH  25  26
ENDBRANCH  18  25
ENDBRANCH  17  19
ENDBRANCH   1  17
TORSDOF 8
ENDMDL
MODEL 6
REMARK VINA RESULT:      -7.9      1.861      9.363
REMARK  Name = 
REMARK  11 active torsions:
REMARK  status: ('A' for Active; 'I' for Inactive)
REMARK    1  A    between atoms: C_1  and  C_2
REMARK    2  A    between atoms: C_2  and  C_3
REMARK    3  A    between atoms: C_2  and  C_4
REMARK    4  A    between atoms: C_2  and  N_5
REMARK    5  A    between atoms: N_5  and  C_6
REMARK    6  A    between atoms: C_6  and  C_7
REMARK    7  A    between atoms: C_13  and  C_15
REMARK    8  A    between atoms: C_15  and  O_16
REMARK    9  A    between atoms: O_16  and  C_17
REMARK   10  A    between atoms: C_17  and  C_19
REMARK   11  A    between atoms: N_21  and  C_22
REMARK                            x       y       z     vdW  Elec       q    Type
REMARK                         _______ _______ _______ _____ _____    ______ ____
ROOT
ATOM      1  O   UNL     1       1.449   8.320  19.426  0.00  0.00    +0.000 OA
ENDROOT
BRANCH   1   2
ATOM      2  C   UNL     1       1.403   9.162  18.377  0.00  0.00    +0.000 C 
ATOM      3  O   UNL     1       2.141   9.203  17.411  0.00  0.00    +0.000 OA
BRANCH   2   4
ATOM      4  C   UNL     1       0.145  10.031  18.486  0.00  0.00    +0.000 C 
ATOM      5  N   UNL     1       0.040  10.851  19.483  0.00  0.00    +0.000 NA
ATOM      6  N   UNL     1      -1.123  11.564  19.669  0.00  0.00    +0.000 N 
ATOM      7  C   UNL     1      -2.289  11.354  18.925  0.00  0.00    +0.000 C 
ATOM      8  O   UNL     1      -3.333  12.002  19.024  0.00  0.00    +0.000 OA
ATOM      9  C   UNL     1      -2.258  10.185  17.973  0.00  0.00    +0.000 C 
ATOM     10  C   UNL     1      -0.890   9.877  17.419  0.00  0.00    +0.000 C 
BRANCH   6  11
ATOM     11  C   UNL     1      -1.064  12.436  20.809  0.00  0.00    +0.000 A 
ATOM     12  C   UNL     1      -1.476  12.019  22.083  0.00  0.00    +0.000 A 
ATOM     13  C   UNL     1      -1.368  12.866  23.191  0.00  0.00    +0.000 A 
ATOM     14  C   UNL     1      -0.864  14.153  23.040  0.00  0.00    +0.000 A 
ATOM     15  C   UNL     1      -0.456  14.592  21.786  0.00  0.00    +0.000 A 
ATOM     16  C   UNL     1      -0.539  13.735  20.683  0.00  0.00    +0.000 A 
ENDBRANCH   6  11
ENDBRANCH   2   4
ENDBRANCH   1   2
BRANCH   1  17
ATOM     17  C   UNL     1       2.572   7.455  19.515  0.00  0.00    +0.000 C 
BRANCH  17  19
ATOM     18  N   UNL     1       2.915   5.027  18.801  0.00  0.00    +0.000 N 
ATOM     19  C   UNL     1       2.279   5.950  19.655  0.00  0.00    +0.000 C 
ATOM     20  O   UNL     1       1.522   5.621  20.573  0.00  0.00    +0.000 OA
BRANCH  18  22
ATOM     21  C   UNL     1       1.164   3.192  18.773  0.00  0.00    +0.000 C 
ATOM     22  C   UNL     1       2.667   3.524  18.905  0.00  0.00    +0.000 C 
ATOM     23  C   UNL     1       3.160   2.984  20.268  0.00  0.00    +0.000 C 
ATOM     24  C   UNL     1       3.370   2.665  17.825  0.00  0.00    +0.000 C 
ENDBRANCH  18  22
BRANCH  18  25
ATOM     25  C   UNL     1       3.709   5.512  17.648  0.00  0.00    +0.000 C 
BRANCH  25  26
ATOM     26  C   UNL     1       5.148   5.901  17.919  0.00  0.00    +0.000 A 
ATOM     27  C   UNL     1       5.845   6.848  17.158  0.00  0.00    +0.000 A 
ATOM     28  C   UNL     1       7.181   7.147  17.437  0.00  0.00    +0.000 A 
ATOM     29  C   UNL     1       7.839   6.508  18.484  0.00  0.00    +0.000 A 
ATOM     30  C   UNL     1       7.154   5.588  19.274  0.00  0.00    +0.000 A 
ATOM     31  C   UNL     1       5.816   5.295  18.999  0.00  0.00    +0.000 A 
ENDBRANCH  25  26
ENDBRANCH  18  25
ENDBRANCH  17  19
ENDBRANCH   1  17
TORSDOF 8
ENDMDL
MODEL 7
REMARK VINA RESULT:      -7.9      1.502      8.964
REMARK  Name = 
REMARK  11 active torsions:
REMARK  status: ('A' for Active; 'I' for Inactive)
REMARK    1  A    between atoms: C_1  and  C_2
REMARK    2  A    between atoms: C_2  and  C_3
REMARK    3  A    between atoms: C_2  and  C_4
REMARK    4  A    between atoms: C_2  and  N_5
REMARK    5  A    between atoms: N_5  and  C_6
REMARK    6  A    between atoms: C_6  and  C_7
REMARK    7  A    between atoms: C_13  and  C_15
REMARK    8  A    between atoms: C_15  and  O_16
REMARK    9  A    between atoms: O_16  and  C_17
REMARK   10  A    between atoms: C_17  and  C_19
REMARK   11  A    between atoms: N_21  and  C_22
REMARK                            x       y       z     vdW  Elec       q    Type
REMARK                         _______ _______ _______ _____ _____    ______ ____
ROOT
ATOM      1  O   UNL     1       1.258   7.919  19.799  0.00  0.00    +0.000 OA
ENDROOT
BRANCH   1   2
ATOM      2  C   UNL     1       1.074   8.759  20.834  0.00  0.00    +0.000 C 
ATOM      3  O   UNL     1       1.382   8.599  22.000  0.00  0.00    +0.000 OA
BRANCH   2   4
ATOM      4  C   UNL     1       0.518  10.087  20.309  0.00  0.00    +0.000 C 
ATOM      5  N   UNL     1      -0.444  10.059  19.442  0.00  0.00    +0.000 NA
ATOM      6  N   UNL     1      -0.891  11.229  18.869  0.00  0.00    +0.000 N 
ATOM      7  C   UNL     1      -0.266  12.468  19.049  0.00  0.00    +0.000 C 
ATOM      8  O   UNL     1      -0.660  13.545  18.597  0.00  0.00    +0.000 OA
ATOM      9  C   UNL     1       1.036  12.443  19.811  0.00  0.00    +0.000 C 
ATOM     10  C   UNL     1       1.126  11.344  20.840  0.00  0.00    +0.000 C 
BRANCH   6  11
ATOM     11  C   UNL     1      -1.969  11.020  17.945  0.00  0.00    +0.000 A 
ATOM     12  C   UNL     1      -1.852  10.144  16.855  0.00  0.00    +0.000 A 
ATOM     13  C   UNL     1      -2.928   9.916  15.992  0.00  0.00    +0.000 A 
ATOM     14  C   UNL     1      -4.136  10.576  16.190  0.00  0.00    +0.000 A 
ATOM     15  C   UNL     1      -4.275  11.454  17.260  0.00  0.00    +0.000 A 
ATOM     16  C   UNL     1      -3.206  11.661  18.139  0.00  0.00    +0.000 A 
ENDBRANCH   6  11
ENDBRANCH   2   4
ENDBRANCH   1   2
BRANCH   1  17
ATOM     17  C   UNL     1       2.431   7.118  19.815  0.00  0.00    +0.000 C 
BRANCH  17  19
ATOM     18  N   UNL     1       2.544   4.693  19.023  0.00  0.00    +0.000 N 
ATOM     19  C   UNL     1       2.237   5.608  20.049  0.00  0.00    +0.000 C 
ATOM     20  O   UNL     1       1.865   5.272  21.176  0.00  0.00    +0.000 OA
BRANCH  18  22
ATOM     21  C   UNL     1       1.087   2.853  19.989  0.00  0.00    +0.000 C 
ATOM     22  C   UNL     1       2.379   3.186  19.207  0.00  0.00    +0.000 C 
ATOM     23  C   UNL     1       3.577   2.599  19.988  0.00  0.00    +0.000 C 
ATOM     24  C   UNL     1       2.282   2.370  17.895  0.00  0.00    +0.000 C 
ENDBRANCH  18  22
BRANCH  18  25
ATOM     25  C   UNL     1       2.862   5.186  17.663  0.00  0.00    +0.000 C 
BRANCH  25  26
ATOM     26  C   UNL     1       4.329   5.339  17.313  0.00  0.00    +0.000 A 
ATOM     27  C   UNL     1       5.140   4.271  16.913  0.00  0.00    +0.000 A 
ATOM     28  C   UNL     1       6.493   4.467  16.628  0.00  0.00    +0.000 A 
ATOM     29  C   UNL     1       7.056   5.736  16.735  0.00  0.00    +0.000 A 
ATOM     30  C   UNL     1       6.258   6.818  17.098  0.00  0.00    +0.000 A 
ATOM     31  C   UNL     1       4.903   6.622  17.375  0.00  0.00    +0.000 A 
ENDBRANCH  25  26
ENDBRANCH  18  25
ENDBRANCH  17  19
ENDBRANCH   1  17
TORSDOF 8
ENDMDL
MODEL 8
REMARK VINA RESULT:      -7.8      2.179      9.686
REMARK  Name = 
REMARK  11 active torsions:
REMARK  status: ('A' for Active; 'I' for Inactive)
REMARK    1  A    between atoms: C_1  and  C_2
REMARK    2  A    between atoms: C_2  and  C_3
REMARK    3  A    between atoms: C_2  and  C_4
REMARK    4  A    between atoms: C_2  and  N_5
REMARK    5  A    between atoms: N_5  and  C_6
REMARK    6  A    between atoms: C_6  and  C_7
REMARK    7  A    between atoms: C_13  and  C_15
REMARK    8  A    between atoms: C_15  and  O_16
REMARK    9  A    between atoms: O_16  and  C_17
REMARK   10  A    between atoms: C_17  and  C_19
REMARK   11  A    between atoms: N_21  and  C_22
REMARK                            x       y       z     vdW  Elec       q    Type
REMARK                         _______ _______ _______ _____ _____    ______ ____
ROOT
ATOM      1  O   UNL     1       1.443   8.069  19.611  0.00  0.00    +0.000 OA
ENDROOT
BRANCH   1   2
ATOM      2  C   UNL     1       1.117   8.802  20.692  0.00  0.00    +0.000 C 
ATOM      3  O   UNL     1       1.545   8.703  21.827  0.00  0.00    +0.000 OA
BRANCH   2   4
ATOM      4  C   UNL     1       0.184   9.940  20.265  0.00  0.00    +0.000 C 
ATOM      5  N   UNL     1      -0.293  10.728  21.176  0.00  0.00    +0.000 NA
ATOM      6  N   UNL     1      -1.218  11.690  20.839  0.00  0.00    +0.000 N 
ATOM      7  C   UNL     1      -1.811  11.788  19.575  0.00  0.00    +0.000 C 
ATOM      8  O   UNL     1      -2.604  12.661  19.217  0.00  0.00    +0.000 OA
ATOM      9  C   UNL     1      -1.483  10.676  18.609  0.00  0.00    +0.000 C 
ATOM     10  C   UNL     1      -0.116  10.071  18.807  0.00  0.00    +0.000 C 
BRANCH   6  11
ATOM     11  C   UNL     1      -1.628  12.485  21.962  0.00  0.00    +0.000 A 
ATOM     12  C   UNL     1      -2.819  12.227  22.657  0.00  0.00    +0.000 A 
ATOM     13  C   UNL     1      -3.180  12.982  23.778  0.00  0.00    +0.000 A 
ATOM     14  C   UNL     1      -2.365  14.022  24.213  0.00  0.00    +0.000 A 
ATOM     15  C   UNL     1      -1.183  14.300  23.537  0.00  0.00    +0.000 A 
ATOM     16  C   UNL     1      -0.810  13.528  22.431  0.00  0.00    +0.000 A 
ENDBRANCH   6  11
ENDBRANCH   2   4
ENDBRANCH   1   2
BRANCH   1  17
ATOM     17  C   UNL     1       2.575   7.219  19.721  0.00  0.00    +0.000 C 
BRANCH  17  19
ATOM     18  N   UNL     1       2.944   4.839  18.871  0.00  0.00    +0.000 N 
ATOM     19  C   UNL     1       2.301   5.704  19.779  0.00  0.00    +0.000 C 
ATOM     20  O   UNL     1       1.553   5.316  20.680  0.00  0.00    +0.000 OA
BRANCH  18  22
ATOM     21  C   UNL     1       3.480   2.628  17.748  0.00  0.00    +0.000 C 
ATOM     22  C   UNL     1       2.715   3.330  18.893  0.00  0.00    +0.000 C 
ATOM     23  C   UNL     1       1.211   3.005  18.734  0.00  0.00    +0.000 C 
ATOM     24  C   UNL     1       3.173   2.613  20.187  0.00  0.00    +0.000 C 
ENDBRANCH  18  22
BRANCH  18  25
ATOM     25  C   UNL     1       3.724   5.397  17.743  0.00  0.00    +0.000 C 
BRANCH  25  26
ATOM     26  C   UNL     1       5.167   5.767  18.022  0.00  0.00    +0.000 A 
ATOM     27  C   UNL     1       5.922   5.198  19.054  0.00  0.00    +0.000 A 
ATOM     28  C   UNL     1       7.242   5.598  19.280  0.00  0.00    +0.000 A 
ATOM     29  C   UNL     1       7.828   6.571  18.476  0.00  0.00    +0.000 A 
ATOM     30  C   UNL     1       7.105   7.125  17.423  0.00  0.00    +0.000 A 
ATOM     31  C   UNL     1       5.788   6.719  17.192  0.00  0.00    +0.000 A 
ENDBRANCH  25  26
ENDBRANCH  18  25
ENDBRANCH  17  19
ENDBRANCH   1  17
TORSDOF 8
ENDMDL
MODEL 9
REMARK VINA RESULT:      -7.8      2.575      8.810
REMARK  Name = 
REMARK  11 active torsions:
REMARK  status: ('A' for Active; 'I' for Inactive)
REMARK    1  A    between atoms: C_1  and  C_2
REMARK    2  A    between atoms: C_2  and  C_3
REMARK    3  A    between atoms: C_2  and  C_4
REMARK    4  A    between atoms: C_2  and  N_5
REMARK    5  A    between atoms: N_5  and  C_6
REMARK    6  A    between atoms: C_6  and  C_7
REMARK    7  A    between atoms: C_13  and  C_15
REMARK    8  A    between atoms: C_15  and  O_16
REMARK    9  A    between atoms: O_16  and  C_17
REMARK   10  A    between atoms: C_17  and  C_19
REMARK   11  A    between atoms: N_21  and  C_22
REMARK                            x       y       z     vdW  Elec       q    Type
REMARK                         _______ _______ _______ _____ _____    ______ ____
ROOT
ATOM      1  O   UNL     1       2.604   7.465  18.794  0.00  0.00    +0.000 OA
ENDROOT
BRANCH   1   2
ATOM      2  C   UNL     1       1.968   8.625  18.546  0.00  0.00    +0.000 C 
ATOM      3  O   UNL     1       1.841   9.203  17.483  0.00  0.00    +0.000 OA
BRANCH   2   4
ATOM      4  C   UNL     1       1.258   9.091  19.822  0.00  0.00    +0.000 C 
ATOM      5  N   UNL     1       0.689  10.255  19.827  0.00  0.00    +0.000 NA
ATOM      6  N   UNL     1       0.139  10.748  20.989  0.00  0.00    +0.000 N 
ATOM      7  C   UNL     1       0.283  10.132  22.237  0.00  0.00    +0.000 C 
ATOM      8  O   UNL     1      -0.233  10.511  23.291  0.00  0.00    +0.000 OA
ATOM      9  C   UNL     1       1.208   8.941  22.279  0.00  0.00    +0.000 C 
ATOM     10  C   UNL     1       1.265   8.160  20.990  0.00  0.00    +0.000 C 
BRANCH   6  11
ATOM     11  C   UNL     1      -0.463  12.039  20.815  0.00  0.00    +0.000 A 
ATOM     12  C   UNL     1      -1.825  12.187  20.513  0.00  0.00    +0.000 A 
ATOM     13  C   UNL     1      -2.405  13.455  20.394  0.00  0.00    +0.000 A 
ATOM     14  C   UNL     1      -1.629  14.597  20.553  0.00  0.00    +0.000 A 
ATOM     15  C   UNL     1      -0.276  14.476  20.846  0.00  0.00    +0.000 A 
ATOM     16  C   UNL     1       0.299  13.208  20.992  0.00  0.00    +0.000 A 
ENDBRANCH   6  11
ENDBRANCH   2   4
ENDBRANCH   1   2
BRANCH   1  17
ATOM     17  C   UNL     1       2.989   6.684  17.672  0.00  0.00    +0.000 C 
BRANCH  17  19
ATOM     18  N   UNL     1       5.349   5.857  18.192  0.00  0.00    +0.000 N 
ATOM     19  C   UNL     1       4.496   6.612  17.362  0.00  0.00    +0.000 C 
ATOM     20  O   UNL     1       4.875   7.191  16.341  0.00  0.00    +0.000 OA
BRANCH  18  22
ATOM     21  C   UNL     1       7.425   7.076  17.393  0.00  0.00    +0.000 C 
ATOM     22  C   UNL     1       6.847   5.744  17.924  0.00  0.00    +0.000 C 
ATOM     23  C   UNL     1       7.131   4.645  16.874  0.00  0.00    +0.000 C 
ATOM     24  C   UNL     1       7.712   5.390  19.159  0.00  0.00    +0.000 C 
ENDBRANCH  18  22
BRANCH  18  25
ATOM     25  C   UNL     1       4.837   5.299  19.465  0.00  0.00    +0.000 C 
BRANCH  25  26
ATOM     26  C   UNL     1       3.882   4.125  19.367  0.00  0.00    +0.000 A 
ATOM     27  C   UNL     1       4.038   3.082  18.448  0.00  0.00    +0.000 A 
ATOM     28  C   UNL     1       3.110   2.039  18.385  0.00  0.00    +0.000 A 
ATOM     29  C   UNL     1       2.015   2.021  19.244  0.00  0.00    +0.000 A 
ATOM     30  C   UNL     1       1.861   3.032  20.189  0.00  0.00    +0.000 A 
ATOM     31  C   UNL     1       2.793   4.071  20.256  0.00  0.00    +0.000 A 
ENDBRANCH  25  26
ENDBRANCH  18  25
ENDBRANCH  17  19
ENDBRANCH   1  17
TORSDOF 8
ENDMDL
