MODEL 1
REMARK VINA RESULT:      -6.7      0.000      0.000
REMARK  Name = 
REMARK  4 active torsions:
REMARK  status: ('A' for Active; 'I' for Inactive)
REMARK    1  A    between atoms: C_1  and  C_2
REMARK    2  A    between atoms: C_2  and  N_3
REMARK    3  A    between atoms: C_2  and  C_12
REMARK    4  A    between atoms: C_4  and  C_6
REMARK                            x       y       z     vdW  Elec       q    Type
REMARK                         _______ _______ _______ _____ _____    ______ ____
ROOT
ATOM      1  N   UNL     1       4.721   4.109  17.113  0.00  0.00    +0.000 N 
ATOM      2  C   UNL     1       4.335   3.705  18.370  0.00  0.00    +0.000 C 
ATOM      3  O   UNL     1       5.137   3.264  19.189  0.00  0.00    +0.000 OA
ATOM      4  H   UNL     1       4.025   4.286  16.402  0.00  0.00    +0.000 HD
ENDROOT
BRANCH   2   5
ATOM      5  C   UNL     1       2.842   3.844  18.659  0.00  0.00    +0.000 C 
ATOM      6  C   UNL     1       2.606   4.250  20.120  0.00  0.00    +0.000 C 
ATOM      7  C   UNL     1       1.138   4.142  20.505  0.00  0.00    +0.000 C 
ATOM      8  O   UNL     1       0.634   2.839  20.230  0.00  0.00    +0.000 OA
ATOM      9  C   UNL     1       0.681   2.534  18.838  0.00  0.00    +0.000 C 
ATOM     10  C   UNL     1       2.117   2.528  18.342  0.00  0.00    +0.000 C 
ENDBRANCH   2   5
BRANCH   1  12
ATOM     11  C   UNL     1       6.293   4.054  15.201  0.00  0.00    +0.000 C 
ATOM     12  C   UNL     1       6.117   4.099  16.717  0.00  0.00    +0.000 C 
BRANCH  12  13
ATOM     13  C   UNL     1       6.806   5.290  17.337  0.00  0.00    +0.000 A 
ATOM     14  C   UNL     1       7.647   5.295  18.439  0.00  0.00    +0.000 A 
ATOM     15  C   UNL     1       8.150   6.596  18.740  0.00  0.00    +0.000 A 
ATOM     16  C   UNL     1       7.661   7.528  17.863  0.00  0.00    +0.000 A 
ATOM     17 CL   UNL     1       8.011   9.208  17.853  0.00  0.00    +0.000 Cl
ATOM     18  S   UNL     1       6.614   6.881  16.704  0.00  0.00    +0.000 S 
ENDBRANCH  12  13
ENDBRANCH   1  12
TORSDOF 3
ENDMDL
MODEL 2
REMARK VINA RESULT:      -6.5      2.569      3.267
REMARK  Name = 
REMARK  4 active torsions:
REMARK  status: ('A' for Active; 'I' for Inactive)
REMARK    1  A    between atoms: C_1  and  C_2
REMARK    2  A    between atoms: C_2  and  N_3
REMARK    3  A    between atoms: C_2  and  C_12
REMARK    4  A    between atoms: C_4  and  C_6
REMARK                            x       y       z     vdW  Elec       q    Type
REMARK                         _______ _______ _______ _____ _____    ______ ____
ROOT
ATOM      1  N   UNL     1       4.359   5.128  19.226  0.00  0.00    +0.000 N 
ATOM      2  C   UNL     1       3.125   5.726  19.337  0.00  0.00    +0.000 C 
ATOM      3  O   UNL     1       2.943   6.906  19.050  0.00  0.00    +0.000 OA
ATOM      4  H   UNL     1       4.522   4.222  19.643  0.00  0.00    +0.000 HD
ENDROOT
BRANCH   2   5
ATOM      5  C   UNL     1       2.013   4.812  19.848  0.00  0.00    +0.000 C 
ATOM      6  C   UNL     1       2.455   4.074  21.119  0.00  0.00    +0.000 C 
ATOM      7  C   UNL     1       1.478   2.972  21.500  0.00  0.00    +0.000 C 
ATOM      8  O   UNL     1       1.272   2.077  20.412  0.00  0.00    +0.000 OA
ATOM      9  C   UNL     1       0.684   2.729  19.290  0.00  0.00    +0.000 C 
ATOM     10  C   UNL     1       1.609   3.810  18.756  0.00  0.00    +0.000 C 
ENDBRANCH   2   5
BRANCH   1  12
ATOM     11  C   UNL     1       6.809   5.454  19.365  0.00  0.00    +0.000 C 
ATOM     12  C   UNL     1       5.498   5.851  18.691  0.00  0.00    +0.000 C 
BRANCH  12  13
ATOM     13  C   UNL     1       5.541   5.651  17.196  0.00  0.00    +0.000 A 
ATOM     14  C   UNL     1       5.121   6.538  16.216  0.00  0.00    +0.000 A 
ATOM     15  C   UNL     1       5.334   6.039  14.896  0.00  0.00    +0.000 A 
ATOM     16  C   UNL     1       5.893   4.789  14.926  0.00  0.00    +0.000 A 
ATOM     17 CL   UNL     1       6.321   3.826  13.572  0.00  0.00    +0.000 Cl
ATOM     18  S   UNL     1       6.157   4.205  16.490  0.00  0.00    +0.000 S 
ENDBRANCH  12  13
ENDBRANCH   1  12
TORSDOF 3
ENDMDL
MODEL 3
REMARK VINA RESULT:      -6.5      2.604      3.514
REMARK  Name = 
REMARK  4 active torsions:
REMARK  status: ('A' for Active; 'I' for Inactive)
REMARK    1  A    between atoms: C_1  and  C_2
REMARK    2  A    between atoms: C_2  and  N_3
REMARK    3  A    between atoms: C_2  and  C_12
REMARK    4  A    between atoms: C_4  and  C_6
REMARK                            x       y       z     vdW  Elec       q    Type
REMARK                         _______ _______ _______ _____ _____    ______ ____
ROOT
ATOM      1  N   UNL     1       5.352   4.059  18.068  0.00  0.00    +0.000 N 
ATOM      2  C   UNL     1       4.614   4.475  19.153  0.00  0.00    +0.000 C 
ATOM      3  O   UNL     1       4.843   5.534  19.730  0.00  0.00    +0.000 OA
ATOM      4  H   UNL     1       5.269   3.109  17.734  0.00  0.00    +0.000 HD
ENDROOT
BRANCH   2   5
ATOM      5  C   UNL     1       3.503   3.518  19.578  0.00  0.00    +0.000 C 
ATOM      6  C   UNL     1       2.818   2.899  18.351  0.00  0.00    +0.000 C 
ATOM      7  C   UNL     1       1.548   2.152  18.731  0.00  0.00    +0.000 C 
ATOM      8  O   UNL     1       0.663   2.993  19.462  0.00  0.00    +0.000 OA
ATOM      9  C   UNL     1       1.232   3.419  20.698  0.00  0.00    +0.000 C 
ATOM     10  C   UNL     1       2.477   4.255  20.451  0.00  0.00    +0.000 C 
ENDBRANCH   2   5
BRANCH   1  12
ATOM     11  C   UNL     1       7.757   4.638  18.155  0.00  0.00    +0.000 C 
ATOM     12  C   UNL     1       6.399   4.893  17.507  0.00  0.00    +0.000 C 
BRANCH  12  13
ATOM     13  C   UNL     1       6.431   4.691  16.012  0.00  0.00    +0.000 A 
ATOM     14  C   UNL     1       7.339   5.223  15.110  0.00  0.00    +0.000 A 
ATOM     15  C   UNL     1       7.094   4.801  13.770  0.00  0.00    +0.000 A 
ATOM     16  C   UNL     1       6.002   3.977  13.705  0.00  0.00    +0.000 A 
ATOM     17 CL   UNL     1       5.359   3.237  12.296  0.00  0.00    +0.000 Cl
ATOM     18  S   UNL     1       5.268   3.709  15.204  0.00  0.00    +0.000 S 
ENDBRANCH  12  13
ENDBRANCH   1  12
TORSDOF 3
ENDMDL
MODEL 4
REMARK VINA RESULT:      -6.5      1.065      1.426
REMARK  Name = 
REMARK  4 active torsions:
REMARK  status: ('A' for Active; 'I' for Inactive)
REMARK    1  A    between atoms: C_1  and  C_2
REMARK    2  A    between atoms: C_2  and  N_3
REMARK    3  A    between atoms: C_2  and  C_12
REMARK    4  A    between atoms: C_4  and  C_6
REMARK                            x       y       z     vdW  Elec       q    Type
REMARK                         _______ _______ _______ _____ _____    ______ ____
ROOT
ATOM      1  N   UNL     1       5.179   3.378  17.217  0.00  0.00    +0.000 N 
ATOM      2  C   UNL     1       4.002   3.976  17.604  0.00  0.00    +0.000 C 
ATOM      3  O   UNL     1       3.722   5.130  17.288  0.00  0.00    +0.000 OA
ATOM      4  H   UNL     1       5.468   2.508  17.643  0.00  0.00    +0.000 HD
ENDROOT
BRANCH   2   5
ATOM      5  C   UNL     1       3.086   3.101  18.455  0.00  0.00    +0.000 C 
ATOM      6  C   UNL     1       1.612   3.367  18.118  0.00  0.00    +0.000 C 
ATOM      7  C   UNL     1       0.676   2.709  19.121  0.00  0.00    +0.000 C 
ATOM      8  O   UNL     1       0.996   3.105  20.451  0.00  0.00    +0.000 OA
ATOM      9  C   UNL     1       2.306   2.689  20.830  0.00  0.00    +0.000 C 
ATOM     10  C   UNL     1       3.351   3.350  19.947  0.00  0.00    +0.000 C 
ENDBRANCH   2   5
BRANCH   1  12
ATOM     11  C   UNL     1       5.466   4.578  15.070  0.00  0.00    +0.000 C 
ATOM     12  C   UNL     1       6.120   4.062  16.350  0.00  0.00    +0.000 C 
BRANCH  12  13
ATOM     13  C   UNL     1       6.789   5.164  17.134  0.00  0.00    +0.000 A 
ATOM     14  C   UNL     1       7.440   5.053  18.353  0.00  0.00    +0.000 A 
ATOM     15  C   UNL     1       7.986   6.293  18.799  0.00  0.00    +0.000 A 
ATOM     16  C   UNL     1       7.717   7.299  17.908  0.00  0.00    +0.000 A 
ATOM     17 CL   UNL     1       8.192   8.943  18.044  0.00  0.00    +0.000 Cl
ATOM     18  S   UNL     1       6.824   6.790  16.566  0.00  0.00    +0.000 S 
ENDBRANCH  12  13
ENDBRANCH   1  12
TORSDOF 3
ENDMDL
MODEL 5
REMARK VINA RESULT:      -6.5      2.322      3.428
REMARK  Name = 
REMARK  4 active torsions:
REMARK  status: ('A' for Active; 'I' for Inactive)
REMARK    1  A    between atoms: C_1  and  C_2
REMARK    2  A    between atoms: C_2  and  N_3
REMARK    3  A    between atoms: C_2  and  C_12
REMARK    4  A    between atoms: C_4  and  C_6
REMARK                            x       y       z     vdW  Elec       q    Type
REMARK                         _______ _______ _______ _____ _____    ______ ____
ROOT
ATOM      1  N   UNL     1       5.240   3.946  17.991  0.00  0.00    +0.000 N 
ATOM      2  C   UNL     1       4.382   4.446  18.943  0.00  0.00    +0.000 C 
ATOM      3  O   UNL     1       4.450   5.607  19.338  0.00  0.00    +0.000 OA
ATOM      4  H   UNL     1       5.286   2.950  17.824  0.00  0.00    +0.000 HD
ENDROOT
BRANCH   2   5
ATOM      5  C   UNL     1       3.352   3.448  19.467  0.00  0.00    +0.000 C 
ATOM      6  C   UNL     1       2.397   3.012  18.347  0.00  0.00    +0.000 C 
ATOM      7  C   UNL     1       1.211   2.229  18.889  0.00  0.00    +0.000 C 
ATOM      8  O   UNL     1       0.537   2.966  19.904  0.00  0.00    +0.000 OA
ATOM      9  C   UNL     1       1.374   3.209  21.031  0.00  0.00    +0.000 C 
ATOM     10  C   UNL     1       2.567   4.062  20.635  0.00  0.00    +0.000 C 
ENDBRANCH   2   5
BRANCH   1  12
ATOM     11  C   UNL     1       7.623   4.617  17.948  0.00  0.00    +0.000 C 
ATOM     12  C   UNL     1       6.229   4.794  17.351  0.00  0.00    +0.000 C 
BRANCH  12  13
ATOM     13  C   UNL     1       6.205   4.531  15.865  0.00  0.00    +0.000 A 
ATOM     14  C   UNL     1       5.221   3.873  15.143  0.00  0.00    +0.000 A 
ATOM     15  C   UNL     1       5.504   3.827  13.746  0.00  0.00    +0.000 A 
ATOM     16  C   UNL     1       6.697   4.438  13.464  0.00  0.00    +0.000 A 
ATOM     17 CL   UNL     1       7.416   4.617  11.916  0.00  0.00    +0.000 Cl
ATOM     18  S   UNL     1       7.480   5.053  14.830  0.00  0.00    +0.000 S 
ENDBRANCH  12  13
ENDBRANCH   1  12
TORSDOF 3
ENDMDL
MODEL 6
REMARK VINA RESULT:      -6.5      3.642      5.724
REMARK  Name = 
REMARK  4 active torsions:
REMARK  status: ('A' for Active; 'I' for Inactive)
REMARK    1  A    between atoms: C_1  and  C_2
REMARK    2  A    between atoms: C_2  and  N_3
REMARK    3  A    between atoms: C_2  and  C_12
REMARK    4  A    between atoms: C_4  and  C_6
REMARK                            x       y       z     vdW  Elec       q    Type
REMARK                         _______ _______ _______ _____ _____    ______ ____
ROOT
ATOM      1  N   UNL     1       3.635   5.222  18.662  0.00  0.00    +0.000 N 
ATOM      2  C   UNL     1       3.728   4.299  17.647  0.00  0.00    +0.000 C 
ATOM      3  O   UNL     1       2.747   3.694  17.223  0.00  0.00    +0.000 OA
ATOM      4  H   UNL     1       4.472   5.561  19.116  0.00  0.00    +0.000 HD
ENDROOT
BRANCH   2   5
ATOM      5  C   UNL     1       5.137   4.087  17.098  0.00  0.00    +0.000 C 
ATOM      6  C   UNL     1       6.190   4.592  18.093  0.00  0.00    +0.000 C 
ATOM      7  C   UNL     1       7.578   4.635  17.472  0.00  0.00    +0.000 C 
ATOM      8  O   UNL     1       7.574   5.400  16.271  0.00  0.00    +0.000 OA
ATOM      9  C   UNL     1       6.735   4.823  15.275  0.00  0.00    +0.000 C 
ATOM     10  C   UNL     1       5.290   4.797  15.745  0.00  0.00    +0.000 C 
ENDBRANCH   2   5
BRANCH   1  12
ATOM     11  C   UNL     1       2.237   5.173  20.706  0.00  0.00    +0.000 C 
ATOM     12  C   UNL     1       2.351   5.579  19.238  0.00  0.00    +0.000 C 
BRANCH  12  13
ATOM     13  C   UNL     1       2.123   7.056  19.034  0.00  0.00    +0.000 A 
ATOM     14  C   UNL     1       2.368   7.795  17.887  0.00  0.00    +0.000 A 
ATOM     15  C   UNL     1       2.008   9.168  18.030  0.00  0.00    +0.000 A 
ATOM     16  C   UNL     1       1.517   9.420  19.284  0.00  0.00    +0.000 A 
ATOM     17 CL   UNL     1       0.961  10.930  19.882  0.00  0.00    +0.000 Cl
ATOM     18  S   UNL     1       1.488   8.058  20.285  0.00  0.00    +0.000 S 
ENDBRANCH  12  13
ENDBRANCH   1  12
TORSDOF 3
ENDMDL
MODEL 7
REMARK VINA RESULT:      -6.4      2.237      2.996
REMARK  Name = 
REMARK  4 active torsions:
REMARK  status: ('A' for Active; 'I' for Inactive)
REMARK    1  A    between atoms: C_1  and  C_2
REMARK    2  A    between atoms: C_2  and  N_3
REMARK    3  A    between atoms: C_2  and  C_12
REMARK    4  A    between atoms: C_4  and  C_6
REMARK                            x       y       z     vdW  Elec       q    Type
REMARK                         _______ _______ _______ _____ _____    ______ ____
ROOT
ATOM      1  N   UNL     1       4.467   5.033  18.921  0.00  0.00    +0.000 N 
ATOM      2  C   UNL     1       3.231   5.616  18.763  0.00  0.00    +0.000 C 
ATOM      3  O   UNL     1       3.093   6.725  18.255  0.00  0.00    +0.000 OA
ATOM      4  H   UNL     1       4.571   4.216  19.506  0.00  0.00    +0.000 HD
ENDROOT
BRANCH   2   5
ATOM      5  C   UNL     1       2.058   4.780  19.270  0.00  0.00    +0.000 C 
ATOM      6  C   UNL     1       2.308   4.307  20.708  0.00  0.00    +0.000 C 
ATOM      7  C   UNL     1       1.289   3.266  21.145  0.00  0.00    +0.000 C 
ATOM      8  O   UNL     1       1.249   2.177  20.228  0.00  0.00    +0.000 OA
ATOM      9  C   UNL     1       0.833   2.589  18.929  0.00  0.00    +0.000 C 
ATOM     10  C   UNL     1       1.824   3.579  18.341  0.00  0.00    +0.000 C 
ENDBRANCH   2   5
BRANCH   1  12
ATOM     11  C   UNL     1       6.858   5.497  19.368  0.00  0.00    +0.000 C 
ATOM     12  C   UNL     1       5.670   5.678  18.426  0.00  0.00    +0.000 C 
BRANCH  12  13
ATOM     13  C   UNL     1       5.959   5.165  17.037  0.00  0.00    +0.000 A 
ATOM     14  C   UNL     1       5.420   4.043  16.425  0.00  0.00    +0.000 A 
ATOM     15  C   UNL     1       5.891   3.865  15.091  0.00  0.00    +0.000 A 
ATOM     16  C   UNL     1       6.778   4.851  14.746  0.00  0.00    +0.000 A 
ATOM     17 CL   UNL     1       7.579   5.027  13.238  0.00  0.00    +0.000 Cl
ATOM     18  S   UNL     1       7.060   5.968  15.983  0.00  0.00    +0.000 S 
ENDBRANCH  12  13
ENDBRANCH   1  12
TORSDOF 3
ENDMDL
MODEL 8
REMARK VINA RESULT:      -6.3      3.625      6.439
REMARK  Name = 
REMARK  4 active torsions:
REMARK  status: ('A' for Active; 'I' for Inactive)
REMARK    1  A    between atoms: C_1  and  C_2
REMARK    2  A    between atoms: C_2  and  N_3
REMARK    3  A    between atoms: C_2  and  C_12
REMARK    4  A    between atoms: C_4  and  C_6
REMARK                            x       y       z     vdW  Elec       q    Type
REMARK                         _______ _______ _______ _____ _____    ______ ____
ROOT
ATOM      1  N   UNL     1       5.772   4.670  16.953  0.00  0.00    +0.000 N 
ATOM      2  C   UNL     1       6.846   4.615  16.096  0.00  0.00    +0.000 C 
ATOM      3  O   UNL     1       7.992   4.430  16.497  0.00  0.00    +0.000 OA
ATOM      4  H   UNL     1       4.878   5.009  16.624  0.00  0.00    +0.000 HD
ENDROOT
BRANCH   2   5
ATOM      5  C   UNL     1       6.502   4.806  14.621  0.00  0.00    +0.000 C 
ATOM      6  C   UNL     1       5.852   3.540  14.046  0.00  0.00    +0.000 C 
ATOM      7  C   UNL     1       5.738   3.604  12.530  0.00  0.00    +0.000 C 
ATOM      8  O   UNL     1       7.004   3.867  11.935  0.00  0.00    +0.000 OA
ATOM      9  C   UNL     1       7.524   5.135  12.326  0.00  0.00    +0.000 C 
ATOM     10  C   UNL     1       7.764   5.172  13.826  0.00  0.00    +0.000 C 
ENDBRANCH   2   5
BRANCH   1  12
ATOM     11  C   UNL     1       6.470   5.667  19.110  0.00  0.00    +0.000 C 
ATOM     12  C   UNL     1       5.934   4.439  18.377  0.00  0.00    +0.000 C 
BRANCH  12  13
ATOM     13  C   UNL     1       4.619   3.964  18.944  0.00  0.00    +0.000 A 
ATOM     14  C   UNL     1       4.248   2.658  19.230  0.00  0.00    +0.000 A 
ATOM     15  C   UNL     1       2.938   2.569  19.786  0.00  0.00    +0.000 A 
ATOM     16  C   UNL     1       2.360   3.807  19.889  0.00  0.00    +0.000 A 
ATOM     17 CL   UNL     1       0.799   4.161  20.508  0.00  0.00    +0.000 Cl
ATOM     18  S   UNL     1       3.346   5.060  19.328  0.00  0.00    +0.000 S 
ENDBRANCH  12  13
ENDBRANCH   1  12
TORSDOF 3
ENDMDL
MODEL 9
REMARK VINA RESULT:      -6.2      2.990      5.545
REMARK  Name = 
REMARK  4 active torsions:
REMARK  status: ('A' for Active; 'I' for Inactive)
REMARK    1  A    between atoms: C_1  and  C_2
REMARK    2  A    between atoms: C_2  and  N_3
REMARK    3  A    between atoms: C_2  and  C_12
REMARK    4  A    between atoms: C_4  and  C_6
REMARK                            x       y       z     vdW  Elec       q    Type
REMARK                         _______ _______ _______ _____ _____    ______ ____
ROOT
ATOM      1  N   UNL     1       3.642   4.559  19.055  0.00  0.00    +0.000 N 
ATOM      2  C   UNL     1       3.749   3.971  17.816  0.00  0.00    +0.000 C 
ATOM      3  O   UNL     1       2.767   3.569  17.197  0.00  0.00    +0.000 OA
ATOM      4  H   UNL     1       4.468   4.705  19.619  0.00  0.00    +0.000 HD
ENDROOT
BRANCH   2   5
ATOM      5  C   UNL     1       5.174   3.855  17.282  0.00  0.00    +0.000 C 
ATOM      6  C   UNL     1       6.165   4.564  18.215  0.00  0.00    +0.000 C 
ATOM      7  C   UNL     1       7.544   4.690  17.583  0.00  0.00    +0.000 C 
ATOM      8  O   UNL     1       7.464   5.328  16.313  0.00  0.00    +0.000 OA
ATOM      9  C   UNL     1       6.692   4.570  15.384  0.00  0.00    +0.000 C 
ATOM     10  C   UNL     1       5.257   4.440  15.864  0.00  0.00    +0.000 C 
ENDBRANCH   2   5
BRANCH   1  12
ATOM     11  C   UNL     1       2.245   4.213  21.070  0.00  0.00    +0.000 C 
ATOM     12  C   UNL     1       2.346   4.799  19.664  0.00  0.00    +0.000 C 
BRANCH  12  13
ATOM     13  C   UNL     1       2.067   6.281  19.640  0.00  0.00    +0.000 A 
ATOM     14  C   UNL     1       1.527   7.052  20.659  0.00  0.00    +0.000 A 
ATOM     15  C   UNL     1       1.426   8.431  20.309  0.00  0.00    +0.000 A 
ATOM     16  C   UNL     1       1.881   8.652  19.036  0.00  0.00    +0.000 A 
ATOM     17 CL   UNL     1       1.947  10.159  18.217  0.00  0.00    +0.000 Cl
ATOM     18  S   UNL     1       2.412   7.248  18.257  0.00  0.00    +0.000 S 
ENDBRANCH  12  13
ENDBRANCH   1  12
TORSDOF 3
ENDMDL
