MODEL 1
REMARK VINA RESULT:      -7.2      0.000      0.000
REMARK  Name = 
REMARK  9 active torsions:
REMARK  status: ('A' for Active; 'I' for Inactive)
REMARK    1  A    between atoms: C_1  and  C_2
REMARK    2  A    between atoms: C_2  and  O_3
REMARK    3  A    between atoms: O_3  and  C_4
REMARK    4  A    between atoms: C_4  and  C_6
REMARK    5  A    between atoms: C_6  and  S_7
REMARK    6  A    between atoms: S_7  and  C_8
REMARK    7  A    between atoms: C_8  and  C_9
REMARK    8  A    between atoms: C_15  and  C_16
REMARK    9  A    between atoms: C_20  and  N_21
REMARK                            x       y       z     vdW  Elec       q    Type
REMARK                         _______ _______ _______ _____ _____    ______ ____
ROOT
ATOM      1  C   UNL     1       4.260   3.306  19.362  0.00  0.00    +0.000 C 
ATOM      2  O   UNL     1       4.418   2.115  19.640  0.00  0.00    +0.000 OA
ATOM      3  N   UNL     1       3.194   3.950  19.932  0.00  0.00    +0.000 N 
ATOM      4  C   UNL     1       2.819   5.224  19.627  0.00  0.00    +0.000 A 
ATOM      5  N   UNL     1       3.247   5.988  18.657  0.00  0.00    +0.000 NA
ATOM      6  N   UNL     1       2.712   7.248  18.723  0.00  0.00    +0.000 NA
ATOM      7  C   UNL     1       1.885   7.386  19.741  0.00  0.00    +0.000 A 
ATOM      8  S   UNL     1       1.667   5.933  20.651  0.00  0.00    +0.000 S 
ATOM      9  H   UNL     1       2.673   3.437  20.629  0.00  0.00    +0.000 HD
ENDROOT
BRANCH   7  10
ATOM     10  C   UNL     1       1.264   8.656  20.123  0.00  0.00    +0.000 A 
ATOM     11  C   UNL     1       1.142   9.669  19.153  0.00  0.00    +0.000 A 
ATOM     12  C   UNL     1       0.585  10.911  19.471  0.00  0.00    +0.000 A 
ATOM     13  C   UNL     1       0.133  11.156  20.765  0.00  0.00    +0.000 A 
ATOM     14  C   UNL     1       0.235  10.150  21.733  0.00  0.00    +0.000 A 
ATOM     15  C   UNL     1       0.790   8.903  21.417  0.00  0.00    +0.000 A 
BRANCH  14  16
ATOM     16  N   UNL     1      -0.237  10.401  23.102  0.00  0.00    +0.000 N 
ATOM     17  O   UNL     1      -1.002  11.354  23.280  0.00  0.00    +0.000 OA
ATOM     18  O   UNL     1       0.168   9.641  23.994  0.00  0.00    +0.000 OA
ENDBRANCH  14  16
ENDBRANCH   7  10
BRANCH   1  19
ATOM     19  C   UNL     1       5.196   4.104  18.449  0.00  0.00    +0.000 C 
BRANCH  19  20
ATOM     20  S   UNL     1       4.982   3.756  16.684  0.00  0.00    +0.000 S 
BRANCH  20  21
ATOM     21  C   UNL     1       5.617   5.322  16.037  0.00  0.00    +0.000 C 
BRANCH  21  22
ATOM     22  C   UNL     1       7.116   5.371  16.142  0.00  0.00    +0.000 C 
ATOM     23  O   UNL     1       7.840   4.385  16.166  0.00  0.00    +0.000 OA
BRANCH  22  24
ATOM     24  O   UNL     1       7.528   6.662  16.298  0.00  0.00    +0.000 OA
BRANCH  24  26
ATOM     25  C   UNL     1       7.986   6.617  18.636  0.00  0.00    +0.000 C 
ATOM     26  C   UNL     1       7.165   7.270  17.540  0.00  0.00    +0.000 C 
ENDBRANCH  24  26
ENDBRANCH  22  24
ENDBRANCH  21  22
ENDBRANCH  20  21
ENDBRANCH  19  20
ENDBRANCH   1  19
TORSDOF 8
ENDMDL
MODEL 2
REMARK VINA RESULT:      -7.0      1.511      2.254
REMARK  Name = 
REMARK  9 active torsions:
REMARK  status: ('A' for Active; 'I' for Inactive)
REMARK    1  A    between atoms: C_1  and  C_2
REMARK    2  A    between atoms: C_2  and  O_3
REMARK    3  A    between atoms: O_3  and  C_4
REMARK    4  A    between atoms: C_4  and  C_6
REMARK    5  A    between atoms: C_6  and  S_7
REMARK    6  A    between atoms: S_7  and  C_8
REMARK    7  A    between atoms: C_8  and  C_9
REMARK    8  A    between atoms: C_15  and  C_16
REMARK    9  A    between atoms: C_20  and  N_21
REMARK                            x       y       z     vdW  Elec       q    Type
REMARK                         _______ _______ _______ _____ _____    ______ ____
ROOT
ATOM      1  C   UNL     1       4.653   3.485  19.326  0.00  0.00    +0.000 C 
ATOM      2  O   UNL     1       4.890   2.307  19.605  0.00  0.00    +0.000 OA
ATOM      3  N   UNL     1       3.546   4.057  19.895  0.00  0.00    +0.000 N 
ATOM      4  C   UNL     1       3.088   5.303  19.589  0.00  0.00    +0.000 A 
ATOM      5  N   UNL     1       3.463   6.093  18.618  0.00  0.00    +0.000 NA
ATOM      6  N   UNL     1       2.846   7.314  18.682  0.00  0.00    +0.000 NA
ATOM      7  C   UNL     1       2.011   7.398  19.700  0.00  0.00    +0.000 A 
ATOM      8  S   UNL     1       1.890   5.934  20.611  0.00  0.00    +0.000 S 
ATOM      9  H   UNL     1       3.060   3.511  20.592  0.00  0.00    +0.000 HD
ENDROOT
BRANCH   7  10
ATOM     10  C   UNL     1       1.307   8.624  20.081  0.00  0.00    +0.000 A 
ATOM     11  C   UNL     1       1.139   9.636  19.117  0.00  0.00    +0.000 A 
ATOM     12  C   UNL     1       0.501  10.838  19.435  0.00  0.00    +0.000 A 
ATOM     13  C   UNL     1       0.012  11.044  20.721  0.00  0.00    +0.000 A 
ATOM     14  C   UNL     1       0.159  10.037  21.684  0.00  0.00    +0.000 A 
ATOM     15  C   UNL     1       0.795   8.830  21.367  0.00  0.00    +0.000 A 
BRANCH  14  16
ATOM     16  N   UNL     1      -0.351  10.246  23.046  0.00  0.00    +0.000 N 
ATOM     17  O   UNL     1      -1.314  11.007  23.187  0.00  0.00    +0.000 OA
ATOM     18  O   UNL     1       0.221   9.648  23.969  0.00  0.00    +0.000 OA
ENDBRANCH  14  16
ENDBRANCH   7  10
BRANCH   1  19
ATOM     19  C   UNL     1       5.534   4.343  18.413  0.00  0.00    +0.000 C 
BRANCH  19  20
ATOM     20  S   UNL     1       5.318   4.005  16.645  0.00  0.00    +0.000 S 
BRANCH  20  21
ATOM     21  C   UNL     1       6.926   4.607  16.073  0.00  0.00    +0.000 C 
BRANCH  21  22
ATOM     22  C   UNL     1       6.983   4.622  14.571  0.00  0.00    +0.000 C 
ATOM     23  O   UNL     1       7.650   5.409  13.912  0.00  0.00    +0.000 OA
BRANCH  22  24
ATOM     24  O   UNL     1       6.118   3.698  14.064  0.00  0.00    +0.000 OA
BRANCH  24  26
ATOM     25  C   UNL     1       6.702   2.851  11.915  0.00  0.00    +0.000 C 
ATOM     26  C   UNL     1       5.828   3.836  12.671  0.00  0.00    +0.000 C 
ENDBRANCH  24  26
ENDBRANCH  22  24
ENDBRANCH  21  22
ENDBRANCH  20  21
ENDBRANCH  19  20
ENDBRANCH   1  19
TORSDOF 8
ENDMDL
MODEL 3
REMARK VINA RESULT:      -6.9      1.969      2.467
REMARK  Name = 
REMARK  9 active torsions:
REMARK  status: ('A' for Active; 'I' for Inactive)
REMARK    1  A    between atoms: C_1  and  C_2
REMARK    2  A    between atoms: C_2  and  O_3
REMARK    3  A    between atoms: O_3  and  C_4
REMARK    4  A    between atoms: C_4  and  C_6
REMARK    5  A    between atoms: C_6  and  S_7
REMARK    6  A    between atoms: S_7  and  C_8
REMARK    7  A    between atoms: C_8  and  C_9
REMARK    8  A    between atoms: C_15  and  C_16
REMARK    9  A    between atoms: C_20  and  N_21
REMARK                            x       y       z     vdW  Elec       q    Type
REMARK                         _______ _______ _______ _____ _____    ______ ____
ROOT
ATOM      1  C   UNL     1       4.391   5.736  16.823  0.00  0.00    +0.000 C 
ATOM      2  O   UNL     1       5.179   5.467  15.914  0.00  0.00    +0.000 OA
ATOM      3  N   UNL     1       3.951   7.030  16.914  0.00  0.00    +0.000 N 
ATOM      4  C   UNL     1       3.179   7.505  17.931  0.00  0.00    +0.000 A 
ATOM      5  N   UNL     1       2.871   6.922  19.060  0.00  0.00    +0.000 NA
ATOM      6  N   UNL     1       1.990   7.666  19.799  0.00  0.00    +0.000 NA
ATOM      7  C   UNL     1       1.672   8.799  19.202  0.00  0.00    +0.000 A 
ATOM      8  S   UNL     1       2.501   9.043  17.705  0.00  0.00    +0.000 S 
ATOM      9  H   UNL     1       4.214   7.653  16.164  0.00  0.00    +0.000 HD
ENDROOT
BRANCH   7  10
ATOM     10  C   UNL     1       0.662   9.732  19.705  0.00  0.00    +0.000 A 
ATOM     11  C   UNL     1       0.010  10.581  18.791  0.00  0.00    +0.000 A 
ATOM     12  C   UNL     1      -0.941  11.511  19.220  0.00  0.00    +0.000 A 
ATOM     13  C   UNL     1      -1.261  11.602  20.571  0.00  0.00    +0.000 A 
ATOM     14  C   UNL     1      -0.630  10.751  21.487  0.00  0.00    +0.000 A 
ATOM     15  C   UNL     1       0.321   9.815  21.060  0.00  0.00    +0.000 A 
BRANCH  14  16
ATOM     16  N   UNL     1      -0.959  10.841  22.917  0.00  0.00    +0.000 N 
ATOM     17  O   UNL     1      -0.250  10.211  23.708  0.00  0.00    +0.000 OA
ATOM     18  O   UNL     1      -1.930  11.541  23.238  0.00  0.00    +0.000 OA
ENDBRANCH  14  16
ENDBRANCH   7  10
BRANCH   1  19
ATOM     19  C   UNL     1       3.858   4.709  17.827  0.00  0.00    +0.000 C 
BRANCH  19  20
ATOM     20  S   UNL     1       5.151   3.866  18.778  0.00  0.00    +0.000 S 
BRANCH  20  21
ATOM     21  C   UNL     1       6.079   5.330  19.298  0.00  0.00    +0.000 C 
BRANCH  21  22
ATOM     22  C   UNL     1       7.410   5.390  18.601  0.00  0.00    +0.000 C 
ATOM     23  O   UNL     1       7.956   4.431  18.071  0.00  0.00    +0.000 OA
BRANCH  22  24
ATOM     24  O   UNL     1       7.947   6.636  18.733  0.00  0.00    +0.000 OA
BRANCH  24  26
ATOM     25  C   UNL     1       8.257   8.888  18.020  0.00  0.00    +0.000 C 
ATOM     26  C   UNL     1       7.656   7.540  17.664  0.00  0.00    +0.000 C 
ENDBRANCH  24  26
ENDBRANCH  22  24
ENDBRANCH  21  22
ENDBRANCH  20  21
ENDBRANCH  19  20
ENDBRANCH   1  19
TORSDOF 8
ENDMDL
MODEL 4
REMARK VINA RESULT:      -6.8      1.417      2.136
REMARK  Name = 
REMARK  9 active torsions:
REMARK  status: ('A' for Active; 'I' for Inactive)
REMARK    1  A    between atoms: C_1  and  C_2
REMARK    2  A    between atoms: C_2  and  O_3
REMARK    3  A    between atoms: O_3  and  C_4
REMARK    4  A    between atoms: C_4  and  C_6
REMARK    5  A    between atoms: C_6  and  S_7
REMARK    6  A    between atoms: S_7  and  C_8
REMARK    7  A    between atoms: C_8  and  C_9
REMARK    8  A    between atoms: C_15  and  C_16
REMARK    9  A    between atoms: C_20  and  N_21
REMARK                            x       y       z     vdW  Elec       q    Type
REMARK                         _______ _______ _______ _____ _____    ______ ____
ROOT
ATOM      1  C   UNL     1       4.462   4.402  19.307  0.00  0.00    +0.000 C 
ATOM      2  O   UNL     1       4.794   3.278  19.691  0.00  0.00    +0.000 OA
ATOM      3  N   UNL     1       3.384   4.985  19.920  0.00  0.00    +0.000 N 
ATOM      4  C   UNL     1       2.826   6.162  19.525  0.00  0.00    +0.000 A 
ATOM      5  N   UNL     1       3.056   6.848  18.436  0.00  0.00    +0.000 NA
ATOM      6  N   UNL     1       2.377   8.038  18.426  0.00  0.00    +0.000 NA
ATOM      7  C   UNL     1       1.644   8.203  19.510  0.00  0.00    +0.000 A 
ATOM      8  S   UNL     1       1.700   6.853  20.589  0.00  0.00    +0.000 S 
ATOM      9  H   UNL     1       3.003   4.503  20.722  0.00  0.00    +0.000 HD
ENDROOT
BRANCH   7  10
ATOM     10  C   UNL     1       0.909   9.431  19.821  0.00  0.00    +0.000 A 
ATOM     11  C   UNL     1       0.654  10.348  18.785  0.00  0.00    +0.000 A 
ATOM     12  C   UNL     1      -0.016  11.550  19.031  0.00  0.00    +0.000 A 
ATOM     13  C   UNL     1      -0.449  11.849  20.319  0.00  0.00    +0.000 A 
ATOM     14  C   UNL     1      -0.215  10.936  21.355  0.00  0.00    +0.000 A 
ATOM     15  C   UNL     1       0.453   9.730  21.110  0.00  0.00    +0.000 A 
BRANCH  14  16
ATOM     16  N   UNL     1      -0.666  11.245  22.719  0.00  0.00    +0.000 N 
ATOM     17  O   UNL     1      -1.015  12.405  22.959  0.00  0.00    +0.000 OA
ATOM     18  O   UNL     1      -0.663  10.320  23.545  0.00  0.00    +0.000 OA
ENDBRANCH  14  16
ENDBRANCH   7  10
BRANCH   1  19
ATOM     19  C   UNL     1       5.196   5.185  18.215  0.00  0.00    +0.000 C 
BRANCH  19  20
ATOM     20  S   UNL     1       6.936   5.526  18.592  0.00  0.00    +0.000 S 
BRANCH  20  21
ATOM     21  C   UNL     1       7.681   4.444  17.347  0.00  0.00    +0.000 C 
BRANCH  21  22
ATOM     22  C   UNL     1       7.238   4.839  15.966  0.00  0.00    +0.000 C 
ATOM     23  O   UNL     1       7.434   5.939  15.465  0.00  0.00    +0.000 OA
BRANCH  22  24
ATOM     24  O   UNL     1       6.514   3.830  15.404  0.00  0.00    +0.000 OA
BRANCH  24  26
ATOM     25  C   UNL     1       6.175   3.642  13.053  0.00  0.00    +0.000 C 
ATOM     26  C   UNL     1       5.636   4.226  14.347  0.00  0.00    +0.000 C 
ENDBRANCH  24  26
ENDBRANCH  22  24
ENDBRANCH  21  22
ENDBRANCH  20  21
ENDBRANCH  19  20
ENDBRANCH   1  19
TORSDOF 8
ENDMDL
MODEL 5
REMARK VINA RESULT:      -6.8      3.887      9.456
REMARK  Name = 
REMARK  9 active torsions:
REMARK  status: ('A' for Active; 'I' for Inactive)
REMARK    1  A    between atoms: C_1  and  C_2
REMARK    2  A    between atoms: C_2  and  O_3
REMARK    3  A    between atoms: O_3  and  C_4
REMARK    4  A    between atoms: C_4  and  C_6
REMARK    5  A    between atoms: C_6  and  S_7
REMARK    6  A    between atoms: S_7  and  C_8
REMARK    7  A    between atoms: C_8  and  C_9
REMARK    8  A    between atoms: C_15  and  C_16
REMARK    9  A    between atoms: C_20  and  N_21
REMARK                            x       y       z     vdW  Elec       q    Type
REMARK                         _______ _______ _______ _____ _____    ______ ____
ROOT
ATOM      1  C   UNL     1      -0.081  10.436  19.965  0.00  0.00    +0.000 C 
ATOM      2  O   UNL     1      -0.733  10.907  20.900  0.00  0.00    +0.000 OA
ATOM      3  N   UNL     1       0.689   9.334  20.226  0.00  0.00    +0.000 N 
ATOM      4  C   UNL     1       1.555   8.778  19.333  0.00  0.00    +0.000 A 
ATOM      5  N   UNL     1       1.953   9.252  18.182  0.00  0.00    +0.000 NA
ATOM      6  N   UNL     1       2.754   8.366  17.512  0.00  0.00    +0.000 NA
ATOM      7  C   UNL     1       2.942   7.251  18.191  0.00  0.00    +0.000 A 
ATOM      8  S   UNL     1       2.184   7.258  19.745  0.00  0.00    +0.000 S 
ATOM      9  H   UNL     1       0.586   8.913  21.139  0.00  0.00    +0.000 HD
ENDROOT
BRANCH   7  10
ATOM     10  C   UNL     1       3.655   6.085  17.667  0.00  0.00    +0.000 A 
ATOM     11  C   UNL     1       2.985   4.847  17.618  0.00  0.00    +0.000 A 
ATOM     12  C   UNL     1       3.627   3.695  17.155  0.00  0.00    +0.000 A 
ATOM     13  C   UNL     1       4.948   3.765  16.725  0.00  0.00    +0.000 A 
ATOM     14  C   UNL     1       5.619   4.993  16.753  0.00  0.00    +0.000 A 
ATOM     15  C   UNL     1       4.978   6.150  17.214  0.00  0.00    +0.000 A 
BRANCH  14  16
ATOM     16  N   UNL     1       7.016   5.076  16.304  0.00  0.00    +0.000 N 
ATOM     17  O   UNL     1       7.258   5.767  15.310  0.00  0.00    +0.000 OA
ATOM     18  O   UNL     1       7.863   4.442  16.950  0.00  0.00    +0.000 OA
ENDBRANCH  14  16
ENDBRANCH   7  10
BRANCH   1  19
ATOM     19  C   UNL     1      -0.107  10.990  18.538  0.00  0.00    +0.000 C 
BRANCH  19  20
ATOM     20  S   UNL     1      -1.656  11.820  18.094  0.00  0.00    +0.000 S 
BRANCH  20  21
ATOM     21  C   UNL     1      -2.646  10.344  17.752  0.00  0.00    +0.000 C 
BRANCH  21  22
ATOM     22  C   UNL     1      -3.913  10.709  17.030  0.00  0.00    +0.000 C 
ATOM     23  O   UNL     1      -3.977  10.973  15.837  0.00  0.00    +0.000 OA
BRANCH  22  24
ATOM     24  O   UNL     1      -4.945  10.792  17.917  0.00  0.00    +0.000 OA
BRANCH  24  26
ATOM     25  C   UNL     1      -7.038  11.928  17.960  0.00  0.00    +0.000 C 
ATOM     26  C   UNL     1      -5.532  12.089  18.050  0.00  0.00    +0.000 C 
ENDBRANCH  24  26
ENDBRANCH  22  24
ENDBRANCH  21  22
ENDBRANCH  20  21
ENDBRANCH  19  20
ENDBRANCH   1  19
TORSDOF 8
ENDMDL
MODEL 6
REMARK VINA RESULT:      -6.7      3.711      9.569
REMARK  Name = 
REMARK  9 active torsions:
REMARK  status: ('A' for Active; 'I' for Inactive)
REMARK    1  A    between atoms: C_1  and  C_2
REMARK    2  A    between atoms: C_2  and  O_3
REMARK    3  A    between atoms: O_3  and  C_4
REMARK    4  A    between atoms: C_4  and  C_6
REMARK    5  A    between atoms: C_6  and  S_7
REMARK    6  A    between atoms: S_7  and  C_8
REMARK    7  A    between atoms: C_8  and  C_9
REMARK    8  A    between atoms: C_15  and  C_16
REMARK    9  A    between atoms: C_20  and  N_21
REMARK                            x       y       z     vdW  Elec       q    Type
REMARK                         _______ _______ _______ _____ _____    ______ ____
ROOT
ATOM      1  C   UNL     1      -0.421  10.504  19.822  0.00  0.00    +0.000 C 
ATOM      2  O   UNL     1      -1.039  11.037  20.747  0.00  0.00    +0.000 OA
ATOM      3  N   UNL     1       0.486   9.531  20.148  0.00  0.00    +0.000 N 
ATOM      4  C   UNL     1       1.328   8.942  19.255  0.00  0.00    +0.000 A 
ATOM      5  N   UNL     1       1.571   9.284  18.016  0.00  0.00    +0.000 NA
ATOM      6  N   UNL     1       2.405   8.394  17.392  0.00  0.00    +0.000 NA
ATOM      7  C   UNL     1       2.774   7.412  18.191  0.00  0.00    +0.000 A 
ATOM      8  S   UNL     1       2.156   7.565  19.799  0.00  0.00    +0.000 S 
ATOM      9  H   UNL     1       0.509   9.237  21.114  0.00  0.00    +0.000 HD
ENDROOT
BRANCH   7  10
ATOM     10  C   UNL     1       3.564   6.258  17.757  0.00  0.00    +0.000 A 
ATOM     11  C   UNL     1       2.918   5.019  17.591  0.00  0.00    +0.000 A 
ATOM     12  C   UNL     1       3.629   3.878  17.207  0.00  0.00    +0.000 A 
ATOM     13  C   UNL     1       4.999   3.962  16.976  0.00  0.00    +0.000 A 
ATOM     14  C   UNL     1       5.649   5.193  17.122  0.00  0.00    +0.000 A 
ATOM     15  C   UNL     1       4.939   6.339  17.503  0.00  0.00    +0.000 A 
BRANCH  14  16
ATOM     16  N   UNL     1       7.096   5.290  16.883  0.00  0.00    +0.000 N 
ATOM     17  O   UNL     1       7.474   5.975  15.927  0.00  0.00    +0.000 OA
ATOM     18  O   UNL     1       7.846   4.675  17.655  0.00  0.00    +0.000 OA
ENDBRANCH  14  16
ENDBRANCH   7  10
BRANCH   1  19
ATOM     19  C   UNL     1      -0.632  10.844  18.343  0.00  0.00    +0.000 C 
BRANCH  19  20
ATOM     20  S   UNL     1      -2.095  10.068  17.607  0.00  0.00    +0.000 S 
BRANCH  20  21
ATOM     21  C   UNL     1      -3.104  11.558  17.418  0.00  0.00    +0.000 C 
BRANCH  21  22
ATOM     22  C   UNL     1      -4.210  11.582  18.437  0.00  0.00    +0.000 C 
ATOM     23  O   UNL     1      -4.159  12.190  19.498  0.00  0.00    +0.000 OA
BRANCH  22  24
ATOM     24  O   UNL     1      -5.223  10.760  18.042  0.00  0.00    +0.000 OA
BRANCH  24  26
ATOM     25  C   UNL     1      -6.876  12.382  17.485  0.00  0.00    +0.000 C 
ATOM     26  C   UNL     1      -6.538  11.206  18.383  0.00  0.00    +0.000 C 
ENDBRANCH  24  26
ENDBRANCH  22  24
ENDBRANCH  21  22
ENDBRANCH  20  21
ENDBRANCH  19  20
ENDBRANCH   1  19
TORSDOF 8
ENDMDL
MODEL 7
REMARK VINA RESULT:      -6.7      3.310      8.765
REMARK  Name = 
REMARK  9 active torsions:
REMARK  status: ('A' for Active; 'I' for Inactive)
REMARK    1  A    between atoms: C_1  and  C_2
REMARK    2  A    between atoms: C_2  and  O_3
REMARK    3  A    between atoms: O_3  and  C_4
REMARK    4  A    between atoms: C_4  and  C_6
REMARK    5  A    between atoms: C_6  and  S_7
REMARK    6  A    between atoms: S_7  and  C_8
REMARK    7  A    between atoms: C_8  and  C_9
REMARK    8  A    between atoms: C_15  and  C_16
REMARK    9  A    between atoms: C_20  and  N_21
REMARK                            x       y       z     vdW  Elec       q    Type
REMARK                         _______ _______ _______ _____ _____    ______ ____
ROOT
ATOM      1  C   UNL     1      -0.199   9.637  21.346  0.00  0.00    +0.000 C 
ATOM      2  O   UNL     1      -0.787   9.974  22.376  0.00  0.00    +0.000 OA
ATOM      3  N   UNL     1       0.616   8.538  21.416  0.00  0.00    +0.000 N 
ATOM      4  C   UNL     1       1.423   8.119  20.401  0.00  0.00    +0.000 A 
ATOM      5  N   UNL     1       1.718   8.738  19.288  0.00  0.00    +0.000 NA
ATOM      6  N   UNL     1       2.486   7.963  18.459  0.00  0.00    +0.000 NA
ATOM      7  C   UNL     1       2.754   6.784  18.985  0.00  0.00    +0.000 A 
ATOM      8  S   UNL     1       2.119   6.583  20.581  0.00  0.00    +0.000 S 
ATOM      9  H   UNL     1       0.595   8.011  22.277  0.00  0.00    +0.000 HD
ENDROOT
BRANCH   7  10
ATOM     10  C   UNL     1       3.451   5.711  18.274  0.00  0.00    +0.000 A 
ATOM     11  C   UNL     1       2.695   4.655  17.731  0.00  0.00    +0.000 A 
ATOM     12  C   UNL     1       3.312   3.590  17.068  0.00  0.00    +0.000 A 
ATOM     13  C   UNL     1       4.696   3.568  16.932  0.00  0.00    +0.000 A 
ATOM     14  C   UNL     1       5.458   4.621  17.454  0.00  0.00    +0.000 A 
ATOM     15  C   UNL     1       4.842   5.691  18.115  0.00  0.00    +0.000 A 
BRANCH  14  16
ATOM     16  N   UNL     1       6.921   4.605  17.318  0.00  0.00    +0.000 N 
ATOM     17  O   UNL     1       7.390   4.647  16.176  0.00  0.00    +0.000 OA
ATOM     18  O   UNL     1       7.591   4.547  18.358  0.00  0.00    +0.000 OA
ENDBRANCH  14  16
ENDBRANCH   7  10
BRANCH   1  19
ATOM     19  C   UNL     1      -0.350  10.353  20.000  0.00  0.00    +0.000 C 
BRANCH  19  20
ATOM     20  S   UNL     1      -1.410  11.822  20.059  0.00  0.00    +0.000 S 
BRANCH  20  21
ATOM     21  C   UNL     1      -1.492  12.146  18.280  0.00  0.00    +0.000 C 
BRANCH  21  22
ATOM     22  C   UNL     1      -2.621  11.378  17.652  0.00  0.00    +0.000 C 
ATOM     23  O   UNL     1      -3.759  11.329  18.102  0.00  0.00    +0.000 OA
BRANCH  22  24
ATOM     24  O   UNL     1      -2.165  10.680  16.573  0.00  0.00    +0.000 OA
BRANCH  24  26
ATOM     25  C   UNL     1      -3.054  10.164  14.424  0.00  0.00    +0.000 C 
ATOM     26  C   UNL     1      -3.142   9.874  15.911  0.00  0.00    +0.000 C 
ENDBRANCH  24  26
ENDBRANCH  22  24
ENDBRANCH  21  22
ENDBRANCH  20  21
ENDBRANCH  19  20
ENDBRANCH   1  19
TORSDOF 8
ENDMDL
MODEL 8
REMARK VINA RESULT:      -6.7      2.509      2.865
REMARK  Name = 
REMARK  9 active torsions:
REMARK  status: ('A' for Active; 'I' for Inactive)
REMARK    1  A    between atoms: C_1  and  C_2
REMARK    2  A    between atoms: C_2  and  O_3
REMARK    3  A    between atoms: O_3  and  C_4
REMARK    4  A    between atoms: C_4  and  C_6
REMARK    5  A    between atoms: C_6  and  S_7
REMARK    6  A    between atoms: S_7  and  C_8
REMARK    7  A    between atoms: C_8  and  C_9
REMARK    8  A    between atoms: C_15  and  C_16
REMARK    9  A    between atoms: C_20  and  N_21
REMARK                            x       y       z     vdW  Elec       q    Type
REMARK                         _______ _______ _______ _____ _____    ______ ____
ROOT
ATOM      1  C   UNL     1       3.999   4.948  19.150  0.00  0.00    +0.000 C 
ATOM      2  O   UNL     1       4.408   3.903  19.660  0.00  0.00    +0.000 OA
ATOM      3  N   UNL     1       3.134   5.714  19.887  0.00  0.00    +0.000 N 
ATOM      4  C   UNL     1       2.505   6.825  19.415  0.00  0.00    +0.000 A 
ATOM      5  N   UNL     1       2.443   7.265  18.185  0.00  0.00    +0.000 NA
ATOM      6  N   UNL     1       1.802   8.473  18.104  0.00  0.00    +0.000 NA
ATOM      7  C   UNL     1       1.389   8.899  19.282  0.00  0.00    +0.000 A 
ATOM      8  S   UNL     1       1.717   7.789  20.567  0.00  0.00    +0.000 S 
ATOM      9  H   UNL     1       2.977   5.427  20.843  0.00  0.00    +0.000 HD
ENDROOT
BRANCH   7  10
ATOM     10  C   UNL     1       0.782  10.211  19.510  0.00  0.00    +0.000 A 
ATOM     11  C   UNL     1      -0.395  10.288  20.278  0.00  0.00    +0.000 A 
ATOM     12  C   UNL     1      -1.034  11.512  20.502  0.00  0.00    +0.000 A 
ATOM     13  C   UNL     1      -0.499  12.680  19.967  0.00  0.00    +0.000 A 
ATOM     14  C   UNL     1       0.681  12.617  19.215  0.00  0.00    +0.000 A 
ATOM     15  C   UNL     1       1.325  11.393  18.992  0.00  0.00    +0.000 A 
BRANCH  14  16
ATOM     16  N   UNL     1       1.252  13.845  18.644  0.00  0.00    +0.000 N 
ATOM     17  O   UNL     1       2.399  13.786  18.189  0.00  0.00    +0.000 OA
ATOM     18  O   UNL     1       0.546  14.864  18.658  0.00  0.00    +0.000 OA
ENDBRANCH  14  16
ENDBRANCH   7  10
BRANCH   1  19
ATOM     19  C   UNL     1       4.422   5.448  17.765  0.00  0.00    +0.000 C 
BRANCH  19  20
ATOM     20  S   UNL     1       4.793   4.126  16.583  0.00  0.00    +0.000 S 
BRANCH  20  21
ATOM     21  C   UNL     1       6.005   5.018  15.577  0.00  0.00    +0.000 C 
BRANCH  21  22
ATOM     22  C   UNL     1       7.276   5.238  16.349  0.00  0.00    +0.000 C 
ATOM     23  O   UNL     1       7.926   4.347  16.879  0.00  0.00    +0.000 OA
BRANCH  22  24
ATOM     24  O   UNL     1       7.535   6.574  16.445  0.00  0.00    +0.000 OA
BRANCH  24  26
ATOM     25  C   UNL     1       7.878   8.575  17.691  0.00  0.00    +0.000 C 
ATOM     26  C   UNL     1       7.667   7.074  17.778  0.00  0.00    +0.000 C 
ENDBRANCH  24  26
ENDBRANCH  22  24
ENDBRANCH  21  22
ENDBRANCH  20  21
ENDBRANCH  19  20
ENDBRANCH   1  19
TORSDOF 8
ENDMDL
MODEL 9
REMARK VINA RESULT:      -6.6      2.406      4.234
REMARK  Name = 
REMARK  9 active torsions:
REMARK  status: ('A' for Active; 'I' for Inactive)
REMARK    1  A    between atoms: C_1  and  C_2
REMARK    2  A    between atoms: C_2  and  O_3
REMARK    3  A    between atoms: O_3  and  C_4
REMARK    4  A    between atoms: C_4  and  C_6
REMARK    5  A    between atoms: C_6  and  S_7
REMARK    6  A    between atoms: S_7  and  C_8
REMARK    7  A    between atoms: C_8  and  C_9
REMARK    8  A    between atoms: C_15  and  C_16
REMARK    9  A    between atoms: C_20  and  N_21
REMARK                            x       y       z     vdW  Elec       q    Type
REMARK                         _______ _______ _______ _____ _____    ______ ____
ROOT
ATOM      1  C   UNL     1       4.070   6.166  17.605  0.00  0.00    +0.000 C 
ATOM      2  O   UNL     1       4.924   5.811  16.789  0.00  0.00    +0.000 OA
ATOM      3  N   UNL     1       3.546   7.424  17.464  0.00  0.00    +0.000 N 
ATOM      4  C   UNL     1       2.691   8.000  18.354  0.00  0.00    +0.000 A 
ATOM      5  N   UNL     1       2.356   7.584  19.547  0.00  0.00    +0.000 NA
ATOM      6  N   UNL     1       1.390   8.373  20.113  0.00  0.00    +0.000 NA
ATOM      7  C   UNL     1       1.037   9.371  19.326  0.00  0.00    +0.000 A 
ATOM      8  S   UNL     1       1.933   9.430  17.849  0.00  0.00    +0.000 S 
ATOM      9  H   UNL     1       3.813   7.936  16.635  0.00  0.00    +0.000 HD
ENDROOT
BRANCH   7  10
ATOM     10  C   UNL     1      -0.056  10.299  19.623  0.00  0.00    +0.000 A 
ATOM     11  C   UNL     1      -0.830  10.796  18.558  0.00  0.00    +0.000 A 
ATOM     12  C   UNL     1      -1.866  11.708  18.781  0.00  0.00    +0.000 A 
ATOM     13  C   UNL     1      -2.149  12.131  20.076  0.00  0.00    +0.000 A 
ATOM     14  C   UNL     1      -1.396  11.630  21.145  0.00  0.00    +0.000 A 
ATOM     15  C   UNL     1      -0.360  10.714  20.925  0.00  0.00    +0.000 A 
BRANCH  14  16
ATOM     16  N   UNL     1      -1.685  12.073  22.517  0.00  0.00    +0.000 N 
ATOM     17  O   UNL     1      -0.735  12.171  23.299  0.00  0.00    +0.000 OA
ATOM     18  O   UNL     1      -2.867  12.316  22.802  0.00  0.00    +0.000 OA
ENDBRANCH  14  16
ENDBRANCH   7  10
BRANCH   1  19
ATOM     19  C   UNL     1       3.547   5.277  18.738  0.00  0.00    +0.000 C 
BRANCH  19  20
ATOM     20  S   UNL     1       4.449   3.717  18.932  0.00  0.00    +0.000 S 
BRANCH  20  21
ATOM     21  C   UNL     1       3.419   2.693  17.852  0.00  0.00    +0.000 C 
BRANCH  21  22
ATOM     22  C   UNL     1       1.965   2.847  18.202  0.00  0.00    +0.000 C 
ATOM     23  O   UNL     1       1.165   3.511  17.557  0.00  0.00    +0.000 OA
BRANCH  22  24
ATOM     24  O   UNL     1       1.704   2.218  19.384  0.00  0.00    +0.000 OA
BRANCH  24  26
ATOM     25  C   UNL     1       1.877   2.939  21.648  0.00  0.00    +0.000 C 
ATOM     26  C   UNL     1       1.058   3.023  20.373  0.00  0.00    +0.000 C 
ENDBRANCH  24  26
ENDBRANCH  22  24
ENDBRANCH  21  22
ENDBRANCH  20  21
ENDBRANCH  19  20
ENDBRANCH   1  19
TORSDOF 8
ENDMDL
