MODEL 1
REMARK VINA RESULT:      -9.1      0.000      0.000
REMARK  Name = 
REMARK  5 active torsions:
REMARK  status: ('A' for Active; 'I' for Inactive)
REMARK    1  A    between atoms: O_1  and  C_2
REMARK    2  A    between atoms: C_2  and  C_3
REMARK    3  A    between atoms: C_2  and  C_10
REMARK    4  A    between atoms: C_3  and  C_4
REMARK    5  A    between atoms: C_15  and  C_16
REMARK                            x       y       z     vdW  Elec       q    Type
REMARK                         _______ _______ _______ _____ _____    ______ ____
ROOT
ATOM      1  C   UNL     1       2.060   6.804  19.586  0.00  0.00    +0.000 A 
ATOM      2  C   UNL     1       2.840   7.377  18.564  0.00  0.00    +0.000 A 
ATOM      3  C   UNL     1       3.587   6.606  17.667  0.00  0.00    +0.000 A 
ATOM      4  C   UNL     1       4.397   7.242  16.708  0.00  0.00    +0.000 A 
ATOM      5  C   UNL     1       5.208   6.511  15.843  0.00  0.00    +0.000 A 
ATOM      6  C   UNL     1       5.227   5.123  15.921  0.00  0.00    +0.000 A 
ATOM      7  C   UNL     1       4.388   4.488  16.855  0.00  0.00    +0.000 A 
ATOM      8  C   UNL     1       3.548   5.199  17.754  0.00  0.00    +0.000 A 
ATOM      9  C   UNL     1       2.700   4.581  18.739  0.00  0.00    +0.000 A 
ATOM     10  C   UNL     1       2.557   3.171  18.838  0.00  0.00    +0.000 A 
ATOM     11  C   UNL     1       1.747   2.558  19.791  0.00  0.00    +0.000 A 
ATOM     12  C   UNL     1       1.063   3.337  20.702  0.00  0.00    +0.000 A 
ATOM     13  C   UNL     1       1.194   4.723  20.649  0.00  0.00    +0.000 A 
ATOM     14  C   UNL     1       1.971   5.383  19.667  0.00  0.00    +0.000 A 
ENDROOT
BRANCH   6  15
ATOM     15  C   UNL     1       6.135   4.293  15.048  0.00  0.00    +0.000 C 
ATOM     16  F   UNL     1       7.439   4.687  15.081  0.00  0.00    +0.000 F 
ATOM     17  F   UNL     1       6.135   2.979  15.403  0.00  0.00    +0.000 F 
ATOM     18  F   UNL     1       5.769   4.323  13.736  0.00  0.00    +0.000 F 
ENDBRANCH   6  15
BRANCH   1  19
ATOM     19  C   UNL     1       1.365   7.731  20.586  0.00  0.00    +0.000 C 
BRANCH  19  20
ATOM     20  O   UNL     1       2.141   7.874  21.782  0.00  0.00    +0.000 OA
ATOM     21  H   UNL     1       1.616   7.514  22.516  0.00  0.00    +0.000 HD
ENDBRANCH  19  20
BRANCH  19  22
ATOM     22  C   UNL     1       0.971   9.124  20.053  0.00  0.00    +0.000 C 
BRANCH  22  23
ATOM     23  C   UNL     1      -0.165   9.838  20.805  0.00  0.00    +0.000 C 
ATOM     24  C   UNL     1      -0.378  11.281  20.324  0.00  0.00    +0.000 C 
ATOM     25  C   UNL     1      -1.460  11.978  21.137  0.00  0.00    +0.000 C 
ATOM     26  C   UNL     1      -1.162  11.881  22.628  0.00  0.00    +0.000 C 
ATOM     27  C   UNL     1      -0.892  10.440  23.045  0.00  0.00    +0.000 C 
ATOM     28  N   UNL     1       0.178   9.844  22.244  0.00  0.00    +0.000 NA
ATOM     29  H   UNL     1       0.323   8.885  22.561  0.00  0.00    +0.000 HD
ENDBRANCH  22  23
ENDBRANCH  19  22
ENDBRANCH   1  19
TORSDOF 5
ENDMDL
MODEL 2
REMARK VINA RESULT:      -8.9      1.085      1.617
REMARK  Name = 
REMARK  5 active torsions:
REMARK  status: ('A' for Active; 'I' for Inactive)
REMARK    1  A    between atoms: O_1  and  C_2
REMARK    2  A    between atoms: C_2  and  C_3
REMARK    3  A    between atoms: C_2  and  C_10
REMARK    4  A    between atoms: C_3  and  C_4
REMARK    5  A    between atoms: C_15  and  C_16
REMARK                            x       y       z     vdW  Elec       q    Type
REMARK                         _______ _______ _______ _____ _____    ______ ____
ROOT
ATOM      1  C   UNL     1       2.087   6.992  19.424  0.00  0.00    +0.000 A 
ATOM      2  C   UNL     1       2.864   7.499  18.365  0.00  0.00    +0.000 A 
ATOM      3  C   UNL     1       3.622   6.674  17.527  0.00  0.00    +0.000 A 
ATOM      4  C   UNL     1       4.429   7.249  16.527  0.00  0.00    +0.000 A 
ATOM      5  C   UNL     1       5.250   6.468  15.718  0.00  0.00    +0.000 A 
ATOM      6  C   UNL     1       5.282   5.089  15.894  0.00  0.00    +0.000 A 
ATOM      7  C   UNL     1       4.446   4.513  16.868  0.00  0.00    +0.000 A 
ATOM      8  C   UNL     1       3.596   5.277  17.713  0.00  0.00    +0.000 A 
ATOM      9  C   UNL     1       2.752   4.721  18.736  0.00  0.00    +0.000 A 
ATOM     10  C   UNL     1       2.622   3.321  18.934  0.00  0.00    +0.000 A 
ATOM     11  C   UNL     1       1.815   2.768  19.927  0.00  0.00    +0.000 A 
ATOM     12  C   UNL     1       1.121   3.602  20.778  0.00  0.00    +0.000 A 
ATOM     13  C   UNL     1       1.238   4.983  20.629  0.00  0.00    +0.000 A 
ATOM     14  C   UNL     1       2.012   5.579  19.604  0.00  0.00    +0.000 A 
ENDROOT
BRANCH   6  15
ATOM     15  C   UNL     1       6.201   4.209  15.083  0.00  0.00    +0.000 C 
ATOM     16  F   UNL     1       5.890   4.163  13.757  0.00  0.00    +0.000 F 
ATOM     17  F   UNL     1       7.498   4.619  15.146  0.00  0.00    +0.000 F 
ATOM     18  F   UNL     1       6.200   2.916  15.512  0.00  0.00    +0.000 F 
ENDBRANCH   6  15
BRANCH   1  19
ATOM     19  C   UNL     1       1.380   7.980  20.354  0.00  0.00    +0.000 C 
BRANCH  19  20
ATOM     20  O   UNL     1       1.988   7.993  21.651  0.00  0.00    +0.000 OA
ATOM     21  H   UNL     1       2.844   8.446  21.568  0.00  0.00    +0.000 HD
ENDBRANCH  19  20
BRANCH  19  22
ATOM     22  C   UNL     1       1.247   9.424  19.829  0.00  0.00    +0.000 C 
BRANCH  22  23
ATOM     23  C   UNL     1      -0.188   9.932  19.603  0.00  0.00    +0.000 C 
ATOM     24  C   UNL     1      -0.571   9.982  18.118  0.00  0.00    +0.000 C 
ATOM     25  C   UNL     1      -1.969  10.554  17.929  0.00  0.00    +0.000 C 
ATOM     26  C   UNL     1      -2.101  11.901  18.628  0.00  0.00    +0.000 C 
ATOM     27  C   UNL     1      -1.646  11.816  20.081  0.00  0.00    +0.000 C 
ATOM     28  N   UNL     1      -0.285  11.289  20.184  0.00  0.00    +0.000 NA
ATOM     29  H   UNL     1      -0.026  11.254  21.170  0.00  0.00    +0.000 HD
ENDBRANCH  22  23
ENDBRANCH  19  22
ENDBRANCH   1  19
TORSDOF 5
ENDMDL
MODEL 3
REMARK VINA RESULT:      -8.9      0.636      1.245
REMARK  Name = 
REMARK  5 active torsions:
REMARK  status: ('A' for Active; 'I' for Inactive)
REMARK    1  A    between atoms: O_1  and  C_2
REMARK    2  A    between atoms: C_2  and  C_3
REMARK    3  A    between atoms: C_2  and  C_10
REMARK    4  A    between atoms: C_3  and  C_4
REMARK    5  A    between atoms: C_15  and  C_16
REMARK                            x       y       z     vdW  Elec       q    Type
REMARK                         _______ _______ _______ _____ _____    ______ ____
ROOT
ATOM      1  C   UNL     1       2.091   6.736  19.592  0.00  0.00    +0.000 A 
ATOM      2  C   UNL     1       2.875   7.328  18.584  0.00  0.00    +0.000 A 
ATOM      3  C   UNL     1       3.602   6.574  17.657  0.00  0.00    +0.000 A 
ATOM      4  C   UNL     1       4.416   7.227  16.713  0.00  0.00    +0.000 A 
ATOM      5  C   UNL     1       5.208   6.511  15.818  0.00  0.00    +0.000 A 
ATOM      6  C   UNL     1       5.202   5.121  15.850  0.00  0.00    +0.000 A 
ATOM      7  C   UNL     1       4.358   4.470  16.769  0.00  0.00    +0.000 A 
ATOM      8  C   UNL     1       3.537   5.167  17.697  0.00  0.00    +0.000 A 
ATOM      9  C   UNL     1       2.685   4.531  18.667  0.00  0.00    +0.000 A 
ATOM     10  C   UNL     1       2.517   3.122  18.721  0.00  0.00    +0.000 A 
ATOM     11  C   UNL     1       1.702   2.492  19.659  0.00  0.00    +0.000 A 
ATOM     12  C   UNL     1       1.039   3.252  20.600  0.00  0.00    +0.000 A 
ATOM     13  C   UNL     1       1.195   4.637  20.593  0.00  0.00    +0.000 A 
ATOM     14  C   UNL     1       1.978   5.315  19.627  0.00  0.00    +0.000 A 
ENDROOT
BRANCH   6  15
ATOM     15  C   UNL     1       6.089   4.304  14.943  0.00  0.00    +0.000 C 
ATOM     16  F   UNL     1       5.520   4.006  13.741  0.00  0.00    +0.000 F 
ATOM     17  F   UNL     1       7.258   4.941  14.653  0.00  0.00    +0.000 F 
ATOM     18  F   UNL     1       6.444   3.110  15.495  0.00  0.00    +0.000 F 
ENDBRANCH   6  15
BRANCH   1  19
ATOM     19  C   UNL     1       1.420   7.642  20.627  0.00  0.00    +0.000 C 
BRANCH  19  20
ATOM     20  O   UNL     1       2.228   7.766  21.804  0.00  0.00    +0.000 OA
ATOM     21  H   UNL     1       2.936   8.402  21.607  0.00  0.00    +0.000 HD
ENDBRANCH  19  20
BRANCH  19  22
ATOM     22  C   UNL     1       1.008   9.043  20.131  0.00  0.00    +0.000 C 
BRANCH  22  23
ATOM     23  C   UNL     1       0.603  10.052  21.219  0.00  0.00    +0.000 C 
ATOM     24  C   UNL     1      -0.497   9.515  22.145  0.00  0.00    +0.000 C 
ATOM     25  C   UNL     1      -0.921  10.564  23.163  0.00  0.00    +0.000 C 
ATOM     26  C   UNL     1      -1.304  11.866  22.471  0.00  0.00    +0.000 C 
ATOM     27  C   UNL     1      -0.209  12.324  21.513  0.00  0.00    +0.000 C 
ATOM     28  N   UNL     1       0.124  11.279  20.545  0.00  0.00    +0.000 NA
ATOM     29  H   UNL     1       0.856  11.632  19.928  0.00  0.00    +0.000 HD
ENDBRANCH  22  23
ENDBRANCH  19  22
ENDBRANCH   1  19
TORSDOF 5
ENDMDL
MODEL 4
REMARK VINA RESULT:      -8.7      3.302      5.586
REMARK  Name = 
REMARK  5 active torsions:
REMARK  status: ('A' for Active; 'I' for Inactive)
REMARK    1  A    between atoms: O_1  and  C_2
REMARK    2  A    between atoms: C_2  and  C_3
REMARK    3  A    between atoms: C_2  and  C_10
REMARK    4  A    between atoms: C_3  and  C_4
REMARK    5  A    between atoms: C_15  and  C_16
REMARK                            x       y       z     vdW  Elec       q    Type
REMARK                         _______ _______ _______ _____ _____    ______ ____
ROOT
ATOM      1  C   UNL     1       0.243  11.105  19.423  0.00  0.00    +0.000 A 
ATOM      2  C   UNL     1       0.899  10.340  18.441  0.00  0.00    +0.000 A 
ATOM      3  C   UNL     1       1.472   9.094  18.718  0.00  0.00    +0.000 A 
ATOM      4  C   UNL     1       2.170   8.407  17.707  0.00  0.00    +0.000 A 
ATOM      5  C   UNL     1       2.813   7.198  17.961  0.00  0.00    +0.000 A 
ATOM      6  C   UNL     1       2.771   6.648  19.237  0.00  0.00    +0.000 A 
ATOM      7  C   UNL     1       2.041   7.318  20.237  0.00  0.00    +0.000 A 
ATOM      8  C   UNL     1       1.373   8.553  20.016  0.00  0.00    +0.000 A 
ATOM      9  C   UNL     1       0.643   9.275  21.023  0.00  0.00    +0.000 A 
ATOM     10  C   UNL     1       0.443   8.759  22.331  0.00  0.00    +0.000 A 
ATOM     11  C   UNL     1      -0.254   9.450  23.320  0.00  0.00    +0.000 A 
ATOM     12  C   UNL     1      -0.762  10.702  23.041  0.00  0.00    +0.000 A 
ATOM     13  C   UNL     1      -0.570  11.251  21.774  0.00  0.00    +0.000 A 
ATOM     14  C   UNL     1       0.094  10.560  20.732  0.00  0.00    +0.000 A 
ENDROOT
BRANCH   6  15
ATOM     15  C   UNL     1       3.503   5.373  19.574  0.00  0.00    +0.000 C 
ATOM     16  F   UNL     1       3.029   4.745  20.687  0.00  0.00    +0.000 F 
ATOM     17  F   UNL     1       3.433   4.456  18.570  0.00  0.00    +0.000 F 
ATOM     18  F   UNL     1       4.832   5.577  19.798  0.00  0.00    +0.000 F 
ENDBRANCH   6  15
BRANCH   1  19
ATOM     19  C   UNL     1      -0.256  12.504  19.052  0.00  0.00    +0.000 C 
BRANCH  19  20
ATOM     20  O   UNL     1       0.270  12.919  17.785  0.00  0.00    +0.000 OA
ATOM     21  H   UNL     1      -0.009  12.263  17.124  0.00  0.00    +0.000 HD
ENDBRANCH  19  20
BRANCH  19  22
ATOM     22  C   UNL     1      -1.786  12.701  19.068  0.00  0.00    +0.000 C 
BRANCH  22  23
ATOM     23  C   UNL     1      -2.590  11.817  18.099  0.00  0.00    +0.000 C 
ATOM     24  C   UNL     1      -2.593  10.338  18.510  0.00  0.00    +0.000 C 
ATOM     25  C   UNL     1      -3.338   9.485  17.492  0.00  0.00    +0.000 C 
ATOM     26  C   UNL     1      -2.790   9.717  16.090  0.00  0.00    +0.000 C 
ATOM     27  C   UNL     1      -2.745  11.203  15.753  0.00  0.00    +0.000 C 
ATOM     28  N   UNL     1      -1.988  11.954  16.755  0.00  0.00    +0.000 NA
ATOM     29  H   UNL     1      -1.985  12.938  16.485  0.00  0.00    +0.000 HD
ENDBRANCH  22  23
ENDBRANCH  19  22
ENDBRANCH   1  19
TORSDOF 5
ENDMDL
MODEL 5
REMARK VINA RESULT:      -8.7      4.643      7.341
REMARK  Name = 
REMARK  5 active torsions:
REMARK  status: ('A' for Active; 'I' for Inactive)
REMARK    1  A    between atoms: O_1  and  C_2
REMARK    2  A    between atoms: C_2  and  C_3
REMARK    3  A    between atoms: C_2  and  C_10
REMARK    4  A    between atoms: C_3  and  C_4
REMARK    5  A    between atoms: C_15  and  C_16
REMARK                            x       y       z     vdW  Elec       q    Type
REMARK                         _______ _______ _______ _____ _____    ______ ____
ROOT
ATOM      1  C   UNL     1       3.544   4.997  18.067  0.00  0.00    +0.000 A 
ATOM      2  C   UNL     1       3.224   6.361  17.928  0.00  0.00    +0.000 A 
ATOM      3  C   UNL     1       2.489   7.062  18.890  0.00  0.00    +0.000 A 
ATOM      4  C   UNL     1       2.146   8.408  18.662  0.00  0.00    +0.000 A 
ATOM      5  C   UNL     1       1.358   9.119  19.562  0.00  0.00    +0.000 A 
ATOM      6  C   UNL     1       0.892   8.496  20.715  0.00  0.00    +0.000 A 
ATOM      7  C   UNL     1       1.267   7.162  20.960  0.00  0.00    +0.000 A 
ATOM      8  C   UNL     1       2.070   6.404  20.064  0.00  0.00    +0.000 A 
ATOM      9  C   UNL     1       2.447   5.031  20.272  0.00  0.00    +0.000 A 
ATOM     10  C   UNL     1       2.119   4.327  21.461  0.00  0.00    +0.000 A 
ATOM     11  C   UNL     1       2.470   2.995  21.673  0.00  0.00    +0.000 A 
ATOM     12  C   UNL     1       3.146   2.307  20.687  0.00  0.00    +0.000 A 
ATOM     13  C   UNL     1       3.468   2.958  19.497  0.00  0.00    +0.000 A 
ATOM     14  C   UNL     1       3.167   4.322  19.265  0.00  0.00    +0.000 A 
ENDROOT
BRANCH   6  15
ATOM     15  C   UNL     1      -0.015   9.208  21.688  0.00  0.00    +0.000 C 
ATOM     16  F   UNL     1      -0.971   8.405  22.235  0.00  0.00    +0.000 F 
ATOM     17  F   UNL     1       0.669   9.741  22.738  0.00  0.00    +0.000 F 
ATOM     18  F   UNL     1      -0.684  10.247  21.114  0.00  0.00    +0.000 F 
ENDBRANCH   6  15
BRANCH   1  19
ATOM     19  C   UNL     1       4.257   4.290  16.912  0.00  0.00    +0.000 C 
BRANCH  19  20
ATOM     20  O   UNL     1       3.324   3.584  16.086  0.00  0.00    +0.000 OA
ATOM     21  H   UNL     1       3.800   3.292  15.290  0.00  0.00    +0.000 HD
ENDBRANCH  19  20
BRANCH  19  22
ATOM     22  C   UNL     1       5.162   5.178  16.032  0.00  0.00    +0.000 C 
BRANCH  22  23
ATOM     23  C   UNL     1       6.496   5.615  16.661  0.00  0.00    +0.000 C 
ATOM     24  C   UNL     1       6.775   4.917  18.000  0.00  0.00    +0.000 C 
ATOM     25  C   UNL     1       8.067   5.425  18.626  0.00  0.00    +0.000 C 
ATOM     26  C   UNL     1       8.054   6.945  18.733  0.00  0.00    +0.000 C 
ATOM     27  C   UNL     1       7.707   7.589  17.396  0.00  0.00    +0.000 C 
ATOM     28  N   UNL     1       6.441   7.078  16.870  0.00  0.00    +0.000 NA
ATOM     29  H   UNL     1       6.252   7.539  15.980  0.00  0.00    +0.000 HD
ENDBRANCH  22  23
ENDBRANCH  19  22
ENDBRANCH   1  19
TORSDOF 5
ENDMDL
MODEL 6
REMARK VINA RESULT:      -8.6      3.267      5.513
REMARK  Name = 
REMARK  5 active torsions:
REMARK  status: ('A' for Active; 'I' for Inactive)
REMARK    1  A    between atoms: O_1  and  C_2
REMARK    2  A    between atoms: C_2  and  C_3
REMARK    3  A    between atoms: C_2  and  C_10
REMARK    4  A    between atoms: C_3  and  C_4
REMARK    5  A    between atoms: C_15  and  C_16
REMARK                            x       y       z     vdW  Elec       q    Type
REMARK                         _______ _______ _______ _____ _____    ______ ____
ROOT
ATOM      1  C   UNL     1       0.737  11.112  19.264  0.00  0.00    +0.000 A 
ATOM      2  C   UNL     1       1.360  10.201  18.390  0.00  0.00    +0.000 A 
ATOM      3  C   UNL     1       1.686   8.896  18.773  0.00  0.00    +0.000 A 
ATOM      4  C   UNL     1       2.366   8.054  17.873  0.00  0.00    +0.000 A 
ATOM      5  C   UNL     1       2.769   6.773  18.239  0.00  0.00    +0.000 A 
ATOM      6  C   UNL     1       2.499   6.304  19.520  0.00  0.00    +0.000 A 
ATOM      7  C   UNL     1       1.786   7.132  20.406  0.00  0.00    +0.000 A 
ATOM      8  C   UNL     1       1.359   8.445  20.068  0.00  0.00    +0.000 A 
ATOM      9  C   UNL     1       0.653   9.326  20.960  0.00  0.00    +0.000 A 
ATOM     10  C   UNL     1       0.231   8.918  22.253  0.00  0.00    +0.000 A 
ATOM     11  C   UNL     1      -0.446   9.762  23.130  0.00  0.00    +0.000 A 
ATOM     12  C   UNL     1      -0.707  11.063  22.753  0.00  0.00    +0.000 A 
ATOM     13  C   UNL     1      -0.290  11.508  21.500  0.00  0.00    +0.000 A 
ATOM     14  C   UNL     1       0.359  10.666  20.565  0.00  0.00    +0.000 A 
ENDROOT
BRANCH   6  15
ATOM     15  C   UNL     1       2.970   4.947  19.982  0.00  0.00    +0.000 C 
ATOM     16  F   UNL     1       4.320   4.778  19.905  0.00  0.00    +0.000 F 
ATOM     17  F   UNL     1       2.638   4.698  21.279  0.00  0.00    +0.000 F 
ATOM     18  F   UNL     1       2.425   3.930  19.258  0.00  0.00    +0.000 F 
ENDBRANCH   6  15
BRANCH   1  19
ATOM     19  C   UNL     1       0.519  12.551  18.791  0.00  0.00    +0.000 C 
BRANCH  19  20
ATOM     20  O   UNL     1       1.587  12.980  17.937  0.00  0.00    +0.000 OA
ATOM     21  H   UNL     1       2.049  13.706  18.389  0.00  0.00    +0.000 HD
ENDBRANCH  19  20
BRANCH  19  22
ATOM     22  C   UNL     1      -0.836  12.840  18.113  0.00  0.00    +0.000 C 
BRANCH  22  23
ATOM     23  C   UNL     1      -1.922  11.764  18.288  0.00  0.00    +0.000 C 
ATOM     24  C   UNL     1      -2.152  10.943  17.011  0.00  0.00    +0.000 C 
ATOM     25  C   UNL     1      -3.280   9.938  17.199  0.00  0.00    +0.000 C 
ATOM     26  C   UNL     1      -4.540  10.628  17.704  0.00  0.00    +0.000 C 
ATOM     27  C   UNL     1      -4.248  11.483  18.932  0.00  0.00    +0.000 C 
ATOM     28  N   UNL     1      -3.178  12.446  18.669  0.00  0.00    +0.000 NA
ATOM     29  H   UNL     1      -3.021  12.993  19.516  0.00  0.00    +0.000 HD
ENDBRANCH  22  23
ENDBRANCH  19  22
ENDBRANCH   1  19
TORSDOF 5
ENDMDL
MODEL 7
REMARK VINA RESULT:      -8.4      1.043      1.644
REMARK  Name = 
REMARK  5 active torsions:
REMARK  status: ('A' for Active; 'I' for Inactive)
REMARK    1  A    between atoms: O_1  and  C_2
REMARK    2  A    between atoms: C_2  and  C_3
REMARK    3  A    between atoms: C_2  and  C_10
REMARK    4  A    between atoms: C_3  and  C_4
REMARK    5  A    between atoms: C_15  and  C_16
REMARK                            x       y       z     vdW  Elec       q    Type
REMARK                         _______ _______ _______ _____ _____    ______ ____
ROOT
ATOM      1  C   UNL     1       1.963   6.725  19.751  0.00  0.00    +0.000 A 
ATOM      2  C   UNL     1       2.736   7.342  18.750  0.00  0.00    +0.000 A 
ATOM      3  C   UNL     1       3.496   6.612  17.830  0.00  0.00    +0.000 A 
ATOM      4  C   UNL     1       4.299   7.291  16.894  0.00  0.00    +0.000 A 
ATOM      5  C   UNL     1       5.122   6.601  16.007  0.00  0.00    +0.000 A 
ATOM      6  C   UNL     1       5.160   5.211  16.039  0.00  0.00    +0.000 A 
ATOM      7  C   UNL     1       4.328   4.533  16.950  0.00  0.00    +0.000 A 
ATOM      8  C   UNL     1       3.476   5.203  17.870  0.00  0.00    +0.000 A 
ATOM      9  C   UNL     1       2.636   4.540  18.831  0.00  0.00    +0.000 A 
ATOM     10  C   UNL     1       2.513   3.126  18.883  0.00  0.00    +0.000 A 
ATOM     11  C   UNL     1       1.710   2.470  19.814  0.00  0.00    +0.000 A 
ATOM     12  C   UNL     1       1.013   3.208  20.749  0.00  0.00    +0.000 A 
ATOM     13  C   UNL     1       1.124   4.598  20.742  0.00  0.00    +0.000 A 
ATOM     14  C   UNL     1       1.894   5.301  19.784  0.00  0.00    +0.000 A 
ENDROOT
BRANCH   6  15
ATOM     15  C   UNL     1       6.081   4.424  15.141  0.00  0.00    +0.000 C 
ATOM     16  F   UNL     1       6.193   3.110  15.484  0.00  0.00    +0.000 F 
ATOM     17  F   UNL     1       5.672   4.435  13.842  0.00  0.00    +0.000 F 
ATOM     18  F   UNL     1       7.351   4.917  15.134  0.00  0.00    +0.000 F 
ENDBRANCH   6  15
BRANCH   1  19
ATOM     19  C   UNL     1       1.253   7.608  20.779  0.00  0.00    +0.000 C 
BRANCH  19  20
ATOM     20  O   UNL     1       2.191   8.194  21.690  0.00  0.00    +0.000 OA
ATOM     21  H   UNL     1       2.826   8.708  21.165  0.00  0.00    +0.000 HD
ENDBRANCH  19  20
BRANCH  19  22
ATOM     22  C   UNL     1       0.333   8.705  20.205  0.00  0.00    +0.000 C 
BRANCH  22  23
ATOM     23  C   UNL     1       0.868  10.145  20.286  0.00  0.00    +0.000 C 
ATOM     24  C   UNL     1      -0.046  11.072  21.100  0.00  0.00    +0.000 C 
ATOM     25  C   UNL     1       0.477  12.501  21.098  0.00  0.00    +0.000 C 
ATOM     26  C   UNL     1       0.711  12.990  19.675  0.00  0.00    +0.000 C 
ATOM     27  C   UNL     1       1.568  12.005  18.887  0.00  0.00    +0.000 C 
ATOM     28  N   UNL     1       0.990  10.661  18.905  0.00  0.00    +0.000 NA
ATOM     29  H   UNL     1       1.595  10.042  18.365  0.00  0.00    +0.000 HD
ENDBRANCH  22  23
ENDBRANCH  19  22
ENDBRANCH   1  19
TORSDOF 5
ENDMDL
MODEL 8
REMARK VINA RESULT:      -8.4      3.193      5.334
REMARK  Name = 
REMARK  5 active torsions:
REMARK  status: ('A' for Active; 'I' for Inactive)
REMARK    1  A    between atoms: O_1  and  C_2
REMARK    2  A    between atoms: C_2  and  C_3
REMARK    3  A    between atoms: C_2  and  C_10
REMARK    4  A    between atoms: C_3  and  C_4
REMARK    5  A    between atoms: C_15  and  C_16
REMARK                            x       y       z     vdW  Elec       q    Type
REMARK                         _______ _______ _______ _____ _____    ______ ____
ROOT
ATOM      1  C   UNL     1       0.278  10.907  19.185  0.00  0.00    +0.000 A 
ATOM      2  C   UNL     1       0.948  10.096  18.250  0.00  0.00    +0.000 A 
ATOM      3  C   UNL     1       1.536   8.875  18.599  0.00  0.00    +0.000 A 
ATOM      4  C   UNL     1       2.247   8.141  17.631  0.00  0.00    +0.000 A 
ATOM      5  C   UNL     1       2.904   6.957  17.956  0.00  0.00    +0.000 A 
ATOM      6  C   UNL     1       2.863   6.480  19.261  0.00  0.00    +0.000 A 
ATOM      7  C   UNL     1       2.120   7.195  20.219  0.00  0.00    +0.000 A 
ATOM      8  C   UNL     1       1.438   8.407  19.925  0.00  0.00    +0.000 A 
ATOM      9  C   UNL     1       0.693   9.175  20.887  0.00  0.00    +0.000 A 
ATOM     10  C   UNL     1       0.494   8.731  22.222  0.00  0.00    +0.000 A 
ATOM     11  C   UNL     1      -0.217   9.468  23.166  0.00  0.00    +0.000 A 
ATOM     12  C   UNL     1      -0.740  10.696  22.815  0.00  0.00    +0.000 A 
ATOM     13  C   UNL     1      -0.548  11.175  21.521  0.00  0.00    +0.000 A 
ATOM     14  C   UNL     1       0.130  10.434  20.522  0.00  0.00    +0.000 A 
ENDROOT
BRANCH   6  15
ATOM     15  C   UNL     1       3.610   5.235  19.673  0.00  0.00    +0.000 C 
ATOM     16  F   UNL     1       3.158   4.682  20.833  0.00  0.00    +0.000 F 
ATOM     17  F   UNL     1       3.530   4.250  18.735  0.00  0.00    +0.000 F 
ATOM     18  F   UNL     1       4.940   5.462  19.860  0.00  0.00    +0.000 F 
ENDBRANCH   6  15
BRANCH   1  19
ATOM     19  C   UNL     1      -0.237  12.275  18.733  0.00  0.00    +0.000 C 
BRANCH  19  20
ATOM     20  O   UNL     1       0.794  13.022  18.074  0.00  0.00    +0.000 OA
ATOM     21  H   UNL     1       1.465  13.246  18.741  0.00  0.00    +0.000 HD
ENDBRANCH  19  20
BRANCH  19  22
ATOM     22  C   UNL     1      -1.508  12.263  17.859  0.00  0.00    +0.000 C 
BRANCH  22  23
ATOM     23  C   UNL     1      -2.802  11.811  18.557  0.00  0.00    +0.000 C 
ATOM     24  C   UNL     1      -3.924  11.476  17.563  0.00  0.00    +0.000 C 
ATOM     25  C   UNL     1      -5.209  11.101  18.290  0.00  0.00    +0.000 C 
ATOM     26  C   UNL     1      -5.597  12.180  19.292  0.00  0.00    +0.000 C 
ATOM     27  C   UNL     1      -4.432  12.525  20.213  0.00  0.00    +0.000 C 
ATOM     28  N   UNL     1      -3.243  12.906  19.448  0.00  0.00    +0.000 NA
ATOM     29  H   UNL     1      -2.495  13.128  20.105  0.00  0.00    +0.000 HD
ENDBRANCH  22  23
ENDBRANCH  19  22
ENDBRANCH   1  19
TORSDOF 5
ENDMDL
MODEL 9
REMARK VINA RESULT:      -8.1      0.677      1.243
REMARK  Name = 
REMARK  5 active torsions:
REMARK  status: ('A' for Active; 'I' for Inactive)
REMARK    1  A    between atoms: O_1  and  C_2
REMARK    2  A    between atoms: C_2  and  C_3
REMARK    3  A    between atoms: C_2  and  C_10
REMARK    4  A    between atoms: C_3  and  C_4
REMARK    5  A    between atoms: C_15  and  C_16
REMARK                            x       y       z     vdW  Elec       q    Type
REMARK                         _______ _______ _______ _____ _____    ______ ____
ROOT
ATOM      1  C   UNL     1       2.037   6.502  19.975  0.00  0.00    +0.000 A 
ATOM      2  C   UNL     1       2.788   7.180  18.997  0.00  0.00    +0.000 A 
ATOM      3  C   UNL     1       3.486   6.509  17.987  0.00  0.00    +0.000 A 
ATOM      4  C   UNL     1       4.271   7.241  17.076  0.00  0.00    +0.000 A 
ATOM      5  C   UNL     1       5.035   6.606  16.101  0.00  0.00    +0.000 A 
ATOM      6  C   UNL     1       5.030   5.218  16.015  0.00  0.00    +0.000 A 
ATOM      7  C   UNL     1       4.215   4.490  16.901  0.00  0.00    +0.000 A 
ATOM      8  C   UNL     1       3.423   5.103  17.910  0.00  0.00    +0.000 A 
ATOM      9  C   UNL     1       2.602   4.385  18.848  0.00  0.00    +0.000 A 
ATOM     10  C   UNL     1       2.436   2.976  18.788  0.00  0.00    +0.000 A 
ATOM     11  C   UNL     1       1.651   2.266  19.695  0.00  0.00    +0.000 A 
ATOM     12  C   UNL     1       1.018   2.942  20.717  0.00  0.00    +0.000 A 
ATOM     13  C   UNL     1       1.173   4.323  20.822  0.00  0.00    +0.000 A 
ATOM     14  C   UNL     1       1.925   5.083  19.893  0.00  0.00    +0.000 A 
ENDROOT
BRANCH   6  15
ATOM     15  C   UNL     1       5.888   4.484  15.015  0.00  0.00    +0.000 C 
ATOM     16  F   UNL     1       5.287   4.299  13.806  0.00  0.00    +0.000 F 
ATOM     17  F   UNL     1       7.053   5.138  14.754  0.00  0.00    +0.000 F 
ATOM     18  F   UNL     1       6.249   3.243  15.446  0.00  0.00    +0.000 F 
ENDBRANCH   6  15
BRANCH   1  19
ATOM     19  C   UNL     1       1.399   7.315  21.104  0.00  0.00    +0.000 C 
BRANCH  19  20
ATOM     20  O   UNL     1       2.212   8.442  21.450  0.00  0.00    +0.000 OA
ATOM     21  H   UNL     1       1.615   9.171  21.690  0.00  0.00    +0.000 HD
ENDBRANCH  19  20
BRANCH  19  22
ATOM     22  C   UNL     1      -0.054   7.776  20.864  0.00  0.00    +0.000 C 
BRANCH  22  23
ATOM     23  C   UNL     1      -0.262   9.292  20.700  0.00  0.00    +0.000 C 
ATOM     24  C   UNL     1       0.687   9.911  19.664  0.00  0.00    +0.000 C 
ATOM     25  C   UNL     1       0.502  11.420  19.579  0.00  0.00    +0.000 C 
ATOM     26  C   UNL     1       0.622  12.057  20.958  0.00  0.00    +0.000 C 
ATOM     27  C   UNL     1      -0.290  11.366  21.967  0.00  0.00    +0.000 C 
ATOM     28  N   UNL     1      -0.035   9.926  22.017  0.00  0.00    +0.000 NA
ATOM     29  H   UNL     1      -0.664   9.511  22.704  0.00  0.00    +0.000 HD
ENDBRANCH  22  23
ENDBRANCH  19  22
ENDBRANCH   1  19
TORSDOF 5
ENDMDL
