MODEL 1
REMARK VINA RESULT:      -7.6      0.000      0.000
REMARK  Name = 
REMARK  5 active torsions:
REMARK  status: ('A' for Active; 'I' for Inactive)
REMARK    1  A    between atoms: C_1  and  C_2
REMARK    2  A    between atoms: C_6  and  C_7
REMARK    3  A    between atoms: C_10  and  C_11
REMARK    4  A    between atoms: C_11  and  N_12
REMARK    5  A    between atoms: C_19  and  N_20
REMARK                            x       y       z     vdW  Elec       q    Type
REMARK                         _______ _______ _______ _____ _____    ______ ____
ROOT
ATOM      1  C   UNL     1      -0.160   9.499  23.525  0.00  0.00    +0.000 C 
ATOM      2  C   UNL     1       0.221   9.544  22.078  0.00  0.00    +0.000 A 
ATOM      3  C   UNL     1       0.970   8.509  21.515  0.00  0.00    +0.000 A 
ATOM      4  C   UNL     1       1.375   8.582  20.181  0.00  0.00    +0.000 A 
ATOM      5  C   UNL     1       2.176   7.582  19.600  0.00  0.00    +0.000 A 
ATOM      6  C   UNL     1       2.613   7.667  18.269  0.00  0.00    +0.000 A 
ATOM      7  C   UNL     1       2.208   8.792  17.537  0.00  0.00    +0.000 A 
ATOM      8  C   UNL     1       1.405   9.783  18.115  0.00  0.00    +0.000 A 
ATOM      9  C   UNL     1       0.980   9.701  19.431  0.00  0.00    +0.000 A 
ATOM     10  N   UNL     1       0.231  10.690  19.958  0.00  0.00    +0.000 NA
ATOM     11  C   UNL     1      -0.129  10.610  21.250  0.00  0.00    +0.000 A 
ENDROOT
BRANCH   6  12
ATOM     12  C   UNL     1       3.488   6.626  17.686  0.00  0.00    +0.000 A 
ATOM     13  C   UNL     1       4.648   6.964  16.969  0.00  0.00    +0.000 A 
ATOM     14  C   UNL     1       5.433   5.986  16.346  0.00  0.00    +0.000 A 
ATOM     15  C   UNL     1       5.095   4.633  16.435  0.00  0.00    +0.000 A 
ATOM     16  C   UNL     1       3.957   4.282  17.170  0.00  0.00    +0.000 A 
ATOM     17  C   UNL     1       3.170   5.262  17.787  0.00  0.00    +0.000 A 
BRANCH  15  18
ATOM     18  C   UNL     1       5.885   3.614  15.653  0.00  0.00    +0.000 C 
BRANCH  18  19
ATOM     19  N   UNL     1       6.068   3.975  14.250  0.00  0.00    +0.000 NA
ATOM     20  H   UNL     1       7.037   4.260  14.112  0.00  0.00    +0.000 HD
ATOM     21  H   UNL     1       5.494   4.788  14.041  0.00  0.00    +0.000 HD
ENDBRANCH  18  19
ENDBRANCH  15  18
ENDBRANCH   6  12
BRANCH  11  22
ATOM     22  N   UNL     1      -0.824  11.712  21.744  0.00  0.00    +0.000 N 
ATOM     23  H   UNL     1      -0.579  12.500  21.150  0.00  0.00    +0.000 HD
ATOM     24  H   UNL     1      -1.823  11.552  21.778  0.00  0.00    +0.000 HD
ENDBRANCH  11  22
TORSDOF 4
ENDMDL
MODEL 2
REMARK VINA RESULT:      -7.5      0.794      1.327
REMARK  Name = 
REMARK  5 active torsions:
REMARK  status: ('A' for Active; 'I' for Inactive)
REMARK    1  A    between atoms: C_1  and  C_2
REMARK    2  A    between atoms: C_6  and  C_7
REMARK    3  A    between atoms: C_10  and  C_11
REMARK    4  A    between atoms: C_11  and  N_12
REMARK    5  A    between atoms: C_19  and  N_20
REMARK                            x       y       z     vdW  Elec       q    Type
REMARK                         _______ _______ _______ _____ _____    ______ ____
ROOT
ATOM      1  C   UNL     1      -0.116   9.438  23.567  0.00  0.00    +0.000 C 
ATOM      2  C   UNL     1       0.178   9.458  22.098  0.00  0.00    +0.000 A 
ATOM      3  C   UNL     1       1.018   8.494  21.536  0.00  0.00    +0.000 A 
ATOM      4  C   UNL     1       1.338   8.550  20.178  0.00  0.00    +0.000 A 
ATOM      5  C   UNL     1       2.226   7.627  19.594  0.00  0.00    +0.000 A 
ATOM      6  C   UNL     1       2.576   7.698  18.237  0.00  0.00    +0.000 A 
ATOM      7  C   UNL     1       1.996   8.728  17.483  0.00  0.00    +0.000 A 
ATOM      8  C   UNL     1       1.107   9.642  18.065  0.00  0.00    +0.000 A 
ATOM      9  C   UNL     1       0.767   9.574  19.407  0.00  0.00    +0.000 A 
ATOM     10  N   UNL     1      -0.069  10.489  19.934  0.00  0.00    +0.000 NA
ATOM     11  C   UNL     1      -0.345  10.430  21.249  0.00  0.00    +0.000 A 
ENDROOT
BRANCH   6  12
ATOM     12  C   UNL     1       3.541   6.744  17.648  0.00  0.00    +0.000 A 
ATOM     13  C   UNL     1       3.461   5.366  17.912  0.00  0.00    +0.000 A 
ATOM     14  C   UNL     1       4.421   4.473  17.423  0.00  0.00    +0.000 A 
ATOM     15  C   UNL     1       5.484   4.922  16.635  0.00  0.00    +0.000 A 
ATOM     16  C   UNL     1       5.558   6.289  16.342  0.00  0.00    +0.000 A 
ATOM     17  C   UNL     1       4.601   7.183  16.838  0.00  0.00    +0.000 A 
BRANCH  15  18
ATOM     18  C   UNL     1       6.569   3.959  16.226  0.00  0.00    +0.000 C 
BRANCH  18  19
ATOM     19  N   UNL     1       7.846   4.209  16.887  0.00  0.00    +0.000 NA
ATOM     20  H   UNL     1       8.327   3.318  17.011  0.00  0.00    +0.000 HD
ATOM     21  H   UNL     1       7.669   4.574  17.820  0.00  0.00    +0.000 HD
ENDBRANCH  18  19
ENDBRANCH  15  18
ENDBRANCH   6  12
BRANCH  11  22
ATOM     22  N   UNL     1      -1.145  11.463  21.735  0.00  0.00    +0.000 N 
ATOM     23  H   UNL     1      -0.612  12.321  21.622  0.00  0.00    +0.000 HD
ATOM     24  H   UNL     1      -2.043  11.504  21.271  0.00  0.00    +0.000 HD
ENDBRANCH  11  22
TORSDOF 4
ENDMDL
MODEL 3
REMARK VINA RESULT:      -7.3      1.864      7.770
REMARK  Name = 
REMARK  5 active torsions:
REMARK  status: ('A' for Active; 'I' for Inactive)
REMARK    1  A    between atoms: C_1  and  C_2
REMARK    2  A    between atoms: C_6  and  C_7
REMARK    3  A    between atoms: C_10  and  C_11
REMARK    4  A    between atoms: C_11  and  N_12
REMARK    5  A    between atoms: C_19  and  N_20
REMARK                            x       y       z     vdW  Elec       q    Type
REMARK                         _______ _______ _______ _____ _____    ______ ____
ROOT
ATOM      1  C   UNL     1       4.068   2.349  19.693  0.00  0.00    +0.000 C 
ATOM      2  C   UNL     1       3.793   3.740  19.211  0.00  0.00    +0.000 A 
ATOM      3  C   UNL     1       3.118   4.647  20.030  0.00  0.00    +0.000 A 
ATOM      4  C   UNL     1       2.810   5.924  19.556  0.00  0.00    +0.000 A 
ATOM      5  C   UNL     1       2.083   6.841  20.337  0.00  0.00    +0.000 A 
ATOM      6  C   UNL     1       1.742   8.114  19.854  0.00  0.00    +0.000 A 
ATOM      7  C   UNL     1       2.165   8.436  18.557  0.00  0.00    +0.000 A 
ATOM      8  C   UNL     1       2.895   7.524  17.784  0.00  0.00    +0.000 A 
ATOM      9  C   UNL     1       3.225   6.265  18.260  0.00  0.00    +0.000 A 
ATOM     10  N   UNL     1       3.904   5.407  17.474  0.00  0.00    +0.000 NA
ATOM     11  C   UNL     1       4.170   4.175  17.942  0.00  0.00    +0.000 A 
ENDROOT
BRANCH   6  12
ATOM     12  C   UNL     1       0.943   9.052  20.673  0.00  0.00    +0.000 A 
ATOM     13  C   UNL     1       0.805   8.877  22.060  0.00  0.00    +0.000 A 
ATOM     14  C   UNL     1      -0.016   9.714  22.824  0.00  0.00    +0.000 A 
ATOM     15  C   UNL     1      -0.714  10.769  22.230  0.00  0.00    +0.000 A 
ATOM     16  C   UNL     1      -0.562  10.971  20.854  0.00  0.00    +0.000 A 
ATOM     17  C   UNL     1       0.254  10.128  20.090  0.00  0.00    +0.000 A 
BRANCH  15  18
ATOM     18  C   UNL     1      -1.686  11.577  23.052  0.00  0.00    +0.000 C 
BRANCH  18  19
ATOM     19  N   UNL     1      -1.210  12.922  23.358  0.00  0.00    +0.000 NA
ATOM     20  H   UNL     1      -1.032  13.411  22.481  0.00  0.00    +0.000 HD
ATOM     21  H   UNL     1      -0.315  12.855  23.837  0.00  0.00    +0.000 HD
ENDBRANCH  18  19
ENDBRANCH  15  18
ENDBRANCH   6  12
BRANCH  11  22
ATOM     22  N   UNL     1       4.795   3.318  17.038  0.00  0.00    +0.000 N 
ATOM     23  H   UNL     1       5.215   2.572  17.587  0.00  0.00    +0.000 HD
ATOM     24  H   UNL     1       4.154   2.966  16.338  0.00  0.00    +0.000 HD
ENDBRANCH  11  22
TORSDOF 4
ENDMDL
MODEL 4
REMARK VINA RESULT:      -7.2      1.075      2.346
REMARK  Name = 
REMARK  5 active torsions:
REMARK  status: ('A' for Active; 'I' for Inactive)
REMARK    1  A    between atoms: C_1  and  C_2
REMARK    2  A    between atoms: C_6  and  C_7
REMARK    3  A    between atoms: C_10  and  C_11
REMARK    4  A    between atoms: C_11  and  N_12
REMARK    5  A    between atoms: C_19  and  N_20
REMARK                            x       y       z     vdW  Elec       q    Type
REMARK                         _______ _______ _______ _____ _____    ______ ____
ROOT
ATOM      1  C   UNL     1      -0.549  12.574  18.748  0.00  0.00    +0.000 C 
ATOM      2  C   UNL     1       0.042  11.302  19.274  0.00  0.00    +0.000 A 
ATOM      3  C   UNL     1       0.880  10.530  18.467  0.00  0.00    +0.000 A 
ATOM      4  C   UNL     1       1.381   9.314  18.938  0.00  0.00    +0.000 A 
ATOM      5  C   UNL     1       2.182   8.487  18.130  0.00  0.00    +0.000 A 
ATOM      6  C   UNL     1       2.661   7.250  18.586  0.00  0.00    +0.000 A 
ATOM      7  C   UNL     1       2.312   6.875  19.892  0.00  0.00    +0.000 A 
ATOM      8  C   UNL     1       1.520   7.703  20.698  0.00  0.00    +0.000 A 
ATOM      9  C   UNL     1       1.042   8.922  20.242  0.00  0.00    +0.000 A 
ATOM     10  N   UNL     1       0.260   9.676  21.039  0.00  0.00    +0.000 NA
ATOM     11  C   UNL     1      -0.230  10.831  20.557  0.00  0.00    +0.000 A 
ENDROOT
BRANCH   6  12
ATOM     12  C   UNL     1       3.470   6.374  17.710  0.00  0.00    +0.000 A 
ATOM     13  C   UNL     1       3.292   4.980  17.704  0.00  0.00    +0.000 A 
ATOM     14  C   UNL     1       4.110   4.143  16.938  0.00  0.00    +0.000 A 
ATOM     15  C   UNL     1       5.125   4.672  16.134  0.00  0.00    +0.000 A 
ATOM     16  C   UNL     1       5.293   6.061  16.111  0.00  0.00    +0.000 A 
ATOM     17  C   UNL     1       4.477   6.896  16.883  0.00  0.00    +0.000 A 
BRANCH  15  18
ATOM     18  C   UNL     1       6.069   3.741  15.417  0.00  0.00    +0.000 C 
BRANCH  18  19
ATOM     19  N   UNL     1       6.359   4.151  14.047  0.00  0.00    +0.000 NA
ATOM     20  H   UNL     1       7.007   3.479  13.637  0.00  0.00    +0.000 HD
ATOM     21  H   UNL     1       6.842   5.046  14.065  0.00  0.00    +0.000 HD
ENDBRANCH  18  19
ENDBRANCH  15  18
ENDBRANCH   6  12
BRANCH  11  22
ATOM     22  N   UNL     1      -1.102  11.508  21.407  0.00  0.00    +0.000 N 
ATOM     23  H   UNL     1      -0.769  12.467  21.462  0.00  0.00    +0.000 HD
ATOM     24  H   UNL     1      -2.063  11.452  21.095  0.00  0.00    +0.000 HD
ENDBRANCH  11  22
TORSDOF 4
ENDMDL
MODEL 5
REMARK VINA RESULT:      -7.2      1.873      7.700
REMARK  Name = 
REMARK  5 active torsions:
REMARK  status: ('A' for Active; 'I' for Inactive)
REMARK    1  A    between atoms: C_1  and  C_2
REMARK    2  A    between atoms: C_6  and  C_7
REMARK    3  A    between atoms: C_10  and  C_11
REMARK    4  A    between atoms: C_11  and  N_12
REMARK    5  A    between atoms: C_19  and  N_20
REMARK                            x       y       z     vdW  Elec       q    Type
REMARK                         _______ _______ _______ _____ _____    ______ ____
ROOT
ATOM      1  C   UNL     1       4.197   2.537  19.784  0.00  0.00    +0.000 C 
ATOM      2  C   UNL     1       3.882   3.910  19.276  0.00  0.00    +0.000 A 
ATOM      3  C   UNL     1       3.147   4.800  20.062  0.00  0.00    +0.000 A 
ATOM      4  C   UNL     1       2.804   6.058  19.562  0.00  0.00    +0.000 A 
ATOM      5  C   UNL     1       2.017   6.955  20.308  0.00  0.00    +0.000 A 
ATOM      6  C   UNL     1       1.642   8.207  19.798  0.00  0.00    +0.000 A 
ATOM      7  C   UNL     1       2.092   8.531  18.511  0.00  0.00    +0.000 A 
ATOM      8  C   UNL     1       2.881   7.639  17.772  0.00  0.00    +0.000 A 
ATOM      9  C   UNL     1       3.245   6.400  18.275  0.00  0.00    +0.000 A 
ATOM     10  N   UNL     1       3.982   5.560  17.522  0.00  0.00    +0.000 NA
ATOM     11  C   UNL     1       4.282   4.345  18.014  0.00  0.00    +0.000 A 
ENDROOT
BRANCH   6  12
ATOM     12  C   UNL     1       0.781   9.122  20.580  0.00  0.00    +0.000 A 
ATOM     13  C   UNL     1       0.184  10.248  19.987  0.00  0.00    +0.000 A 
ATOM     14  C   UNL     1      -0.563  11.160  20.742  0.00  0.00    +0.000 A 
ATOM     15  C   UNL     1      -0.755  10.969  22.114  0.00  0.00    +0.000 A 
ATOM     16  C   UNL     1      -0.188   9.836  22.708  0.00  0.00    +0.000 A 
ATOM     17  C   UNL     1       0.564   8.928  21.953  0.00  0.00    +0.000 A 
BRANCH  15  18
ATOM     18  C   UNL     1      -1.456  12.029  22.924  0.00  0.00    +0.000 C 
BRANCH  18  19
ATOM     19  N   UNL     1      -0.592  13.147  23.288  0.00  0.00    +0.000 NA
ATOM     20  H   UNL     1       0.052  12.837  24.014  0.00  0.00    +0.000 HD
ATOM     21  H   UNL     1      -1.160  13.883  23.700  0.00  0.00    +0.000 HD
ENDBRANCH  18  19
ENDBRANCH  15  18
ENDBRANCH   6  12
BRANCH  11  22
ATOM     22  N   UNL     1       4.967   3.503  17.141  0.00  0.00    +0.000 N 
ATOM     23  H   UNL     1       4.269   2.911  16.698  0.00  0.00    +0.000 HD
ATOM     24  H   UNL     1       5.519   4.017  16.465  0.00  0.00    +0.000 HD
ENDBRANCH  11  22
TORSDOF 4
ENDMDL
MODEL 6
REMARK VINA RESULT:      -7.2      1.460      2.476
REMARK  Name = 
REMARK  5 active torsions:
REMARK  status: ('A' for Active; 'I' for Inactive)
REMARK    1  A    between atoms: C_1  and  C_2
REMARK    2  A    between atoms: C_6  and  C_7
REMARK    3  A    between atoms: C_10  and  C_11
REMARK    4  A    between atoms: C_11  and  N_12
REMARK    5  A    between atoms: C_19  and  N_20
REMARK                            x       y       z     vdW  Elec       q    Type
REMARK                         _______ _______ _______ _____ _____    ______ ____
ROOT
ATOM      1  C   UNL     1      -0.273  11.213  20.510  0.00  0.00    +0.000 C 
ATOM      2  C   UNL     1       0.367   9.861  20.580  0.00  0.00    +0.000 A 
ATOM      3  C   UNL     1       1.212   9.429  19.556  0.00  0.00    +0.000 A 
ATOM      4  C   UNL     1       1.760   8.146  19.594  0.00  0.00    +0.000 A 
ATOM      5  C   UNL     1       2.571   7.661  18.551  0.00  0.00    +0.000 A 
ATOM      6  C   UNL     1       3.097   6.361  18.569  0.00  0.00    +0.000 A 
ATOM      7  C   UNL     1       2.787   5.564  19.679  0.00  0.00    +0.000 A 
ATOM      8  C   UNL     1       1.986   6.050  20.721  0.00  0.00    +0.000 A 
ATOM      9  C   UNL     1       1.461   7.332  20.698  0.00  0.00    +0.000 A 
ATOM     10  N   UNL     1       0.672   7.753  21.706  0.00  0.00    +0.000 NA
ATOM     11  C   UNL     1       0.136   8.984  21.638  0.00  0.00    +0.000 A 
ENDROOT
BRANCH   6  12
ATOM     12  C   UNL     1       3.915   5.854  17.445  0.00  0.00    +0.000 A 
ATOM     13  C   UNL     1       4.057   4.476  17.208  0.00  0.00    +0.000 A 
ATOM     14  C   UNL     1       4.895   3.992  16.196  0.00  0.00    +0.000 A 
ATOM     15  C   UNL     1       5.607   4.869  15.373  0.00  0.00    +0.000 A 
ATOM     16  C   UNL     1       5.451   6.244  15.583  0.00  0.00    +0.000 A 
ATOM     17  C   UNL     1       4.617   6.727  16.598  0.00  0.00    +0.000 A 
BRANCH  15  18
ATOM     18  C   UNL     1       6.595   4.320  14.377  0.00  0.00    +0.000 C 
BRANCH  18  19
ATOM     19  N   UNL     1       7.570   5.307  13.922  0.00  0.00    +0.000 NA
ATOM     20  H   UNL     1       7.070   6.081  13.485  0.00  0.00    +0.000 HD
ATOM     21  H   UNL     1       8.149   4.890  13.197  0.00  0.00    +0.000 HD
ENDBRANCH  18  19
ENDBRANCH  15  18
ENDBRANCH   6  12
BRANCH  11  22
ATOM     22  N   UNL     1      -0.739   9.310  22.672  0.00  0.00    +0.000 N 
ATOM     23  H   UNL     1      -0.223   9.187  23.539  0.00  0.00    +0.000 HD
ATOM     24  H   UNL     1      -1.114  10.245  22.576  0.00  0.00    +0.000 HD
ENDBRANCH  11  22
TORSDOF 4
ENDMDL
MODEL 7
REMARK VINA RESULT:      -7.1      1.165      2.174
REMARK  Name = 
REMARK  5 active torsions:
REMARK  status: ('A' for Active; 'I' for Inactive)
REMARK    1  A    between atoms: C_1  and  C_2
REMARK    2  A    between atoms: C_6  and  C_7
REMARK    3  A    between atoms: C_10  and  C_11
REMARK    4  A    between atoms: C_11  and  N_12
REMARK    5  A    between atoms: C_19  and  N_20
REMARK                            x       y       z     vdW  Elec       q    Type
REMARK                         _______ _______ _______ _____ _____    ______ ____
ROOT
ATOM      1  C   UNL     1      -1.002  12.483  18.493  0.00  0.00    +0.000 C 
ATOM      2  C   UNL     1      -0.321  11.295  19.100  0.00  0.00    +0.000 A 
ATOM      3  C   UNL     1       0.587  10.546  18.350  0.00  0.00    +0.000 A 
ATOM      4  C   UNL     1       1.175   9.404  18.899  0.00  0.00    +0.000 A 
ATOM      5  C   UNL     1       2.052   8.598  18.150  0.00  0.00    +0.000 A 
ATOM      6  C   UNL     1       2.620   7.431  18.685  0.00  0.00    +0.000 A 
ATOM      7  C   UNL     1       2.281   7.107  20.007  0.00  0.00    +0.000 A 
ATOM      8  C   UNL     1       1.414   7.916  20.753  0.00  0.00    +0.000 A 
ATOM      9  C   UNL     1       0.848   9.063  20.220  0.00  0.00    +0.000 A 
ATOM     10  N   UNL     1      -0.003   9.798  20.962  0.00  0.00    +0.000 NA
ATOM     11  C   UNL     1      -0.575  10.881  20.406  0.00  0.00    +0.000 A 
ENDROOT
BRANCH   6  12
ATOM     12  C   UNL     1       3.509   6.573  17.872  0.00  0.00    +0.000 A 
ATOM     13  C   UNL     1       4.469   7.126  17.007  0.00  0.00    +0.000 A 
ATOM     14  C   UNL     1       5.254   6.319  16.176  0.00  0.00    +0.000 A 
ATOM     15  C   UNL     1       5.120   4.928  16.193  0.00  0.00    +0.000 A 
ATOM     16  C   UNL     1       4.187   4.364  17.071  0.00  0.00    +0.000 A 
ATOM     17  C   UNL     1       3.398   5.173  17.897  0.00  0.00    +0.000 A 
BRANCH  15  18
ATOM     18  C   UNL     1       5.888   4.092  15.201  0.00  0.00    +0.000 C 
BRANCH  18  19
ATOM     19  N   UNL     1       7.242   4.580  14.957  0.00  0.00    +0.000 NA
ATOM     20  H   UNL     1       7.253   5.080  14.069  0.00  0.00    +0.000 HD
ATOM     21  H   UNL     1       7.865   3.784  14.848  0.00  0.00    +0.000 HD
ENDBRANCH  18  19
ENDBRANCH  15  18
ENDBRANCH   6  12
BRANCH  11  22
ATOM     22  N   UNL     1      -1.511  11.535  21.205  0.00  0.00    +0.000 N 
ATOM     23  H   UNL     1      -1.278  12.524  21.176  0.00  0.00    +0.000 HD
ATOM     24  H   UNL     1      -2.462  11.355  20.908  0.00  0.00    +0.000 HD
ENDBRANCH  11  22
TORSDOF 4
ENDMDL
MODEL 8
REMARK VINA RESULT:      -7.1      1.747      7.968
REMARK  Name = 
REMARK  5 active torsions:
REMARK  status: ('A' for Active; 'I' for Inactive)
REMARK    1  A    between atoms: C_1  and  C_2
REMARK    2  A    between atoms: C_6  and  C_7
REMARK    3  A    between atoms: C_10  and  C_11
REMARK    4  A    between atoms: C_11  and  N_12
REMARK    5  A    between atoms: C_19  and  N_20
REMARK                            x       y       z     vdW  Elec       q    Type
REMARK                         _______ _______ _______ _____ _____    ______ ____
ROOT
ATOM      1  C   UNL     1       5.418   5.855  15.627  0.00  0.00    +0.000 C 
ATOM      2  C   UNL     1       4.532   5.657  16.818  0.00  0.00    +0.000 A 
ATOM      3  C   UNL     1       3.844   6.740  17.370  0.00  0.00    +0.000 A 
ATOM      4  C   UNL     1       3.066   6.564  18.517  0.00  0.00    +0.000 A 
ATOM      5  C   UNL     1       2.406   7.645  19.129  0.00  0.00    +0.000 A 
ATOM      6  C   UNL     1       1.649   7.481  20.299  0.00  0.00    +0.000 A 
ATOM      7  C   UNL     1       1.573   6.185  20.830  0.00  0.00    +0.000 A 
ATOM      8  C   UNL     1       2.225   5.109  20.215  0.00  0.00    +0.000 A 
ATOM      9  C   UNL     1       2.977   5.275  19.063  0.00  0.00    +0.000 A 
ATOM     10  N   UNL     1       3.612   4.218  18.518  0.00  0.00    +0.000 NA
ATOM     11  C   UNL     1       4.374   4.415  17.429  0.00  0.00    +0.000 A 
ENDROOT
BRANCH   6  12
ATOM     12  C   UNL     1       0.994   8.635  20.953  0.00  0.00    +0.000 A 
ATOM     13  C   UNL     1       0.770   8.660  22.340  0.00  0.00    +0.000 A 
ATOM     14  C   UNL     1       0.078   9.712  22.949  0.00  0.00    +0.000 A 
ATOM     15  C   UNL     1      -0.401  10.788  22.194  0.00  0.00    +0.000 A 
ATOM     16  C   UNL     1      -0.159  10.787  20.816  0.00  0.00    +0.000 A 
ATOM     17  C   UNL     1       0.528   9.730  20.207  0.00  0.00    +0.000 A 
BRANCH  15  18
ATOM     18  C   UNL     1      -1.249  11.843  22.856  0.00  0.00    +0.000 C 
BRANCH  18  19
ATOM     19  N   UNL     1      -0.841  13.206  22.528  0.00  0.00    +0.000 NA
ATOM     20  H   UNL     1      -0.917  13.779  23.367  0.00  0.00    +0.000 HD
ATOM     21  H   UNL     1      -1.495  13.593  21.852  0.00  0.00    +0.000 HD
ENDBRANCH  18  19
ENDBRANCH  15  18
ENDBRANCH   6  12
BRANCH  11  22
ATOM     22  N   UNL     1       5.069   3.293  16.979  0.00  0.00    +0.000 N 
ATOM     23  H   UNL     1       4.708   3.079  16.054  0.00  0.00    +0.000 HD
ATOM     24  H   UNL     1       6.071   3.438  16.977  0.00  0.00    +0.000 HD
ENDBRANCH  11  22
TORSDOF 4
ENDMDL
MODEL 9
REMARK VINA RESULT:      -7.1      2.173      2.585
REMARK  Name = 
REMARK  5 active torsions:
REMARK  status: ('A' for Active; 'I' for Inactive)
REMARK    1  A    between atoms: C_1  and  C_2
REMARK    2  A    between atoms: C_6  and  C_7
REMARK    3  A    between atoms: C_10  and  C_11
REMARK    4  A    between atoms: C_11  and  N_12
REMARK    5  A    between atoms: C_19  and  N_20
REMARK                            x       y       z     vdW  Elec       q    Type
REMARK                         _______ _______ _______ _____ _____    ______ ____
ROOT
ATOM      1  C   UNL     1      -0.905  11.452  22.704  0.00  0.00    +0.000 C 
ATOM      2  C   UNL     1      -0.238  10.807  21.529  0.00  0.00    +0.000 A 
ATOM      3  C   UNL     1       0.265   9.508  21.631  0.00  0.00    +0.000 A 
ATOM      4  C   UNL     1       0.940   8.932  20.553  0.00  0.00    +0.000 A 
ATOM      5  C   UNL     1       1.507   7.647  20.644  0.00  0.00    +0.000 A 
ATOM      6  C   UNL     1       2.214   7.076  19.575  0.00  0.00    +0.000 A 
ATOM      7  C   UNL     1       2.325   7.840  18.404  0.00  0.00    +0.000 A 
ATOM      8  C   UNL     1       1.753   9.116  18.314  0.00  0.00    +0.000 A 
ATOM      9  C   UNL     1       1.061   9.681  19.373  0.00  0.00    +0.000 A 
ATOM     10  N   UNL     1       0.551  10.923  19.255  0.00  0.00    +0.000 NA
ATOM     11  C   UNL     1      -0.074  11.467  20.313  0.00  0.00    +0.000 A 
ENDROOT
BRANCH   6  12
ATOM     12  C   UNL     1       2.838   5.740  19.700  0.00  0.00    +0.000 A 
ATOM     13  C   UNL     1       4.125   5.484  19.196  0.00  0.00    +0.000 A 
ATOM     14  C   UNL     1       4.684   4.202  19.240  0.00  0.00    +0.000 A 
ATOM     15  C   UNL     1       3.983   3.133  19.806  0.00  0.00    +0.000 A 
ATOM     16  C   UNL     1       2.712   3.382  20.336  0.00  0.00    +0.000 A 
ATOM     17  C   UNL     1       2.152   4.664  20.286  0.00  0.00    +0.000 A 
BRANCH  15  18
ATOM     18  C   UNL     1       4.557   1.741  19.728  0.00  0.00    +0.000 C 
BRANCH  18  19
ATOM     19  N   UNL     1       4.142   1.009  18.535  0.00  0.00    +0.000 NA
ATOM     20  H   UNL     1       4.871   0.338  18.296  0.00  0.00    +0.000 HD
ATOM     21  H   UNL     1       4.079   1.658  17.755  0.00  0.00    +0.000 HD
ENDBRANCH  18  19
ENDBRANCH  15  18
ENDBRANCH   6  12
BRANCH  11  22
ATOM     22  N   UNL     1      -0.494  12.785  20.142  0.00  0.00    +0.000 N 
ATOM     23  H   UNL     1      -1.382  12.873  20.628  0.00  0.00    +0.000 HD
ATOM     24  H   UNL     1       0.192  13.452  20.472  0.00  0.00    +0.000 HD
ENDBRANCH  11  22
TORSDOF 4
ENDMDL
