MODEL 1
REMARK VINA RESULT:      -7.9      0.000      0.000
REMARK  Name = 
REMARK  5 active torsions:
REMARK  status: ('A' for Active; 'I' for Inactive)
REMARK    1  A    between atoms: C_1  and  S_2
REMARK    2  A    between atoms: S_2  and  C_4
REMARK    3  A    between atoms: C_8  and  C_9
REMARK    4  A    between atoms: C_15  and  C_16
REMARK    5  A    between atoms: C_23  and  N_24
REMARK                            x       y       z     vdW  Elec       q    Type
REMARK                         _______ _______ _______ _____ _____    ______ ____
ROOT
ATOM      1  C   UNL     1       5.384   5.272  16.413  0.00  0.00    +0.000 A 
ATOM      2  S   UNL     1       5.216   6.951  16.208  0.00  0.00    +0.000 S 
ATOM      3  C   UNL     1       3.905   7.014  17.293  0.00  0.00    +0.000 A 
ATOM      4  N   UNL     1       3.333   8.212  17.536  0.00  0.00    +0.000 NA
ATOM      5  C   UNL     1       2.329   8.190  18.427  0.00  0.00    +0.000 A 
ATOM      6  C   UNL     1       1.931   7.043  19.095  0.00  0.00    +0.000 A 
ATOM      7  C   UNL     1       2.545   5.798  18.849  0.00  0.00    +0.000 A 
ATOM      8  C   UNL     1       3.575   5.776  17.850  0.00  0.00    +0.000 A 
ATOM      9  C   UNL     1       4.407   4.751  17.240  0.00  0.00    +0.000 A 
ENDROOT
BRANCH   7  10
ATOM     10  C   UNL     1       2.153   4.631  19.667  0.00  0.00    +0.000 A 
ATOM     11  C   UNL     1       1.274   3.648  19.163  0.00  0.00    +0.000 A 
ATOM     12  C   UNL     1       0.844   2.576  19.951  0.00  0.00    +0.000 A 
ATOM     13  C   UNL     1       1.313   2.435  21.251  0.00  0.00    +0.000 A 
ATOM     14  C   UNL     1       2.172   3.393  21.778  0.00  0.00    +0.000 A 
ATOM     15  C   UNL     1       2.548   4.497  21.007  0.00  0.00    +0.000 A 
ENDBRANCH   7  10
BRANCH   5  16
ATOM     16  C   UNL     1       1.745   9.506  18.731  0.00  0.00    +0.000 A 
ATOM     17  C   UNL     1       1.934  10.707  18.066  0.00  0.00    +0.000 A 
ATOM     18  C   UNL     1       1.287  11.804  18.707  0.00  0.00    +0.000 A 
ATOM     19  C   UNL     1       0.577  11.406  19.815  0.00  0.00    +0.000 A 
ATOM     20  S   UNL     1       0.672   9.720  20.061  0.00  0.00    +0.000 S 
ENDBRANCH   5  16
BRANCH   1  22
ATOM     21  C   UNL     1       5.637   3.933  14.067  0.00  0.00    +0.000 C 
ATOM     22  S   UNL     1       6.598   4.355  15.541  0.00  0.00    +0.000 S 
ATOM     23  O   UNL     1       7.744   5.345  15.106  0.00  0.00    +0.000 OA
ENDBRANCH   1  22
BRANCH   9  24
ATOM     24  N   UNL     1       4.277   3.423  17.462  0.00  0.00    +0.000 N 
ATOM     25  H   UNL     1       4.689   2.935  18.251  0.00  0.00    +0.000 HD
ATOM     26  H   UNL     1       3.572   2.873  16.954  0.00  0.00    +0.000 HD
ENDBRANCH   9  24
TORSDOF 4
ENDMDL
MODEL 2
REMARK VINA RESULT:      -7.7      0.690      1.308
REMARK  Name = 
REMARK  5 active torsions:
REMARK  status: ('A' for Active; 'I' for Inactive)
REMARK    1  A    between atoms: C_1  and  S_2
REMARK    2  A    between atoms: S_2  and  C_4
REMARK    3  A    between atoms: C_8  and  C_9
REMARK    4  A    between atoms: C_15  and  C_16
REMARK    5  A    between atoms: C_23  and  N_24
REMARK                            x       y       z     vdW  Elec       q    Type
REMARK                         _______ _______ _______ _____ _____    ______ ____
ROOT
ATOM      1  C   UNL     1       5.281   5.424  16.554  0.00  0.00    +0.000 A 
ATOM      2  S   UNL     1       5.083   7.099  16.348  0.00  0.00    +0.000 S 
ATOM      3  C   UNL     1       3.756   7.136  17.415  0.00  0.00    +0.000 A 
ATOM      4  N   UNL     1       3.158   8.322  17.651  0.00  0.00    +0.000 NA
ATOM      5  C   UNL     1       2.143   8.279  18.527  0.00  0.00    +0.000 A 
ATOM      6  C   UNL     1       1.758   7.124  19.190  0.00  0.00    +0.000 A 
ATOM      7  C   UNL     1       2.400   5.892  18.951  0.00  0.00    +0.000 A 
ATOM      8  C   UNL     1       3.444   5.891  17.966  0.00  0.00    +0.000 A 
ATOM      9  C   UNL     1       4.304   4.883  17.367  0.00  0.00    +0.000 A 
ENDROOT
BRANCH   7  10
ATOM     10  C   UNL     1       2.020   4.716  19.763  0.00  0.00    +0.000 A 
ATOM     11  C   UNL     1       2.529   4.533  21.066  0.00  0.00    +0.000 A 
ATOM     12  C   UNL     1       2.229   3.392  21.817  0.00  0.00    +0.000 A 
ATOM     13  C   UNL     1       1.380   2.421  21.299  0.00  0.00    +0.000 A 
ATOM     14  C   UNL     1       0.870   2.570  20.015  0.00  0.00    +0.000 A 
ATOM     15  C   UNL     1       1.225   3.682  19.244  0.00  0.00    +0.000 A 
ENDBRANCH   7  10
BRANCH   5  16
ATOM     16  C   UNL     1       1.528   9.584  18.824  0.00  0.00    +0.000 A 
ATOM     17  C   UNL     1       0.474   9.865  19.678  0.00  0.00    +0.000 A 
ATOM     18  C   UNL     1       0.076  11.234  19.637  0.00  0.00    +0.000 A 
ATOM     19  C   UNL     1       0.871  11.975  18.793  0.00  0.00    +0.000 A 
ATOM     20  S   UNL     1       2.099  11.029  18.079  0.00  0.00    +0.000 S 
ENDBRANCH   5  16
BRANCH   1  22
ATOM     21  C   UNL     1       5.618   4.158  14.178  0.00  0.00    +0.000 C 
ATOM     22  S   UNL     1       6.526   4.532  15.698  0.00  0.00    +0.000 S 
ATOM     23  O   UNL     1       7.687   5.532  15.335  0.00  0.00    +0.000 OA
ENDBRANCH   1  22
BRANCH   9  24
ATOM     24  N   UNL     1       4.198   3.553  17.587  0.00  0.00    +0.000 N 
ATOM     25  H   UNL     1       4.410   3.103  18.472  0.00  0.00    +0.000 HD
ATOM     26  H   UNL     1       3.688   2.952  16.925  0.00  0.00    +0.000 HD
ENDBRANCH   9  24
TORSDOF 4
ENDMDL
MODEL 3
REMARK VINA RESULT:      -7.5      0.913      1.414
REMARK  Name = 
REMARK  5 active torsions:
REMARK  status: ('A' for Active; 'I' for Inactive)
REMARK    1  A    between atoms: C_1  and  S_2
REMARK    2  A    between atoms: S_2  and  C_4
REMARK    3  A    between atoms: C_8  and  C_9
REMARK    4  A    between atoms: C_15  and  C_16
REMARK    5  A    between atoms: C_23  and  N_24
REMARK                            x       y       z     vdW  Elec       q    Type
REMARK                         _______ _______ _______ _____ _____    ______ ____
ROOT
ATOM      1  C   UNL     1       5.305   5.608  16.710  0.00  0.00    +0.000 A 
ATOM      2  S   UNL     1       5.073   7.280  16.512  0.00  0.00    +0.000 S 
ATOM      3  C   UNL     1       3.717   7.276  17.542  0.00  0.00    +0.000 A 
ATOM      4  N   UNL     1       3.085   8.446  17.771  0.00  0.00    +0.000 NA
ATOM      5  C   UNL     1       2.047   8.372  18.619  0.00  0.00    +0.000 A 
ATOM      6  C   UNL     1       1.672   7.203  19.261  0.00  0.00    +0.000 A 
ATOM      7  C   UNL     1       2.348   5.988  19.031  0.00  0.00    +0.000 A 
ATOM      8  C   UNL     1       3.419   6.019  18.075  0.00  0.00    +0.000 A 
ATOM      9  C   UNL     1       4.319   5.037  17.492  0.00  0.00    +0.000 A 
ENDROOT
BRANCH   7  10
ATOM     10  C   UNL     1       1.974   4.797  19.822  0.00  0.00    +0.000 A 
ATOM     11  C   UNL     1       2.502   4.583  21.113  0.00  0.00    +0.000 A 
ATOM     12  C   UNL     1       2.207   3.427  21.844  0.00  0.00    +0.000 A 
ATOM     13  C   UNL     1       1.345   2.472  21.318  0.00  0.00    +0.000 A 
ATOM     14  C   UNL     1       0.817   2.652  20.045  0.00  0.00    +0.000 A 
ATOM     15  C   UNL     1       1.166   3.778  19.294  0.00  0.00    +0.000 A 
ENDBRANCH   7  10
BRANCH   5  16
ATOM     16  C   UNL     1       1.394   9.659  18.909  0.00  0.00    +0.000 A 
ATOM     17  C   UNL     1       1.584  10.881  18.284  0.00  0.00    +0.000 A 
ATOM     18  C   UNL     1       0.854  11.939  18.901  0.00  0.00    +0.000 A 
ATOM     19  C   UNL     1       0.084  11.490  19.948  0.00  0.00    +0.000 A 
ATOM     20  S   UNL     1       0.225   9.803  20.165  0.00  0.00    +0.000 S 
ENDBRANCH   5  16
BRANCH   1  22
ATOM     21  C   UNL     1       7.695   4.460  17.287  0.00  0.00    +0.000 C 
ATOM     22  S   UNL     1       6.593   4.752  15.882  0.00  0.00    +0.000 S 
ATOM     23  O   UNL     1       6.032   3.358  15.408  0.00  0.00    +0.000 OA
ENDBRANCH   1  22
BRANCH   9  24
ATOM     24  N   UNL     1       4.238   3.703  17.698  0.00  0.00    +0.000 N 
ATOM     25  H   UNL     1       3.678   3.272  18.427  0.00  0.00    +0.000 HD
ATOM     26  H   UNL     1       4.575   3.041  16.986  0.00  0.00    +0.000 HD
ENDBRANCH   9  24
TORSDOF 4
ENDMDL
MODEL 4
REMARK VINA RESULT:      -7.0      2.621      5.942
REMARK  Name = 
REMARK  5 active torsions:
REMARK  status: ('A' for Active; 'I' for Inactive)
REMARK    1  A    between atoms: C_1  and  S_2
REMARK    2  A    between atoms: S_2  and  C_4
REMARK    3  A    between atoms: C_8  and  C_9
REMARK    4  A    between atoms: C_15  and  C_16
REMARK    5  A    between atoms: C_23  and  N_24
REMARK                            x       y       z     vdW  Elec       q    Type
REMARK                         _______ _______ _______ _____ _____    ______ ____
ROOT
ATOM      1  C   UNL     1       1.577   8.992  19.180  0.00  0.00    +0.000 A 
ATOM      2  S   UNL     1       2.585   9.212  17.829  0.00  0.00    +0.000 S 
ATOM      3  C   UNL     1       3.134   7.601  17.900  0.00  0.00    +0.000 A 
ATOM      4  N   UNL     1       4.025   7.189  16.974  0.00  0.00    +0.000 NA
ATOM      5  C   UNL     1       4.387   5.900  17.072  0.00  0.00    +0.000 A 
ATOM      6  C   UNL     1       3.855   5.031  18.011  0.00  0.00    +0.000 A 
ATOM      7  C   UNL     1       2.911   5.464  18.963  0.00  0.00    +0.000 A 
ATOM      8  C   UNL     1       2.557   6.855  18.930  0.00  0.00    +0.000 A 
ATOM      9  C   UNL     1       1.710   7.730  19.726  0.00  0.00    +0.000 A 
ENDROOT
BRANCH   7  10
ATOM     10  C   UNL     1       2.299   4.471  19.871  0.00  0.00    +0.000 A 
ATOM     11  C   UNL     1       2.794   4.273  21.178  0.00  0.00    +0.000 A 
ATOM     12  C   UNL     1       2.266   3.290  22.021  0.00  0.00    +0.000 A 
ATOM     13  C   UNL     1       1.202   2.505  21.594  0.00  0.00    +0.000 A 
ATOM     14  C   UNL     1       0.698   2.672  20.309  0.00  0.00    +0.000 A 
ATOM     15  C   UNL     1       1.272   3.612  19.448  0.00  0.00    +0.000 A 
ENDBRANCH   7  10
BRANCH   5  16
ATOM     16  C   UNL     1       5.316   5.439  16.028  0.00  0.00    +0.000 A 
ATOM     17  C   UNL     1       5.021   4.824  14.823  0.00  0.00    +0.000 A 
ATOM     18  C   UNL     1       6.186   4.420  14.106  0.00  0.00    +0.000 A 
ATOM     19  C   UNL     1       7.342   4.784  14.756  0.00  0.00    +0.000 A 
ATOM     20  S   UNL     1       7.020   5.627  16.205  0.00  0.00    +0.000 S 
ENDBRANCH   5  16
BRANCH   1  22
ATOM     21  C   UNL     1      -0.506  10.557  18.422  0.00  0.00    +0.000 C 
ATOM     22  S   UNL     1       0.605  10.302  19.827  0.00  0.00    +0.000 S 
ATOM     23  O   UNL     1      -0.249   9.735  21.024  0.00  0.00    +0.000 OA
ENDBRANCH   1  22
BRANCH   9  24
ATOM     24  N   UNL     1       1.087   7.364  20.868  0.00  0.00    +0.000 N 
ATOM     25  H   UNL     1       0.543   6.514  20.974  0.00  0.00    +0.000 HD
ATOM     26  H   UNL     1       1.311   7.829  21.759  0.00  0.00    +0.000 HD
ENDBRANCH   9  24
TORSDOF 4
ENDMDL
MODEL 5
REMARK VINA RESULT:      -6.8      2.551      5.854
REMARK  Name = 
REMARK  5 active torsions:
REMARK  status: ('A' for Active; 'I' for Inactive)
REMARK    1  A    between atoms: C_1  and  S_2
REMARK    2  A    between atoms: S_2  and  C_4
REMARK    3  A    between atoms: C_8  and  C_9
REMARK    4  A    between atoms: C_15  and  C_16
REMARK    5  A    between atoms: C_23  and  N_24
REMARK                            x       y       z     vdW  Elec       q    Type
REMARK                         _______ _______ _______ _____ _____    ______ ____
ROOT
ATOM      1  C   UNL     1       1.644   8.933  19.167  0.00  0.00    +0.000 A 
ATOM      2  S   UNL     1       2.635   9.156  17.804  0.00  0.00    +0.000 S 
ATOM      3  C   UNL     1       3.184   7.545  17.863  0.00  0.00    +0.000 A 
ATOM      4  N   UNL     1       4.063   7.135  16.925  0.00  0.00    +0.000 NA
ATOM      5  C   UNL     1       4.426   5.846  17.015  0.00  0.00    +0.000 A 
ATOM      6  C   UNL     1       3.906   4.974  17.958  0.00  0.00    +0.000 A 
ATOM      7  C   UNL     1       2.974   5.406  18.924  0.00  0.00    +0.000 A 
ATOM      8  C   UNL     1       2.620   6.796  18.899  0.00  0.00    +0.000 A 
ATOM      9  C   UNL     1       1.784   7.669  19.708  0.00  0.00    +0.000 A 
ENDROOT
BRANCH   7  10
ATOM     10  C   UNL     1       2.374   4.410  19.837  0.00  0.00    +0.000 A 
ATOM     11  C   UNL     1       1.227   3.677  19.466  0.00  0.00    +0.000 A 
ATOM     12  C   UNL     1       0.611   2.782  20.347  0.00  0.00    +0.000 A 
ATOM     13  C   UNL     1       1.150   2.567  21.609  0.00  0.00    +0.000 A 
ATOM     14  C   UNL     1       2.274   3.281  22.007  0.00  0.00    +0.000 A 
ATOM     15  C   UNL     1       2.848   4.222  21.145  0.00  0.00    +0.000 A 
ENDBRANCH   7  10
BRANCH   5  16
ATOM     16  C   UNL     1       5.342   5.388  15.958  0.00  0.00    +0.000 A 
ATOM     17  C   UNL     1       5.034   4.741  14.772  0.00  0.00    +0.000 A 
ATOM     18  C   UNL     1       6.191   4.352  14.035  0.00  0.00    +0.000 A 
ATOM     19  C   UNL     1       7.353   4.759  14.649  0.00  0.00    +0.000 A 
ATOM     20  S   UNL     1       7.044   5.622  16.089  0.00  0.00    +0.000 S 
ENDBRANCH   5  16
BRANCH   1  22
ATOM     21  C   UNL     1       1.374  11.617  18.882  0.00  0.00    +0.000 C 
ATOM     22  S   UNL     1       0.681  10.241  19.830  0.00  0.00    +0.000 S 
ATOM     23  O   UNL     1      -0.811  10.036  19.368  0.00  0.00    +0.000 OA
ENDBRANCH   1  22
BRANCH   9  24
ATOM     24  N   UNL     1       1.176   7.301  20.857  0.00  0.00    +0.000 N 
ATOM     25  H   UNL     1       0.674   6.427  20.982  0.00  0.00    +0.000 HD
ATOM     26  H   UNL     1       1.373   7.797  21.738  0.00  0.00    +0.000 HD
ENDBRANCH   9  24
TORSDOF 4
ENDMDL
MODEL 6
REMARK VINA RESULT:      -6.5      2.623      5.837
REMARK  Name = 
REMARK  5 active torsions:
REMARK  status: ('A' for Active; 'I' for Inactive)
REMARK    1  A    between atoms: C_1  and  S_2
REMARK    2  A    between atoms: S_2  and  C_4
REMARK    3  A    between atoms: C_8  and  C_9
REMARK    4  A    between atoms: C_15  and  C_16
REMARK    5  A    between atoms: C_23  and  N_24
REMARK                            x       y       z     vdW  Elec       q    Type
REMARK                         _______ _______ _______ _____ _____    ______ ____
ROOT
ATOM      1  C   UNL     1       1.710   8.932  19.050  0.00  0.00    +0.000 A 
ATOM      2  S   UNL     1       2.753   9.153  17.726  0.00  0.00    +0.000 S 
ATOM      3  C   UNL     1       3.310   7.547  17.817  0.00  0.00    +0.000 A 
ATOM      4  N   UNL     1       4.229   7.137  16.918  0.00  0.00    +0.000 NA
ATOM      5  C   UNL     1       4.596   5.851  17.030  0.00  0.00    +0.000 A 
ATOM      6  C   UNL     1       4.045   4.981  17.958  0.00  0.00    +0.000 A 
ATOM      7  C   UNL     1       3.073   5.412  18.883  0.00  0.00    +0.000 A 
ATOM      8  C   UNL     1       2.710   6.800  18.835  0.00  0.00    +0.000 A 
ATOM      9  C   UNL     1       1.837   7.672  19.604  0.00  0.00    +0.000 A 
ENDROOT
BRANCH   7  10
ATOM     10  C   UNL     1       2.443   4.418  19.777  0.00  0.00    +0.000 A 
ATOM     11  C   UNL     1       1.321   3.669  19.363  0.00  0.00    +0.000 A 
ATOM     12  C   UNL     1       0.677   2.775  20.224  0.00  0.00    +0.000 A 
ATOM     13  C   UNL     1       1.162   2.577  21.511  0.00  0.00    +0.000 A 
ATOM     14  C   UNL     1       2.259   3.308  21.951  0.00  0.00    +0.000 A 
ATOM     15  C   UNL     1       2.860   4.247  21.107  0.00  0.00    +0.000 A 
ENDBRANCH   7  10
BRANCH   5  16
ATOM     16  C   UNL     1       5.557   5.392  16.013  0.00  0.00    +0.000 A 
ATOM     17  C   UNL     1       6.913   5.662  15.926  0.00  0.00    +0.000 A 
ATOM     18  C   UNL     1       7.509   5.134  14.743  0.00  0.00    +0.000 A 
ATOM     19  C   UNL     1       6.605   4.428  13.983  0.00  0.00    +0.000 A 
ATOM     20  S   UNL     1       5.060   4.386  14.706  0.00  0.00    +0.000 S 
ENDBRANCH   5  16
BRANCH   1  22
ATOM     21  C   UNL     1      -0.595  10.214  18.415  0.00  0.00    +0.000 C 
ATOM     22  S   UNL     1       0.713  10.237  19.665  0.00  0.00    +0.000 S 
ATOM     23  O   UNL     1       0.084   9.772  21.034  0.00  0.00    +0.000 OA
ENDBRANCH   1  22
BRANCH   9  24
ATOM     24  N   UNL     1       1.186   7.307  20.731  0.00  0.00    +0.000 N 
ATOM     25  H   UNL     1       0.186   7.138  20.781  0.00  0.00    +0.000 HD
ATOM     26  H   UNL     1       1.707   6.972  21.553  0.00  0.00    +0.000 HD
ENDBRANCH   9  24
TORSDOF 4
ENDMDL
MODEL 7
REMARK VINA RESULT:      -6.2      5.288      7.811
REMARK  Name = 
REMARK  5 active torsions:
REMARK  status: ('A' for Active; 'I' for Inactive)
REMARK    1  A    between atoms: C_1  and  S_2
REMARK    2  A    between atoms: S_2  and  C_4
REMARK    3  A    between atoms: C_8  and  C_9
REMARK    4  A    between atoms: C_15  and  C_16
REMARK    5  A    between atoms: C_23  and  N_24
REMARK                            x       y       z     vdW  Elec       q    Type
REMARK                         _______ _______ _______ _____ _____    ______ ____
ROOT
ATOM      1  C   UNL     1       2.151  14.485  18.416  0.00  0.00    +0.000 A 
ATOM      2  S   UNL     1       0.776  15.270  19.034  0.00  0.00    +0.000 S 
ATOM      3  C   UNL     1      -0.006  13.789  19.344  0.00  0.00    +0.000 A 
ATOM      4  N   UNL     1      -1.238  13.820  19.893  0.00  0.00    +0.000 NA
ATOM      5  C   UNL     1      -1.777  12.616  20.140  0.00  0.00    +0.000 A 
ATOM      6  C   UNL     1      -1.113  11.423  19.906  0.00  0.00    +0.000 A 
ATOM      7  C   UNL     1       0.182  11.399  19.349  0.00  0.00    +0.000 A 
ATOM      8  C   UNL     1       0.758  12.669  19.008  0.00  0.00    +0.000 A 
ATOM      9  C   UNL     1       1.990  13.114  18.376  0.00  0.00    +0.000 A 
ENDROOT
BRANCH   7  10
ATOM     10  C   UNL     1       0.885  10.105  19.220  0.00  0.00    +0.000 A 
ATOM     11  C   UNL     1       1.285   9.614  17.959  0.00  0.00    +0.000 A 
ATOM     12  C   UNL     1       1.890   8.360  17.819  0.00  0.00    +0.000 A 
ATOM     13  C   UNL     1       2.147   7.582  18.941  0.00  0.00    +0.000 A 
ATOM     14  C   UNL     1       1.756   8.036  20.195  0.00  0.00    +0.000 A 
ATOM     15  C   UNL     1       1.094   9.261  20.322  0.00  0.00    +0.000 A 
ENDBRANCH   7  10
BRANCH   5  16
ATOM     16  C   UNL     1      -3.098  12.653  20.789  0.00  0.00    +0.000 A 
ATOM     17  C   UNL     1      -4.349  12.675  20.195  0.00  0.00    +0.000 A 
ATOM     18  C   UNL     1      -5.409  12.816  21.139  0.00  0.00    +0.000 A 
ATOM     19  C   UNL     1      -4.945  12.843  22.433  0.00  0.00    +0.000 A 
ATOM     20  S   UNL     1      -3.248  12.676  22.505  0.00  0.00    +0.000 S 
ENDBRANCH   5  16
BRANCH   1  22
ATOM     21  C   UNL     1       3.609  16.682  19.056  0.00  0.00    +0.000 C 
ATOM     22  S   UNL     1       3.525  15.384  17.798  0.00  0.00    +0.000 S 
ATOM     23  O   UNL     1       4.809  14.483  17.946  0.00  0.00    +0.000 OA
ENDBRANCH   1  22
BRANCH   9  24
ATOM     24  N   UNL     1       2.911  12.292  17.824  0.00  0.00    +0.000 N 
ATOM     25  H   UNL     1       2.691  11.553  17.163  0.00  0.00    +0.000 HD
ATOM     26  H   UNL     1       3.914  12.513  17.884  0.00  0.00    +0.000 HD
ENDBRANCH   9  24
TORSDOF 4
ENDMDL
MODEL 8
REMARK VINA RESULT:      -6.2      4.884      9.093
REMARK  Name = 
REMARK  5 active torsions:
REMARK  status: ('A' for Active; 'I' for Inactive)
REMARK    1  A    between atoms: C_1  and  S_2
REMARK    2  A    between atoms: S_2  and  C_4
REMARK    3  A    between atoms: C_8  and  C_9
REMARK    4  A    between atoms: C_15  and  C_16
REMARK    5  A    between atoms: C_23  and  N_24
REMARK                            x       y       z     vdW  Elec       q    Type
REMARK                         _______ _______ _______ _____ _____    ______ ____
ROOT
ATOM      1  C   UNL     1       1.052  15.057  18.808  0.00  0.00    +0.000 A 
ATOM      2  S   UNL     1       2.349  13.964  18.703  0.00  0.00    +0.000 S 
ATOM      3  C   UNL     1       1.318  12.625  18.912  0.00  0.00    +0.000 A 
ATOM      4  N   UNL     1       1.864  11.391  18.903  0.00  0.00    +0.000 NA
ATOM      5  C   UNL     1       0.987  10.384  19.039  0.00  0.00    +0.000 A 
ATOM      6  C   UNL     1      -0.382  10.575  19.128  0.00  0.00    +0.000 A 
ATOM      7  C   UNL     1      -0.946  11.867  19.119  0.00  0.00    +0.000 A 
ATOM      8  C   UNL     1      -0.029  12.969  19.046  0.00  0.00    +0.000 A 
ATOM      9  C   UNL     1      -0.144  14.418  19.074  0.00  0.00    +0.000 A 
ENDROOT
BRANCH   7  10
ATOM     10  C   UNL     1      -2.418  12.007  19.110  0.00  0.00    +0.000 A 
ATOM     11  C   UNL     1      -3.111  12.512  20.230  0.00  0.00    +0.000 A 
ATOM     12  C   UNL     1      -4.507  12.587  20.257  0.00  0.00    +0.000 A 
ATOM     13  C   UNL     1      -5.247  12.194  19.149  0.00  0.00    +0.000 A 
ATOM     14  C   UNL     1      -4.592  11.684  18.033  0.00  0.00    +0.000 A 
ATOM     15  C   UNL     1      -3.200  11.552  18.036  0.00  0.00    +0.000 A 
ENDBRANCH   7  10
BRANCH   5  16
ATOM     16  C   UNL     1       1.579   9.038  18.973  0.00  0.00    +0.000 A 
ATOM     17  C   UNL     1       2.120   8.387  17.876  0.00  0.00    +0.000 A 
ATOM     18  C   UNL     1       2.507   7.045  18.162  0.00  0.00    +0.000 A 
ATOM     19  C   UNL     1       2.302   6.721  19.483  0.00  0.00    +0.000 A 
ATOM     20  S   UNL     1       1.671   8.035  20.371  0.00  0.00    +0.000 S 
ENDBRANCH   5  16
BRANCH   1  22
ATOM     21  C   UNL     1       2.750  16.816  17.632  0.00  0.00    +0.000 C 
ATOM     22  S   UNL     1       1.298  16.792  18.712  0.00  0.00    +0.000 S 
ATOM     23  O   UNL     1       0.091  17.416  17.915  0.00  0.00    +0.000 OA
ENDBRANCH   1  22
BRANCH   9  24
ATOM     24  N   UNL     1      -1.292  15.094  19.305  0.00  0.00    +0.000 N 
ATOM     25  H   UNL     1      -2.212  14.765  19.029  0.00  0.00    +0.000 HD
ATOM     26  H   UNL     1      -1.312  15.882  19.966  0.00  0.00    +0.000 HD
ENDBRANCH   9  24
TORSDOF 4
ENDMDL
MODEL 9
REMARK VINA RESULT:      -6.2      4.798      8.942
REMARK  Name = 
REMARK  5 active torsions:
REMARK  status: ('A' for Active; 'I' for Inactive)
REMARK    1  A    between atoms: C_1  and  S_2
REMARK    2  A    between atoms: S_2  and  C_4
REMARK    3  A    between atoms: C_8  and  C_9
REMARK    4  A    between atoms: C_15  and  C_16
REMARK    5  A    between atoms: C_23  and  N_24
REMARK                            x       y       z     vdW  Elec       q    Type
REMARK                         _______ _______ _______ _____ _____    ______ ____
ROOT
ATOM      1  C   UNL     1       1.170  14.924  18.722  0.00  0.00    +0.000 A 
ATOM      2  S   UNL     1       2.473  13.836  18.637  0.00  0.00    +0.000 S 
ATOM      3  C   UNL     1       1.443  12.492  18.825  0.00  0.00    +0.000 A 
ATOM      4  N   UNL     1       1.993  11.260  18.823  0.00  0.00    +0.000 NA
ATOM      5  C   UNL     1       1.118  10.250  18.942  0.00  0.00    +0.000 A 
ATOM      6  C   UNL     1      -0.254  10.436  19.008  0.00  0.00    +0.000 A 
ATOM      7  C   UNL     1      -0.823  11.726  18.991  0.00  0.00    +0.000 A 
ATOM      8  C   UNL     1       0.092  12.831  18.937  0.00  0.00    +0.000 A 
ATOM      9  C   UNL     1      -0.028  14.280  18.965  0.00  0.00    +0.000 A 
ENDROOT
BRANCH   7  10
ATOM     10  C   UNL     1      -2.294  11.861  18.957  0.00  0.00    +0.000 A 
ATOM     11  C   UNL     1      -3.033  11.513  17.806  0.00  0.00    +0.000 A 
ATOM     12  C   UNL     1      -4.418  11.699  17.739  0.00  0.00    +0.000 A 
ATOM     13  C   UNL     1      -5.106  12.203  18.836  0.00  0.00    +0.000 A 
ATOM     14  C   UNL     1      -4.404  12.563  19.980  0.00  0.00    +0.000 A 
ATOM     15  C   UNL     1      -3.012  12.434  20.019  0.00  0.00    +0.000 A 
ENDBRANCH   7  10
BRANCH   5  16
ATOM     16  C   UNL     1       1.715   8.906  18.884  0.00  0.00    +0.000 A 
ATOM     17  C   UNL     1       2.344   8.288  17.815  0.00  0.00    +0.000 A 
ATOM     18  C   UNL     1       2.709   6.937  18.091  0.00  0.00    +0.000 A 
ATOM     19  C   UNL     1       2.399   6.574  19.381  0.00  0.00    +0.000 A 
ATOM     20  S   UNL     1       1.696   7.861  20.254  0.00  0.00    +0.000 S 
ENDBRANCH   5  16
BRANCH   1  22
ATOM     21  C   UNL     1       2.868  16.692  17.560  0.00  0.00    +0.000 C 
ATOM     22  S   UNL     1       1.412  16.659  18.633  0.00  0.00    +0.000 S 
ATOM     23  O   UNL     1       0.206  17.283  17.833  0.00  0.00    +0.000 OA
ENDBRANCH   1  22
BRANCH   9  24
ATOM     24  N   UNL     1      -1.182  14.951  19.178  0.00  0.00    +0.000 N 
ATOM     25  H   UNL     1      -1.967  14.953  18.534  0.00  0.00    +0.000 HD
ATOM     26  H   UNL     1      -1.407  15.325  20.110  0.00  0.00    +0.000 HD
ENDBRANCH   9  24
TORSDOF 4
ENDMDL
