MODEL 1
REMARK VINA RESULT:      -8.6      0.000      0.000
REMARK  Name = 
REMARK  9 active torsions:
REMARK  status: ('A' for Active; 'I' for Inactive)
REMARK    1  A    between atoms: C_2  and  OXT_3
REMARK    2  A    between atoms: C_2  and  CA_4
REMARK    3  A    between atoms: C_7  and  N_8
REMARK    4  A    between atoms: C_9  and  C_11
REMARK    5  A    between atoms: C_13  and  C_14
REMARK    6  A    between atoms: C_20  and  O_21
REMARK    7  A    between atoms: O_21  and  C_22
REMARK    8  A    between atoms: C_25  and  C_26
REMARK    9  A    between atoms: C_26  and  O_27
REMARK                            x       y       z     vdW  Elec       q    Type
REMARK                         _______ _______ _______ _____ _____    ______ ____
ROOT
ATOM      1  C   UNL     1       2.811   5.862  18.850  0.00  0.00    +0.000 A 
ATOM      2  C   UNL     1       2.474   4.516  19.123  0.00  0.00    +0.000 A 
ATOM      3  C   UNL     1       1.627   4.154  20.180  0.00  0.00    +0.000 A 
ATOM      4  C   UNL     1       1.136   5.166  21.008  0.00  0.00    +0.000 A 
ATOM      5  C   UNL     1       1.463   6.502  20.755  0.00  0.00    +0.000 A 
ATOM      6  C   UNL     1       2.299   6.866  19.683  0.00  0.00    +0.000 A 
ENDROOT
BRANCH   1   8
ATOM      7  N   UNL     1       4.316   4.878  17.152  0.00  0.00    +0.000 N 
ATOM      8  C   UNL     1       3.752   6.013  17.703  0.00  0.00    +0.000 C 
ATOM      9  O   UNL     1       3.976   7.166  17.342  0.00  0.00    +0.000 OA
ATOM     10  H   UNL     1       4.017   3.981  17.517  0.00  0.00    +0.000 HD
BRANCH   7  14
ATOM     11  CA  UNL     1       7.180   5.114  14.122  0.00  0.00    +0.000 A 
ATOM     12  C   UNL     1       6.072   4.322  13.886  0.00  0.00    +0.000 A 
ATOM     13  C   UNL     1       5.126   4.193  14.904  0.00  0.00    +0.000 A 
ATOM     14  C   UNL     1       5.290   4.865  16.119  0.00  0.00    +0.000 A 
ATOM     15  C   UNL     1       6.471   5.594  16.273  0.00  0.00    +0.000 A 
ATOM     16  N   UNL     1       7.430   5.736  15.314  0.00  0.00    +0.000 NA
BRANCH  11  18
ATOM     17  O   UNL     1       9.197   5.994  13.140  0.00  0.00    +0.000 OA
ATOM     18  C   UNL     1       8.154   5.375  13.018  0.00  0.00    +0.000 C 
BRANCH  18  19
ATOM     19  OXT UNL     1       7.715   4.823  11.856  0.00  0.00    +0.000 OA
ATOM     20  HXT UNL     1       8.502   4.601  11.302  0.00  0.00    +0.000 HD
ENDBRANCH  18  19
ENDBRANCH  11  18
ENDBRANCH   7  14
ENDBRANCH   1   8
BRANCH   3  21
ATOM     21  C   UNL     1       1.227   2.713  20.395  0.00  0.00    +0.000 C 
ATOM     22  F   UNL     1       0.099   2.356  19.719  0.00  0.00    +0.000 F 
ATOM     23  F   UNL     1       2.191   1.837  20.006  0.00  0.00    +0.000 F 
ATOM     24  F   UNL     1       0.976   2.444  21.704  0.00  0.00    +0.000 F 
ENDBRANCH   3  21
BRANCH   6  25
ATOM     25  O   UNL     1       2.427   8.228  19.555  0.00  0.00    +0.000 OA
BRANCH  25  26
ATOM     26  C   UNL     1       1.373   9.038  19.222  0.00  0.00    +0.000 A 
ATOM     27  C   UNL     1       0.898   9.204  17.921  0.00  0.00    +0.000 A 
ATOM     28  C   UNL     1      -0.304   9.880  17.701  0.00  0.00    +0.000 A 
ATOM     29  C   UNL     1      -1.009  10.453  18.768  0.00  0.00    +0.000 A 
ATOM     30  C   UNL     1      -0.455  10.401  20.054  0.00  0.00    +0.000 A 
ATOM     31  C   UNL     1       0.728   9.699  20.279  0.00  0.00    +0.000 A 
ATOM     32 CL   UNL     1       1.326   9.602  21.898  0.00  0.00    +0.000 Cl
BRANCH  29  33
ATOM     33  C   UNL     1      -2.342  11.112  18.545  0.00  0.00    +0.000 C 
BRANCH  33  34
ATOM     34  O   UNL     1      -2.202  12.178  17.614  0.00  0.00    +0.000 OA
ATOM     35  H   UNL     1      -2.796  12.895  17.898  0.00  0.00    +0.000 HD
ENDBRANCH  33  34
ENDBRANCH  29  33
ENDBRANCH  25  26
ENDBRANCH   6  25
TORSDOF 9
ENDMDL
MODEL 2
REMARK VINA RESULT:      -8.3      2.922      8.516
REMARK  Name = 
REMARK  9 active torsions:
REMARK  status: ('A' for Active; 'I' for Inactive)
REMARK    1  A    between atoms: C_2  and  OXT_3
REMARK    2  A    between atoms: C_2  and  CA_4
REMARK    3  A    between atoms: C_7  and  N_8
REMARK    4  A    between atoms: C_9  and  C_11
REMARK    5  A    between atoms: C_13  and  C_14
REMARK    6  A    between atoms: C_20  and  O_21
REMARK    7  A    between atoms: O_21  and  C_22
REMARK    8  A    between atoms: C_25  and  C_26
REMARK    9  A    between atoms: C_26  and  O_27
REMARK                            x       y       z     vdW  Elec       q    Type
REMARK                         _______ _______ _______ _____ _____    ______ ____
ROOT
ATOM      1  C   UNL     1       2.855   5.871  19.480  0.00  0.00    +0.000 A 
ATOM      2  C   UNL     1       2.197   4.875  20.239  0.00  0.00    +0.000 A 
ATOM      3  C   UNL     1       2.538   3.518  20.153  0.00  0.00    +0.000 A 
ATOM      4  C   UNL     1       3.539   3.146  19.252  0.00  0.00    +0.000 A 
ATOM      5  C   UNL     1       4.196   4.116  18.490  0.00  0.00    +0.000 A 
ATOM      6  C   UNL     1       3.865   5.481  18.590  0.00  0.00    +0.000 A 
ENDROOT
BRANCH   1   8
ATOM      7  N   UNL     1       1.689   7.521  20.906  0.00  0.00    +0.000 N 
ATOM      8  C   UNL     1       2.308   7.240  19.702  0.00  0.00    +0.000 C 
ATOM      9  O   UNL     1       2.433   8.027  18.767  0.00  0.00    +0.000 OA
ATOM     10  H   UNL     1       1.687   6.794  21.612  0.00  0.00    +0.000 HD
BRANCH   7  14
ATOM     11  CA  UNL     1      -0.336  10.984  22.065  0.00  0.00    +0.000 A 
ATOM     12  C   UNL     1      -0.346  10.664  20.720  0.00  0.00    +0.000 A 
ATOM     13  C   UNL     1       0.364   9.537  20.306  0.00  0.00    +0.000 A 
ATOM     14  C   UNL     1       1.047   8.745  21.233  0.00  0.00    +0.000 A 
ATOM     15  C   UNL     1       1.039   9.188  22.558  0.00  0.00    +0.000 A 
ATOM     16  N   UNL     1       0.374  10.291  23.006  0.00  0.00    +0.000 NA
BRANCH  11  18
ATOM     17  O   UNL     1      -2.397  12.150  22.513  0.00  0.00    +0.000 OA
ATOM     18  C   UNL     1      -1.179  12.112  22.566  0.00  0.00    +0.000 C 
BRANCH  18  19
ATOM     19  OXT UNL     1      -0.399  13.093  23.093  0.00  0.00    +0.000 OA
ATOM     20  HXT UNL     1      -0.925  13.574  23.776  0.00  0.00    +0.000 HD
ENDBRANCH  18  19
ENDBRANCH  11  18
ENDBRANCH   7  14
ENDBRANCH   1   8
BRANCH   3  21
ATOM     21  C   UNL     1       1.867   2.492  21.036  0.00  0.00    +0.000 C 
ATOM     22  F   UNL     1       2.664   2.040  22.044  0.00  0.00    +0.000 F 
ATOM     23  F   UNL     1       0.741   2.968  21.631  0.00  0.00    +0.000 F 
ATOM     24  F   UNL     1       1.489   1.388  20.337  0.00  0.00    +0.000 F 
ENDBRANCH   3  21
BRANCH   6  25
ATOM     25  O   UNL     1       4.682   6.277  17.825  0.00  0.00    +0.000 OA
BRANCH  25  26
ATOM     26  C   UNL     1       5.392   5.793  16.757  0.00  0.00    +0.000 A 
ATOM     27  C   UNL     1       4.806   5.287  15.596  0.00  0.00    +0.000 A 
ATOM     28  C   UNL     1       5.600   5.012  14.480  0.00  0.00    +0.000 A 
ATOM     29  C   UNL     1       6.990   5.176  14.533  0.00  0.00    +0.000 A 
ATOM     30  C   UNL     1       7.585   5.553  15.744  0.00  0.00    +0.000 A 
ATOM     31  C   UNL     1       6.791   5.859  16.848  0.00  0.00    +0.000 A 
ATOM     32 CL   UNL     1       7.573   6.393  18.294  0.00  0.00    +0.000 Cl
BRANCH  29  33
ATOM     33  C   UNL     1       7.838   4.957  13.310  0.00  0.00    +0.000 C 
BRANCH  33  34
ATOM     34  O   UNL     1       8.841   5.962  13.235  0.00  0.00    +0.000 OA
ATOM     35  H   UNL     1       8.632   6.528  12.471  0.00  0.00    +0.000 HD
ENDBRANCH  33  34
ENDBRANCH  29  33
ENDBRANCH  25  26
ENDBRANCH   6  25
TORSDOF 9
ENDMDL
MODEL 3
REMARK VINA RESULT:      -8.1      4.561      6.428
REMARK  Name = 
REMARK  9 active torsions:
REMARK  status: ('A' for Active; 'I' for Inactive)
REMARK    1  A    between atoms: C_2  and  OXT_3
REMARK    2  A    between atoms: C_2  and  CA_4
REMARK    3  A    between atoms: C_7  and  N_8
REMARK    4  A    between atoms: C_9  and  C_11
REMARK    5  A    between atoms: C_13  and  C_14
REMARK    6  A    between atoms: C_20  and  O_21
REMARK    7  A    between atoms: O_21  and  C_22
REMARK    8  A    between atoms: C_25  and  C_26
REMARK    9  A    between atoms: C_26  and  O_27
REMARK                            x       y       z     vdW  Elec       q    Type
REMARK                         _______ _______ _______ _____ _____    ______ ____
ROOT
ATOM      1  C   UNL     1       0.270  10.356  18.507  0.00  0.00    +0.000 A 
ATOM      2  C   UNL     1      -0.928  10.006  17.843  0.00  0.00    +0.000 A 
ATOM      3  C   UNL     1      -2.118  10.728  18.009  0.00  0.00    +0.000 A 
ATOM      4  C   UNL     1      -2.115  11.807  18.896  0.00  0.00    +0.000 A 
ATOM      5  C   UNL     1      -0.941  12.164  19.566  0.00  0.00    +0.000 A 
ATOM      6  C   UNL     1       0.258  11.450  19.385  0.00  0.00    +0.000 A 
ENDROOT
BRANCH   1   8
ATOM      7  N   UNL     1       1.452   8.213  18.859  0.00  0.00    +0.000 N 
ATOM      8  C   UNL     1       1.402   9.432  18.211  0.00  0.00    +0.000 C 
ATOM      9  O   UNL     1       2.236   9.845  17.409  0.00  0.00    +0.000 OA
ATOM     10  H   UNL     1       0.677   7.974  19.469  0.00  0.00    +0.000 HD
BRANCH   7  14
ATOM     11  CA  UNL     1       4.619   5.493  18.791  0.00  0.00    +0.000 A 
ATOM     12  C   UNL     1       4.530   6.387  17.742  0.00  0.00    +0.000 A 
ATOM     13  C   UNL     1       3.452   7.274  17.722  0.00  0.00    +0.000 A 
ATOM     14  C   UNL     1       2.504   7.266  18.748  0.00  0.00    +0.000 A 
ATOM     15  C   UNL     1       2.658   6.285  19.731  0.00  0.00    +0.000 A 
ATOM     16  N   UNL     1       3.684   5.389  19.783  0.00  0.00    +0.000 NA
BRANCH  11  18
ATOM     17  O   UNL     1       6.972   5.001  18.955  0.00  0.00    +0.000 OA
ATOM     18  C   UNL     1       5.819   4.610  18.914  0.00  0.00    +0.000 C 
BRANCH  18  19
ATOM     19  OXT UNL     1       5.445   3.304  18.975  0.00  0.00    +0.000 OA
ATOM     20  HXT UNL     1       5.915   2.813  18.259  0.00  0.00    +0.000 HD
ENDBRANCH  18  19
ENDBRANCH  11  18
ENDBRANCH   7  14
ENDBRANCH   1   8
BRANCH   3  21
ATOM     21  C   UNL     1      -3.358  10.372  17.223  0.00  0.00    +0.000 C 
ATOM     22  F   UNL     1      -4.257   9.635  17.934  0.00  0.00    +0.000 F 
ATOM     23  F   UNL     1      -4.033  11.466  16.783  0.00  0.00    +0.000 F 
ATOM     24  F   UNL     1      -3.066   9.636  16.118  0.00  0.00    +0.000 F 
ENDBRANCH   3  21
BRANCH   6  25
ATOM     25  O   UNL     1       1.312  12.011  20.063  0.00  0.00    +0.000 OA
BRANCH  25  26
ATOM     26  C   UNL     1       1.995  13.102  19.592  0.00  0.00    +0.000 A 
ATOM     27  C   UNL     1       2.741  13.103  18.413  0.00  0.00    +0.000 A 
ATOM     28  C   UNL     1       3.229  14.308  17.901  0.00  0.00    +0.000 A 
ATOM     29  C   UNL     1       3.034  15.511  18.593  0.00  0.00    +0.000 A 
ATOM     30  C   UNL     1       2.403  15.481  19.843  0.00  0.00    +0.000 A 
ATOM     31  C   UNL     1       1.888  14.284  20.339  0.00  0.00    +0.000 A 
ATOM     32 CL   UNL     1       1.052  14.318  21.851  0.00  0.00    +0.000 Cl
BRANCH  29  33
ATOM     33  C   UNL     1       3.488  16.819  18.006  0.00  0.00    +0.000 C 
BRANCH  33  34
ATOM     34  O   UNL     1       2.455  17.367  17.197  0.00  0.00    +0.000 OA
ATOM     35  H   UNL     1       2.479  16.906  16.339  0.00  0.00    +0.000 HD
ENDBRANCH  33  34
ENDBRANCH  29  33
ENDBRANCH  25  26
ENDBRANCH   6  25
TORSDOF 9
ENDMDL
MODEL 4
REMARK VINA RESULT:      -8.0      4.555      6.347
REMARK  Name = 
REMARK  9 active torsions:
REMARK  status: ('A' for Active; 'I' for Inactive)
REMARK    1  A    between atoms: C_2  and  OXT_3
REMARK    2  A    between atoms: C_2  and  CA_4
REMARK    3  A    between atoms: C_7  and  N_8
REMARK    4  A    between atoms: C_9  and  C_11
REMARK    5  A    between atoms: C_13  and  C_14
REMARK    6  A    between atoms: C_20  and  O_21
REMARK    7  A    between atoms: O_21  and  C_22
REMARK    8  A    between atoms: C_25  and  C_26
REMARK    9  A    between atoms: C_26  and  O_27
REMARK                            x       y       z     vdW  Elec       q    Type
REMARK                         _______ _______ _______ _____ _____    ______ ____
ROOT
ATOM      1  C   UNL     1       0.190  10.256  18.609  0.00  0.00    +0.000 A 
ATOM      2  C   UNL     1      -0.809   9.886  17.678  0.00  0.00    +0.000 A 
ATOM      3  C   UNL     1      -1.854  10.748  17.316  0.00  0.00    +0.000 A 
ATOM      4  C   UNL     1      -1.921  11.998  17.935  0.00  0.00    +0.000 A 
ATOM      5  C   UNL     1      -0.945  12.378  18.861  0.00  0.00    +0.000 A 
ATOM      6  C   UNL     1       0.114  11.520  19.210  0.00  0.00    +0.000 A 
ENDROOT
BRANCH   1   8
ATOM      7  N   UNL     1       1.811   8.576  17.795  0.00  0.00    +0.000 N 
ATOM      8  C   UNL     1       1.182   9.175  18.870  0.00  0.00    +0.000 C 
ATOM      9  O   UNL     1       1.353   8.876  20.049  0.00  0.00    +0.000 OA
ATOM     10  H   UNL     1       1.611   8.943  16.871  0.00  0.00    +0.000 HD
BRANCH   7  14
ATOM     11  CA  UNL     1       4.519   5.398  17.767  0.00  0.00    +0.000 A 
ATOM     12  C   UNL     1       3.257   5.150  18.272  0.00  0.00    +0.000 A 
ATOM     13  C   UNL     1       2.352   6.210  18.333  0.00  0.00    +0.000 A 
ATOM     14  C   UNL     1       2.712   7.481  17.876  0.00  0.00    +0.000 A 
ATOM     15  C   UNL     1       4.029   7.635  17.437  0.00  0.00    +0.000 A 
ATOM     16  N   UNL     1       4.952   6.634  17.374  0.00  0.00    +0.000 NA
BRANCH  11  18
ATOM     17  O   UNL     1       6.154   4.087  16.576  0.00  0.00    +0.000 OA
ATOM     18  C   UNL     1       5.476   4.266  17.574  0.00  0.00    +0.000 C 
BRANCH  18  19
ATOM     19  OXT UNL     1       5.489   3.460  18.669  0.00  0.00    +0.000 OA
ATOM     20  HXT UNL     1       4.925   2.672  18.481  0.00  0.00    +0.000 HD
ENDBRANCH  18  19
ENDBRANCH  11  18
ENDBRANCH   7  14
ENDBRANCH   1   8
BRANCH   3  21
ATOM     21  C   UNL     1      -2.859  10.348  16.261  0.00  0.00    +0.000 C 
ATOM     22  F   UNL     1      -2.623   9.117  15.726  0.00  0.00    +0.000 F 
ATOM     23  F   UNL     1      -4.133  10.314  16.735  0.00  0.00    +0.000 F 
ATOM     24  F   UNL     1      -2.867  11.214  15.212  0.00  0.00    +0.000 F 
ENDBRANCH   3  21
BRANCH   6  25
ATOM     25  O   UNL     1       1.009  12.111  20.068  0.00  0.00    +0.000 OA
BRANCH  25  26
ATOM     26  C   UNL     1       1.855  13.114  19.673  0.00  0.00    +0.000 A 
ATOM     27  C   UNL     1       2.685  13.038  18.553  0.00  0.00    +0.000 A 
ATOM     28  C   UNL     1       3.355  14.179  18.106  0.00  0.00    +0.000 A 
ATOM     29  C   UNL     1       3.256  15.388  18.807  0.00  0.00    +0.000 A 
ATOM     30  C   UNL     1       2.532  15.421  20.006  0.00  0.00    +0.000 A 
ATOM     31  C   UNL     1       1.837  14.292  20.435  0.00  0.00    +0.000 A 
ATOM     32 CL   UNL     1       0.897  14.411  21.881  0.00  0.00    +0.000 Cl
BRANCH  29  33
ATOM     33  C   UNL     1       3.911  16.637  18.285  0.00  0.00    +0.000 C 
BRANCH  33  34
ATOM     34  O   UNL     1       3.075  17.247  17.310  0.00  0.00    +0.000 OA
ATOM     35  H   UNL     1       3.643  17.527  16.571  0.00  0.00    +0.000 HD
ENDBRANCH  33  34
ENDBRANCH  29  33
ENDBRANCH  25  26
ENDBRANCH   6  25
TORSDOF 9
ENDMDL
MODEL 5
REMARK VINA RESULT:      -8.0      1.523      1.943
REMARK  Name = 
REMARK  9 active torsions:
REMARK  status: ('A' for Active; 'I' for Inactive)
REMARK    1  A    between atoms: C_2  and  OXT_3
REMARK    2  A    between atoms: C_2  and  CA_4
REMARK    3  A    between atoms: C_7  and  N_8
REMARK    4  A    between atoms: C_9  and  C_11
REMARK    5  A    between atoms: C_13  and  C_14
REMARK    6  A    between atoms: C_20  and  O_21
REMARK    7  A    between atoms: O_21  and  C_22
REMARK    8  A    between atoms: C_25  and  C_26
REMARK    9  A    between atoms: C_26  and  O_27
REMARK                            x       y       z     vdW  Elec       q    Type
REMARK                         _______ _______ _______ _____ _____    ______ ____
ROOT
ATOM      1  C   UNL     1       2.984   5.723  19.009  0.00  0.00    +0.000 A 
ATOM      2  C   UNL     1       2.932   4.394  19.490  0.00  0.00    +0.000 A 
ATOM      3  C   UNL     1       2.195   4.036  20.628  0.00  0.00    +0.000 A 
ATOM      4  C   UNL     1       1.527   5.044  21.325  0.00  0.00    +0.000 A 
ATOM      5  C   UNL     1       1.572   6.365  20.867  0.00  0.00    +0.000 A 
ATOM      6  C   UNL     1       2.296   6.721  19.714  0.00  0.00    +0.000 A 
ENDROOT
BRANCH   1   8
ATOM      7  N   UNL     1       4.507   4.772  17.309  0.00  0.00    +0.000 N 
ATOM      8  C   UNL     1       3.852   5.882  17.808  0.00  0.00    +0.000 C 
ATOM      9  O   UNL     1       3.938   7.021  17.355  0.00  0.00    +0.000 OA
ATOM     10  H   UNL     1       4.320   3.879  17.752  0.00  0.00    +0.000 HD
BRANCH   7  14
ATOM     11  CA  UNL     1       7.208   5.070  14.138  0.00  0.00    +0.000 A 
ATOM     12  C   UNL     1       6.133   4.215  13.977  0.00  0.00    +0.000 A 
ATOM     13  C   UNL     1       5.245   4.066  15.043  0.00  0.00    +0.000 A 
ATOM     14  C   UNL     1       5.430   4.780  16.231  0.00  0.00    +0.000 A 
ATOM     15  C   UNL     1       6.578   5.573  16.308  0.00  0.00    +0.000 A 
ATOM     16  N   UNL     1       7.481   5.737  15.300  0.00  0.00    +0.000 NA
BRANCH  11  18
ATOM     17  O   UNL     1       9.141   6.002  13.043  0.00  0.00    +0.000 OA
ATOM     18  C   UNL     1       8.113   5.349  12.983  0.00  0.00    +0.000 C 
BRANCH  18  19
ATOM     19  OXT UNL     1       7.632   4.771  11.850  0.00  0.00    +0.000 OA
ATOM     20  HXT UNL     1       8.187   3.980  11.646  0.00  0.00    +0.000 HD
ENDBRANCH  18  19
ENDBRANCH  11  18
ENDBRANCH   7  14
ENDBRANCH   1   8
BRANCH   3  21
ATOM     21  C   UNL     1       2.099   2.593  21.068  0.00  0.00    +0.000 C 
ATOM     22  F   UNL     1       1.197   2.390  22.068  0.00  0.00    +0.000 F 
ATOM     23  F   UNL     1       1.735   1.760  20.057  0.00  0.00    +0.000 F 
ATOM     24  F   UNL     1       3.287   2.124  21.536  0.00  0.00    +0.000 F 
ENDBRANCH   3  21
BRANCH   6  25
ATOM     25  O   UNL     1       2.143   8.046  19.386  0.00  0.00    +0.000 OA
BRANCH  25  26
ATOM     26  C   UNL     1       1.268   8.871  20.042  0.00  0.00    +0.000 A 
ATOM     27  C   UNL     1       1.204   8.992  21.431  0.00  0.00    +0.000 A 
ATOM     28  C   UNL     1       0.432  10.006  22.005  0.00  0.00    +0.000 A 
ATOM     29  C   UNL     1      -0.332  10.864  21.204  0.00  0.00    +0.000 A 
ATOM     30  C   UNL     1      -0.369  10.649  19.820  0.00  0.00    +0.000 A 
ATOM     31  C   UNL     1       0.425   9.660  19.244  0.00  0.00    +0.000 A 
ATOM     32 CL   UNL     1       0.399   9.488  17.524  0.00  0.00    +0.000 Cl
BRANCH  29  33
ATOM     33  C   UNL     1      -1.099  12.005  21.813  0.00  0.00    +0.000 C 
BRANCH  33  34
ATOM     34  O   UNL     1      -0.489  12.397  23.036  0.00  0.00    +0.000 OA
ATOM     35  H   UNL     1      -1.140  12.924  23.532  0.00  0.00    +0.000 HD
ENDBRANCH  33  34
ENDBRANCH  29  33
ENDBRANCH  25  26
ENDBRANCH   6  25
TORSDOF 9
ENDMDL
MODEL 6
REMARK VINA RESULT:      -8.0      4.586      6.537
REMARK  Name = 
REMARK  9 active torsions:
REMARK  status: ('A' for Active; 'I' for Inactive)
REMARK    1  A    between atoms: C_2  and  OXT_3
REMARK    2  A    between atoms: C_2  and  CA_4
REMARK    3  A    between atoms: C_7  and  N_8
REMARK    4  A    between atoms: C_9  and  C_11
REMARK    5  A    between atoms: C_13  and  C_14
REMARK    6  A    between atoms: C_20  and  O_21
REMARK    7  A    between atoms: O_21  and  C_22
REMARK    8  A    between atoms: C_25  and  C_26
REMARK    9  A    between atoms: C_26  and  O_27
REMARK                            x       y       z     vdW  Elec       q    Type
REMARK                         _______ _______ _______ _____ _____    ______ ____
ROOT
ATOM      1  C   UNL     1       0.203  10.251  18.672  0.00  0.00    +0.000 A 
ATOM      2  C   UNL     1      -0.788   9.854  17.745  0.00  0.00    +0.000 A 
ATOM      3  C   UNL     1      -1.826  10.707  17.343  0.00  0.00    +0.000 A 
ATOM      4  C   UNL     1      -1.894  11.978  17.917  0.00  0.00    +0.000 A 
ATOM      5  C   UNL     1      -0.925  12.386  18.839  0.00  0.00    +0.000 A 
ATOM      6  C   UNL     1       0.127  11.536  19.228  0.00  0.00    +0.000 A 
ENDROOT
BRANCH   1   8
ATOM      7  N   UNL     1       1.771   8.488  17.932  0.00  0.00    +0.000 N 
ATOM      8  C   UNL     1       1.188   9.176  18.979  0.00  0.00    +0.000 C 
ATOM      9  O   UNL     1       1.396   8.963  20.172  0.00  0.00    +0.000 OA
ATOM     10  H   UNL     1       1.544   8.789  16.990  0.00  0.00    +0.000 HD
BRANCH   7  14
ATOM     11  CA  UNL     1       4.357   5.278  18.596  0.00  0.00    +0.000 A 
ATOM     12  C   UNL     1       4.782   6.264  17.727  0.00  0.00    +0.000 A 
ATOM     13  C   UNL     1       3.914   7.322  17.455  0.00  0.00    +0.000 A 
ATOM     14  C   UNL     1       2.658   7.388  18.064  0.00  0.00    +0.000 A 
ATOM     15  C   UNL     1       2.306   6.311  18.883  0.00  0.00    +0.000 A 
ATOM     16  N   UNL     1       3.113   5.249  19.164  0.00  0.00    +0.000 NA
BRANCH  11  18
ATOM     17  O   UNL     1       4.976   3.165  19.576  0.00  0.00    +0.000 OA
ATOM     18  C   UNL     1       5.299   4.192  19.006  0.00  0.00    +0.000 C 
BRANCH  18  19
ATOM     19  OXT UNL     1       6.573   4.509  18.652  0.00  0.00    +0.000 OA
ATOM     20  HXT UNL     1       6.656   4.414  17.673  0.00  0.00    +0.000 HD
ENDBRANCH  18  19
ENDBRANCH  11  18
ENDBRANCH   7  14
ENDBRANCH   1   8
BRANCH   3  21
ATOM     21  C   UNL     1      -2.823  10.275  16.292  0.00  0.00    +0.000 C 
ATOM     22  F   UNL     1      -3.005   8.926  16.240  0.00  0.00    +0.000 F 
ATOM     23  F   UNL     1      -4.056  10.814  16.485  0.00  0.00    +0.000 F 
ATOM     24  F   UNL     1      -2.437  10.647  15.042  0.00  0.00    +0.000 F 
ENDBRANCH   3  21
BRANCH   6  25
ATOM     25  O   UNL     1       1.017  12.153  20.074  0.00  0.00    +0.000 OA
BRANCH  25  26
ATOM     26  C   UNL     1       1.856  13.153  19.657  0.00  0.00    +0.000 A 
ATOM     27  C   UNL     1       2.659  13.073  18.519  0.00  0.00    +0.000 A 
ATOM     28  C   UNL     1       3.321  14.212  18.054  0.00  0.00    +0.000 A 
ATOM     29  C   UNL     1       3.242  15.422  18.755  0.00  0.00    +0.000 A 
ATOM     30  C   UNL     1       2.546  15.459  19.971  0.00  0.00    +0.000 A 
ATOM     31  C   UNL     1       1.858  14.332  20.418  0.00  0.00    +0.000 A 
ATOM     32 CL   UNL     1       0.952  14.456  21.884  0.00  0.00    +0.000 Cl
BRANCH  29  33
ATOM     33  C   UNL     1       3.888  16.668  18.216  0.00  0.00    +0.000 C 
BRANCH  33  34
ATOM     34  O   UNL     1       2.922  17.449  17.524  0.00  0.00    +0.000 OA
ATOM     35  H   UNL     1       3.206  18.379  17.577  0.00  0.00    +0.000 HD
ENDBRANCH  33  34
ENDBRANCH  29  33
ENDBRANCH  25  26
ENDBRANCH   6  25
TORSDOF 9
ENDMDL
MODEL 7
REMARK VINA RESULT:      -8.0      4.591      6.577
REMARK  Name = 
REMARK  9 active torsions:
REMARK  status: ('A' for Active; 'I' for Inactive)
REMARK    1  A    between atoms: C_2  and  OXT_3
REMARK    2  A    between atoms: C_2  and  CA_4
REMARK    3  A    between atoms: C_7  and  N_8
REMARK    4  A    between atoms: C_9  and  C_11
REMARK    5  A    between atoms: C_13  and  C_14
REMARK    6  A    between atoms: C_20  and  O_21
REMARK    7  A    between atoms: O_21  and  C_22
REMARK    8  A    between atoms: C_25  and  C_26
REMARK    9  A    between atoms: C_26  and  O_27
REMARK                            x       y       z     vdW  Elec       q    Type
REMARK                         _______ _______ _______ _____ _____    ______ ____
ROOT
ATOM      1  C   UNL     1       0.203  10.315  18.909  0.00  0.00    +0.000 A 
ATOM      2  C   UNL     1      -0.736   9.874  17.948  0.00  0.00    +0.000 A 
ATOM      3  C   UNL     1      -1.716  10.722  17.413  0.00  0.00    +0.000 A 
ATOM      4  C   UNL     1      -1.781  12.035  17.885  0.00  0.00    +0.000 A 
ATOM      5  C   UNL     1      -0.864  12.485  18.840  0.00  0.00    +0.000 A 
ATOM      6  C   UNL     1       0.131  11.640  19.363  0.00  0.00    +0.000 A 
ENDROOT
BRANCH   1   8
ATOM      7  N   UNL     1       1.797   8.490  18.413  0.00  0.00    +0.000 N 
ATOM      8  C   UNL     1       1.130   9.240  19.364  0.00  0.00    +0.000 C 
ATOM      9  O   UNL     1       1.217   9.084  20.580  0.00  0.00    +0.000 OA
ATOM     10  H   UNL     1       1.668   8.746  17.440  0.00  0.00    +0.000 HD
BRANCH   7  14
ATOM     11  CA  UNL     1       4.260   5.161  18.947  0.00  0.00    +0.000 A 
ATOM     12  C   UNL     1       3.205   5.316  19.826  0.00  0.00    +0.000 A 
ATOM     13  C   UNL     1       2.398   6.446  19.694  0.00  0.00    +0.000 A 
ATOM     14  C   UNL     1       2.642   7.382  18.685  0.00  0.00    +0.000 A 
ATOM     15  C   UNL     1       3.766   7.158  17.886  0.00  0.00    +0.000 A 
ATOM     16  N   UNL     1       4.592   6.078  17.989  0.00  0.00    +0.000 NA
BRANCH  11  18
ATOM     17  O   UNL     1       4.772   2.894  19.584  0.00  0.00    +0.000 OA
ATOM     18  C   UNL     1       5.074   3.908  18.978  0.00  0.00    +0.000 C 
BRANCH  18  19
ATOM     19  OXT UNL     1       6.202   4.053  18.233  0.00  0.00    +0.000 OA
ATOM     20  HXT UNL     1       6.423   3.179  17.832  0.00  0.00    +0.000 HD
ENDBRANCH  18  19
ENDBRANCH  11  18
ENDBRANCH   7  14
ENDBRANCH   1   8
BRANCH   3  21
ATOM     21  C   UNL     1      -2.653  10.239  16.330  0.00  0.00    +0.000 C 
ATOM     22  F   UNL     1      -2.696  11.060  15.244  0.00  0.00    +0.000 F 
ATOM     23  F   UNL     1      -2.319   9.009  15.858  0.00  0.00    +0.000 F 
ATOM     24  F   UNL     1      -3.935  10.140  16.773  0.00  0.00    +0.000 F 
ENDBRANCH   3  21
BRANCH   6  25
ATOM     25  O   UNL     1       0.981  12.295  20.220  0.00  0.00    +0.000 OA
BRANCH  25  26
ATOM     26  C   UNL     1       1.844  13.273  19.797  0.00  0.00    +0.000 A 
ATOM     27  C   UNL     1       2.672  13.152  18.681  0.00  0.00    +0.000 A 
ATOM     28  C   UNL     1       3.361  14.269  18.203  0.00  0.00    +0.000 A 
ATOM     29  C   UNL     1       3.282  15.498  18.870  0.00  0.00    +0.000 A 
ATOM     30  C   UNL     1       2.557  15.577  20.067  0.00  0.00    +0.000 A 
ATOM     31  C   UNL     1       1.844  14.471  20.527  0.00  0.00    +0.000 A 
ATOM     32 CL   UNL     1       0.906  14.645  21.968  0.00  0.00    +0.000 Cl
BRANCH  29  33
ATOM     33  C   UNL     1       3.957  16.722  18.314  0.00  0.00    +0.000 C 
BRANCH  33  34
ATOM     34  O   UNL     1       3.153  17.289  17.287  0.00  0.00    +0.000 OA
ATOM     35  H   UNL     1       2.861  18.165  17.595  0.00  0.00    +0.000 HD
ENDBRANCH  33  34
ENDBRANCH  29  33
ENDBRANCH  25  26
ENDBRANCH   6  25
TORSDOF 9
ENDMDL
MODEL 8
REMARK VINA RESULT:      -7.9      0.664      1.058
REMARK  Name = 
REMARK  9 active torsions:
REMARK  status: ('A' for Active; 'I' for Inactive)
REMARK    1  A    between atoms: C_2  and  OXT_3
REMARK    2  A    between atoms: C_2  and  CA_4
REMARK    3  A    between atoms: C_7  and  N_8
REMARK    4  A    between atoms: C_9  and  C_11
REMARK    5  A    between atoms: C_13  and  C_14
REMARK    6  A    between atoms: C_20  and  O_21
REMARK    7  A    between atoms: O_21  and  C_22
REMARK    8  A    between atoms: C_25  and  C_26
REMARK    9  A    between atoms: C_26  and  O_27
REMARK                            x       y       z     vdW  Elec       q    Type
REMARK                         _______ _______ _______ _____ _____    ______ ____
ROOT
ATOM      1  C   UNL     1       2.826   6.220  18.854  0.00  0.00    +0.000 A 
ATOM      2  C   UNL     1       2.623   4.913  19.354  0.00  0.00    +0.000 A 
ATOM      3  C   UNL     1       1.855   4.659  20.500  0.00  0.00    +0.000 A 
ATOM      4  C   UNL     1       1.311   5.748  21.184  0.00  0.00    +0.000 A 
ATOM      5  C   UNL     1       1.507   7.047  20.706  0.00  0.00    +0.000 A 
ATOM      6  C   UNL     1       2.261   7.301  19.546  0.00  0.00    +0.000 A 
ENDROOT
BRANCH   1   8
ATOM      7  N   UNL     1       4.316   5.094  17.233  0.00  0.00    +0.000 N 
ATOM      8  C   UNL     1       3.701   6.260  17.648  0.00  0.00    +0.000 C 
ATOM      9  O   UNL     1       3.829   7.360  17.114  0.00  0.00    +0.000 OA
ATOM     10  H   UNL     1       4.096   4.243  17.739  0.00  0.00    +0.000 HD
BRANCH   7  14
ATOM     11  CA  UNL     1       7.051   5.064  14.078  0.00  0.00    +0.000 A 
ATOM     12  C   UNL     1       5.889   4.333  13.917  0.00  0.00    +0.000 A 
ATOM     13  C   UNL     1       4.984   4.292  14.978  0.00  0.00    +0.000 A 
ATOM     14  C   UNL     1       5.240   4.990  16.161  0.00  0.00    +0.000 A 
ATOM     15  C   UNL     1       6.468   5.652  16.240  0.00  0.00    +0.000 A 
ATOM     16  N   UNL     1       7.390   5.706  15.236  0.00  0.00    +0.000 NA
BRANCH  11  18
ATOM     17  O   UNL     1       7.814   4.769  11.811  0.00  0.00    +0.000 OA
ATOM     18  C   UNL     1       7.988   5.231  12.926  0.00  0.00    +0.000 C 
BRANCH  18  19
ATOM     19  OXT UNL     1       9.066   5.974  13.293  0.00  0.00    +0.000 OA
ATOM     20  HXT UNL     1       9.580   5.465  13.964  0.00  0.00    +0.000 HD
ENDBRANCH  18  19
ENDBRANCH  11  18
ENDBRANCH   7  14
ENDBRANCH   1   8
BRANCH   3  21
ATOM     21  C   UNL     1       1.595   3.243  20.961  0.00  0.00    +0.000 C 
ATOM     22  F   UNL     1       2.410   2.323  20.373  0.00  0.00    +0.000 F 
ATOM     23  F   UNL     1       1.760   3.089  22.302  0.00  0.00    +0.000 F 
ATOM     24  F   UNL     1       0.324   2.844  20.687  0.00  0.00    +0.000 F 
ENDBRANCH   3  21
BRANCH   6  25
ATOM     25  O   UNL     1       2.261   8.630  19.199  0.00  0.00    +0.000 OA
BRANCH  25  26
ATOM     26  C   UNL     1       1.118   9.299  18.849  0.00  0.00    +0.000 A 
ATOM     27  C   UNL     1       0.489   9.173  17.610  0.00  0.00    +0.000 A 
ATOM     28  C   UNL     1      -0.778   9.726  17.414  0.00  0.00    +0.000 A 
ATOM     29  C   UNL     1      -1.401  10.466  18.428  0.00  0.00    +0.000 A 
ATOM     30  C   UNL     1      -0.705  10.704  19.621  0.00  0.00    +0.000 A 
ATOM     31  C   UNL     1       0.546  10.125  19.829  0.00  0.00    +0.000 A 
ATOM     32 CL   UNL     1       1.327  10.389  21.348  0.00  0.00    +0.000 Cl
BRANCH  29  33
ATOM     33  C   UNL     1      -2.797  10.995  18.250  0.00  0.00    +0.000 C 
BRANCH  33  34
ATOM     34  O   UNL     1      -3.382  10.424  17.086  0.00  0.00    +0.000 OA
ATOM     35  H   UNL     1      -2.666  10.016  16.569  0.00  0.00    +0.000 HD
ENDBRANCH  33  34
ENDBRANCH  29  33
ENDBRANCH  25  26
ENDBRANCH   6  25
TORSDOF 9
ENDMDL
MODEL 9
REMARK VINA RESULT:      -7.9      2.781      8.348
REMARK  Name = 
REMARK  9 active torsions:
REMARK  status: ('A' for Active; 'I' for Inactive)
REMARK    1  A    between atoms: C_2  and  OXT_3
REMARK    2  A    between atoms: C_2  and  CA_4
REMARK    3  A    between atoms: C_7  and  N_8
REMARK    4  A    between atoms: C_9  and  C_11
REMARK    5  A    between atoms: C_13  and  C_14
REMARK    6  A    between atoms: C_20  and  O_21
REMARK    7  A    between atoms: O_21  and  C_22
REMARK    8  A    between atoms: C_25  and  C_26
REMARK    9  A    between atoms: C_26  and  O_27
REMARK                            x       y       z     vdW  Elec       q    Type
REMARK                         _______ _______ _______ _____ _____    ______ ____
ROOT
ATOM      1  C   UNL     1       2.931   5.863  19.631  0.00  0.00    +0.000 A 
ATOM      2  C   UNL     1       2.258   4.901  20.419  0.00  0.00    +0.000 A 
ATOM      3  C   UNL     1       2.668   3.561  20.480  0.00  0.00    +0.000 A 
ATOM      4  C   UNL     1       3.757   3.169  19.699  0.00  0.00    +0.000 A 
ATOM      5  C   UNL     1       4.431   4.106  18.910  0.00  0.00    +0.000 A 
ATOM      6  C   UNL     1       4.031   5.454  18.863  0.00  0.00    +0.000 A 
ENDROOT
BRANCH   1   8
ATOM      7  N   UNL     1       1.709   7.622  20.866  0.00  0.00    +0.000 N 
ATOM      8  C   UNL     1       2.306   7.215  19.688  0.00  0.00    +0.000 C 
ATOM      9  O   UNL     1       2.350   7.871  18.650  0.00  0.00    +0.000 OA
ATOM     10  H   UNL     1       1.776   7.001  21.665  0.00  0.00    +0.000 HD
BRANCH   7  14
ATOM     11  CA  UNL     1      -0.149  11.334  21.318  0.00  0.00    +0.000 A 
ATOM     12  C   UNL     1      -0.194  10.468  22.395  0.00  0.00    +0.000 A 
ATOM     13  C   UNL     1       0.381   9.205  22.248  0.00  0.00    +0.000 A 
ATOM     14  C   UNL     1       1.001   8.839  21.050  0.00  0.00    +0.000 A 
ATOM     15  C   UNL     1       0.941   9.768  20.008  0.00  0.00    +0.000 A 
ATOM     16  N   UNL     1       0.377  11.006  20.100  0.00  0.00    +0.000 NA
BRANCH  11  18
ATOM     17  O   UNL     1      -1.689  13.162  21.009  0.00  0.00    +0.000 OA
ATOM     18  C   UNL     1      -0.645  12.736  21.473  0.00  0.00    +0.000 C 
BRANCH  18  19
ATOM     19  OXT UNL     1       0.231  13.473  22.206  0.00  0.00    +0.000 OA
ATOM     20  HXT UNL     1       0.568  14.208  21.639  0.00  0.00    +0.000 HD
ENDBRANCH  18  19
ENDBRANCH  11  18
ENDBRANCH   7  14
ENDBRANCH   1   8
BRANCH   3  21
ATOM     21  C   UNL     1       1.971   2.579  21.393  0.00  0.00    +0.000 C 
ATOM     22  F   UNL     1       2.831   1.820  22.129  0.00  0.00    +0.000 F 
ATOM     23  F   UNL     1       1.146   3.186  22.286  0.00  0.00    +0.000 F 
ATOM     24  F   UNL     1       1.200   1.699  20.699  0.00  0.00    +0.000 F 
ENDBRANCH   3  21
BRANCH   6  25
ATOM     25  O   UNL     1       4.873   6.226  18.100  0.00  0.00    +0.000 OA
BRANCH  25  26
ATOM     26  C   UNL     1       5.503   5.744  16.983  0.00  0.00    +0.000 A 
ATOM     27  C   UNL     1       4.835   5.223  15.874  0.00  0.00    +0.000 A 
ATOM     28  C   UNL     1       5.543   4.950  14.701  0.00  0.00    +0.000 A 
ATOM     29  C   UNL     1       6.930   5.132  14.644  0.00  0.00    +0.000 A 
ATOM     30  C   UNL     1       7.613   5.525  15.803  0.00  0.00    +0.000 A 
ATOM     31  C   UNL     1       6.904   5.829  16.964  0.00  0.00    +0.000 A 
ATOM     32 CL   UNL     1       7.789   6.382  18.341  0.00  0.00    +0.000 Cl
BRANCH  29  33
ATOM     33  C   UNL     1       7.683   4.916  13.360  0.00  0.00    +0.000 C 
BRANCH  33  34
ATOM     34  O   UNL     1       8.701   5.900  13.228  0.00  0.00    +0.000 OA
ATOM     35  H   UNL     1       8.391   6.705  13.679  0.00  0.00    +0.000 HD
ENDBRANCH  33  34
ENDBRANCH  29  33
ENDBRANCH  25  26
ENDBRANCH   6  25
TORSDOF 9
ENDMDL
