MODEL 1
REMARK VINA RESULT:      -7.5      0.000      0.000
REMARK  Name = 
REMARK  6 active torsions:
REMARK  status: ('A' for Active; 'I' for Inactive)
REMARK    1  A    between atoms: N_1  and  CA_2
REMARK    2  A    between atoms: CA_2  and  C_3
REMARK    3  A    between atoms: CA_2  and  C_16
REMARK    4  A    between atoms: C_3  and  C_4
REMARK    5  A    between atoms: C_8  and  C_9
REMARK    6  A    between atoms: C_16  and  OXT_18
REMARK                            x       y       z     vdW  Elec       q    Type
REMARK                         _______ _______ _______ _____ _____    ______ ____
ROOT
ATOM      1  C   UNL     1       5.022   6.487  17.357  0.00  0.00    +0.000 A 
ATOM      2  C   UNL     1       4.357   7.682  17.071  0.00  0.00    +0.000 A 
ATOM      3  C   UNL     1       3.068   7.894  17.551  0.00  0.00    +0.000 A 
ATOM      4  C   UNL     1       2.435   6.919  18.328  0.00  0.00    +0.000 A 
ATOM      5  C   UNL     1       3.063   5.697  18.631  0.00  0.00    +0.000 A 
ATOM      6  C   UNL     1       4.365   5.508  18.125  0.00  0.00    +0.000 A 
ENDROOT
BRANCH   5   7
ATOM      7  C   UNL     1       2.387   4.668  19.463  0.00  0.00    +0.000 A 
ATOM      8  C   UNL     1       2.651   4.535  20.838  0.00  0.00    +0.000 A 
ATOM      9  C   UNL     1       2.043   3.538  21.613  0.00  0.00    +0.000 A 
ATOM     10  C   UNL     1       1.140   2.659  21.029  0.00  0.00    +0.000 A 
ATOM     11  C   UNL     1       0.842   2.775  19.677  0.00  0.00    +0.000 A 
ATOM     12  C   UNL     1       1.463   3.764  18.903  0.00  0.00    +0.000 A 
ENDBRANCH   5   7
BRANCH   1  13
ATOM     13  C   UNL     1       6.432   6.252  16.859  0.00  0.00    +0.000 C 
BRANCH  13  14
ATOM     14  CA  UNL     1       6.722   4.781  16.516  0.00  0.00    +0.000 C 
BRANCH  14  15
ATOM     15  N   UNL     1       7.915   4.218  17.227  0.00  0.00    +0.000 NA
ATOM     16  H1  UNL     1       7.575   3.454  17.823  0.00  0.00    +0.000 HD
ATOM     17  H2  UNL     1       8.245   4.921  17.897  0.00  0.00    +0.000 HD
ENDBRANCH  14  15
BRANCH  14  18
ATOM     18  C   UNL     1       6.966   4.620  15.005  0.00  0.00    +0.000 C 
ATOM     19  O   UNL     1       7.620   5.373  14.302  0.00  0.00    +0.000 OA
BRANCH  18  20
ATOM     20  OXT UNL     1       6.326   3.522  14.525  0.00  0.00    +0.000 OA
ATOM     21  HXT UNL     1       5.975   3.775  13.636  0.00  0.00    +0.000 HD
ENDBRANCH  18  20
ENDBRANCH  14  18
ENDBRANCH  13  14
ENDBRANCH   1  13
TORSDOF 6
ENDMDL
MODEL 2
REMARK VINA RESULT:      -7.4      1.724      2.145
REMARK  Name = 
REMARK  6 active torsions:
REMARK  status: ('A' for Active; 'I' for Inactive)
REMARK    1  A    between atoms: N_1  and  CA_2
REMARK    2  A    between atoms: CA_2  and  C_3
REMARK    3  A    between atoms: CA_2  and  C_16
REMARK    4  A    between atoms: C_3  and  C_4
REMARK    5  A    between atoms: C_8  and  C_9
REMARK    6  A    between atoms: C_16  and  OXT_18
REMARK                            x       y       z     vdW  Elec       q    Type
REMARK                         _______ _______ _______ _____ _____    ______ ____
ROOT
ATOM      1  C   UNL     1       5.358   4.761  16.031  0.00  0.00    +0.000 A 
ATOM      2  C   UNL     1       5.467   6.154  15.999  0.00  0.00    +0.000 A 
ATOM      3  C   UNL     1       4.628   6.937  16.784  0.00  0.00    +0.000 A 
ATOM      4  C   UNL     1       3.677   6.337  17.616  0.00  0.00    +0.000 A 
ATOM      5  C   UNL     1       3.525   4.939  17.672  0.00  0.00    +0.000 A 
ATOM      6  C   UNL     1       4.385   4.173  16.859  0.00  0.00    +0.000 A 
ENDROOT
BRANCH   5   7
ATOM      7  C   UNL     1       2.516   4.309  18.562  0.00  0.00    +0.000 A 
ATOM      8  C   UNL     1       2.278   4.783  19.865  0.00  0.00    +0.000 A 
ATOM      9  C   UNL     1       1.356   4.163  20.718  0.00  0.00    +0.000 A 
ATOM     10  C   UNL     1       0.636   3.059  20.278  0.00  0.00    +0.000 A 
ATOM     11  C   UNL     1       0.832   2.577  18.991  0.00  0.00    +0.000 A 
ATOM     12  C   UNL     1       1.766   3.192  18.145  0.00  0.00    +0.000 A 
ENDBRANCH   5   7
BRANCH   1  13
ATOM     13  C   UNL     1       6.279   3.897  15.198  0.00  0.00    +0.000 C 
BRANCH  13  14
ATOM     14  CA  UNL     1       6.179   4.175  13.688  0.00  0.00    +0.000 C 
BRANCH  14  15
ATOM     15  N   UNL     1       6.060   2.938  12.851  0.00  0.00    +0.000 NA
ATOM     16  H1  UNL     1       5.094   2.603  12.946  0.00  0.00    +0.000 HD
ATOM     17  H2  UNL     1       6.618   2.201  13.294  0.00  0.00    +0.000 HD
ENDBRANCH  14  15
BRANCH  14  18
ATOM     18  C   UNL     1       7.419   4.946  13.201  0.00  0.00    +0.000 C 
ATOM     19  O   UNL     1       8.152   5.632  13.893  0.00  0.00    +0.000 OA
BRANCH  18  20
ATOM     20  OXT UNL     1       7.590   4.790  11.862  0.00  0.00    +0.000 OA
ATOM     21  HXT UNL     1       8.378   5.337  11.620  0.00  0.00    +0.000 HD
ENDBRANCH  18  20
ENDBRANCH  14  18
ENDBRANCH  13  14
ENDBRANCH   1  13
TORSDOF 6
ENDMDL
MODEL 3
REMARK VINA RESULT:      -7.4      1.747      2.430
REMARK  Name = 
REMARK  6 active torsions:
REMARK  status: ('A' for Active; 'I' for Inactive)
REMARK    1  A    between atoms: N_1  and  CA_2
REMARK    2  A    between atoms: CA_2  and  C_3
REMARK    3  A    between atoms: CA_2  and  C_16
REMARK    4  A    between atoms: C_3  and  C_4
REMARK    5  A    between atoms: C_8  and  C_9
REMARK    6  A    between atoms: C_16  and  OXT_18
REMARK                            x       y       z     vdW  Elec       q    Type
REMARK                         _______ _______ _______ _____ _____    ______ ____
ROOT
ATOM      1  C   UNL     1       5.405   4.736  16.007  0.00  0.00    +0.000 A 
ATOM      2  C   UNL     1       5.529   6.128  15.999  0.00  0.00    +0.000 A 
ATOM      3  C   UNL     1       4.703   6.905  16.805  0.00  0.00    +0.000 A 
ATOM      4  C   UNL     1       3.751   6.299  17.632  0.00  0.00    +0.000 A 
ATOM      5  C   UNL     1       3.585   4.903  17.662  0.00  0.00    +0.000 A 
ATOM      6  C   UNL     1       4.431   4.143  16.830  0.00  0.00    +0.000 A 
ENDROOT
BRANCH   5   7
ATOM      7  C   UNL     1       2.575   4.266  18.548  0.00  0.00    +0.000 A 
ATOM      8  C   UNL     1       1.871   3.112  18.159  0.00  0.00    +0.000 A 
ATOM      9  C   UNL     1       0.891   2.535  18.977  0.00  0.00    +0.000 A 
ATOM     10  C   UNL     1       0.603   3.095  20.215  0.00  0.00    +0.000 A 
ATOM     11  C   UNL     1       1.293   4.224  20.638  0.00  0.00    +0.000 A 
ATOM     12  C   UNL     1       2.263   4.805  19.811  0.00  0.00    +0.000 A 
ENDBRANCH   5   7
BRANCH   1  13
ATOM     13  C   UNL     1       6.311   3.878  15.151  0.00  0.00    +0.000 C 
BRANCH  13  14
ATOM     14  CA  UNL     1       6.180   4.163  13.644  0.00  0.00    +0.000 C 
BRANCH  14  15
ATOM     15  N   UNL     1       6.037   2.929  12.805  0.00  0.00    +0.000 NA
ATOM     16  H1  UNL     1       6.661   3.042  11.998  0.00  0.00    +0.000 HD
ATOM     17  H2  UNL     1       5.100   2.935  12.391  0.00  0.00    +0.000 HD
ENDBRANCH  14  15
BRANCH  14  18
ATOM     18  C   UNL     1       7.413   4.930  13.134  0.00  0.00    +0.000 C 
ATOM     19  O   UNL     1       8.138   5.645  13.805  0.00  0.00    +0.000 OA
BRANCH  18  20
ATOM     20  OXT UNL     1       7.587   4.733  11.801  0.00  0.00    +0.000 OA
ATOM     21  HXT UNL     1       6.764   5.065  11.364  0.00  0.00    +0.000 HD
ENDBRANCH  18  20
ENDBRANCH  14  18
ENDBRANCH  13  14
ENDBRANCH   1  13
TORSDOF 6
ENDMDL
MODEL 4
REMARK VINA RESULT:      -7.4      0.115      1.362
REMARK  Name = 
REMARK  6 active torsions:
REMARK  status: ('A' for Active; 'I' for Inactive)
REMARK    1  A    between atoms: N_1  and  CA_2
REMARK    2  A    between atoms: CA_2  and  C_3
REMARK    3  A    between atoms: CA_2  and  C_16
REMARK    4  A    between atoms: C_3  and  C_4
REMARK    5  A    between atoms: C_8  and  C_9
REMARK    6  A    between atoms: C_16  and  OXT_18
REMARK                            x       y       z     vdW  Elec       q    Type
REMARK                         _______ _______ _______ _____ _____    ______ ____
ROOT
ATOM      1  C   UNL     1       4.983   6.484  17.317  0.00  0.00    +0.000 A 
ATOM      2  C   UNL     1       4.318   7.691  17.085  0.00  0.00    +0.000 A 
ATOM      3  C   UNL     1       3.048   7.898  17.613  0.00  0.00    +0.000 A 
ATOM      4  C   UNL     1       2.433   6.906  18.384  0.00  0.00    +0.000 A 
ATOM      5  C   UNL     1       3.062   5.672  18.633  0.00  0.00    +0.000 A 
ATOM      6  C   UNL     1       4.345   5.489  18.079  0.00  0.00    +0.000 A 
ENDROOT
BRANCH   5   7
ATOM      7  C   UNL     1       2.405   4.625  19.458  0.00  0.00    +0.000 A 
ATOM      8  C   UNL     1       1.456   3.740  18.913  0.00  0.00    +0.000 A 
ATOM      9  C   UNL     1       0.808   2.779  19.700  0.00  0.00    +0.000 A 
ATOM     10  C   UNL     1       1.108   2.671  21.053  0.00  0.00    +0.000 A 
ATOM     11  C   UNL     1       2.055   3.517  21.617  0.00  0.00    +0.000 A 
ATOM     12  C   UNL     1       2.691   4.485  20.829  0.00  0.00    +0.000 A 
ENDBRANCH   5   7
BRANCH   1  13
ATOM     13  C   UNL     1       6.374   6.254  16.766  0.00  0.00    +0.000 C 
BRANCH  13  14
ATOM     14  CA  UNL     1       6.671   4.777  16.450  0.00  0.00    +0.000 C 
BRANCH  14  15
ATOM     15  N   UNL     1       7.898   4.248  17.128  0.00  0.00    +0.000 NA
ATOM     16  H1  UNL     1       8.692   4.448  16.509  0.00  0.00    +0.000 HD
ATOM     17  H2  UNL     1       7.842   3.225  17.131  0.00  0.00    +0.000 HD
ENDBRANCH  14  15
BRANCH  14  18
ATOM     18  C   UNL     1       6.857   4.579  14.935  0.00  0.00    +0.000 C 
ATOM     19  O   UNL     1       6.309   3.729  14.254  0.00  0.00    +0.000 OA
BRANCH  18  20
ATOM     20  OXT UNL     1       7.752   5.471  14.437  0.00  0.00    +0.000 OA
ATOM     21  HXT UNL     1       8.211   5.866  15.219  0.00  0.00    +0.000 HD
ENDBRANCH  18  20
ENDBRANCH  14  18
ENDBRANCH  13  14
ENDBRANCH   1  13
TORSDOF 6
ENDMDL
MODEL 5
REMARK VINA RESULT:      -7.3      3.353      6.659
REMARK  Name = 
REMARK  6 active torsions:
REMARK  status: ('A' for Active; 'I' for Inactive)
REMARK    1  A    between atoms: N_1  and  CA_2
REMARK    2  A    between atoms: CA_2  and  C_3
REMARK    3  A    between atoms: CA_2  and  C_16
REMARK    4  A    between atoms: C_3  and  C_4
REMARK    5  A    between atoms: C_8  and  C_9
REMARK    6  A    between atoms: C_16  and  OXT_18
REMARK                            x       y       z     vdW  Elec       q    Type
REMARK                         _______ _______ _______ _____ _____    ______ ____
ROOT
ATOM      1  C   UNL     1       3.982   4.356  17.682  0.00  0.00    +0.000 A 
ATOM      2  C   UNL     1       4.069   5.669  18.155  0.00  0.00    +0.000 A 
ATOM      3  C   UNL     1       4.749   6.630  17.416  0.00  0.00    +0.000 A 
ATOM      4  C   UNL     1       5.342   6.294  16.194  0.00  0.00    +0.000 A 
ATOM      5  C   UNL     1       5.288   4.983  15.686  0.00  0.00    +0.000 A 
ATOM      6  C   UNL     1       4.598   4.029  16.461  0.00  0.00    +0.000 A 
ENDROOT
BRANCH   5   7
ATOM      7  C   UNL     1       5.915   4.634  14.385  0.00  0.00    +0.000 A 
ATOM      8  C   UNL     1       5.306   3.740  13.485  0.00  0.00    +0.000 A 
ATOM      9  C   UNL     1       5.916   3.380  12.277  0.00  0.00    +0.000 A 
ATOM     10  C   UNL     1       7.148   3.923  11.932  0.00  0.00    +0.000 A 
ATOM     11  C   UNL     1       7.768   4.823  12.789  0.00  0.00    +0.000 A 
ATOM     12  C   UNL     1       7.160   5.170  14.004  0.00  0.00    +0.000 A 
ENDBRANCH   5   7
BRANCH   1  13
ATOM     13  C   UNL     1       3.227   3.304  18.467  0.00  0.00    +0.000 C 
BRANCH  13  14
ATOM     14  CA  UNL     1       3.784   3.079  19.882  0.00  0.00    +0.000 C 
BRANCH  14  15
ATOM     15  N   UNL     1       4.888   2.067  19.945  0.00  0.00    +0.000 NA
ATOM     16  H1  UNL     1       5.380   2.215  20.833  0.00  0.00    +0.000 HD
ATOM     17  H2  UNL     1       5.585   2.315  19.235  0.00  0.00    +0.000 HD
ENDBRANCH  14  15
BRANCH  14  18
ATOM     18  C   UNL     1       2.668   2.606  20.830  0.00  0.00    +0.000 C 
ATOM     19  O   UNL     1       2.727   2.583  22.048  0.00  0.00    +0.000 OA
BRANCH  18  20
ATOM     20  OXT UNL     1       1.587   2.176  20.128  0.00  0.00    +0.000 OA
ATOM     21  HXT UNL     1       1.922   1.486  19.503  0.00  0.00    +0.000 HD
ENDBRANCH  18  20
ENDBRANCH  14  18
ENDBRANCH  13  14
ENDBRANCH   1  13
TORSDOF 6
ENDMDL
MODEL 6
REMARK VINA RESULT:      -7.3      1.838      3.678
REMARK  Name = 
REMARK  6 active torsions:
REMARK  status: ('A' for Active; 'I' for Inactive)
REMARK    1  A    between atoms: N_1  and  CA_2
REMARK    2  A    between atoms: CA_2  and  C_3
REMARK    3  A    between atoms: CA_2  and  C_16
REMARK    4  A    between atoms: C_3  and  C_4
REMARK    5  A    between atoms: C_8  and  C_9
REMARK    6  A    between atoms: C_16  and  OXT_18
REMARK                            x       y       z     vdW  Elec       q    Type
REMARK                         _______ _______ _______ _____ _____    ______ ____
ROOT
ATOM      1  C   UNL     1       4.619   5.689  17.027  0.00  0.00    +0.000 A 
ATOM      2  C   UNL     1       4.040   4.423  17.157  0.00  0.00    +0.000 A 
ATOM      3  C   UNL     1       2.824   4.278  17.817  0.00  0.00    +0.000 A 
ATOM      4  C   UNL     1       2.170   5.396  18.345  0.00  0.00    +0.000 A 
ATOM      5  C   UNL     1       2.721   6.686  18.246  0.00  0.00    +0.000 A 
ATOM      6  C   UNL     1       3.957   6.801  17.579  0.00  0.00    +0.000 A 
ENDROOT
BRANCH   5   7
ATOM      7  C   UNL     1       2.017   7.870  18.804  0.00  0.00    +0.000 A 
ATOM      8  C   UNL     1       1.691   8.983  18.007  0.00  0.00    +0.000 A 
ATOM      9  C   UNL     1       1.064  10.115  18.542  0.00  0.00    +0.000 A 
ATOM     10  C   UNL     1       0.731  10.152  19.891  0.00  0.00    +0.000 A 
ATOM     11  C   UNL     1       1.021   9.062  20.702  0.00  0.00    +0.000 A 
ATOM     12  C   UNL     1       1.661   7.937  20.165  0.00  0.00    +0.000 A 
ENDBRANCH   5   7
BRANCH   1  13
ATOM     13  C   UNL     1       5.931   5.863  16.294  0.00  0.00    +0.000 C 
BRANCH  13  14
ATOM     14  CA  UNL     1       6.609   4.532  15.926  0.00  0.00    +0.000 C 
BRANCH  14  15
ATOM     15  N   UNL     1       7.829   4.228  16.742  0.00  0.00    +0.000 NA
ATOM     16  H1  UNL     1       8.598   4.782  16.348  0.00  0.00    +0.000 HD
ATOM     17  H2  UNL     1       8.104   3.259  16.551  0.00  0.00    +0.000 HD
ENDBRANCH  14  15
BRANCH  14  18
ATOM     18  C   UNL     1       7.030   4.534  14.446  0.00  0.00    +0.000 C 
ATOM     19  O   UNL     1       7.765   5.348  13.914  0.00  0.00    +0.000 OA
BRANCH  18  20
ATOM     20  OXT UNL     1       6.446   3.507  13.776  0.00  0.00    +0.000 OA
ATOM     21  HXT UNL     1       6.793   3.550  12.850  0.00  0.00    +0.000 HD
ENDBRANCH  18  20
ENDBRANCH  14  18
ENDBRANCH  13  14
ENDBRANCH   1  13
TORSDOF 6
ENDMDL
MODEL 7
REMARK VINA RESULT:      -7.3      2.798      4.240
REMARK  Name = 
REMARK  6 active torsions:
REMARK  status: ('A' for Active; 'I' for Inactive)
REMARK    1  A    between atoms: N_1  and  CA_2
REMARK    2  A    between atoms: CA_2  and  C_3
REMARK    3  A    between atoms: CA_2  and  C_16
REMARK    4  A    between atoms: C_3  and  C_4
REMARK    5  A    between atoms: C_8  and  C_9
REMARK    6  A    between atoms: C_16  and  OXT_18
REMARK                            x       y       z     vdW  Elec       q    Type
REMARK                         _______ _______ _______ _____ _____    ______ ____
ROOT
ATOM      1  C   UNL     1       4.580   4.563  18.637  0.00  0.00    +0.000 A 
ATOM      2  C   UNL     1       3.802   3.617  17.964  0.00  0.00    +0.000 A 
ATOM      3  C   UNL     1       2.497   3.925  17.595  0.00  0.00    +0.000 A 
ATOM      4  C   UNL     1       1.959   5.183  17.885  0.00  0.00    +0.000 A 
ATOM      5  C   UNL     1       2.703   6.161  18.569  0.00  0.00    +0.000 A 
ATOM      6  C   UNL     1       4.019   5.817  18.937  0.00  0.00    +0.000 A 
ENDROOT
BRANCH   5   7
ATOM      7  C   UNL     1       2.127   7.498  18.869  0.00  0.00    +0.000 A 
ATOM      8  C   UNL     1       1.685   7.842  20.160  0.00  0.00    +0.000 A 
ATOM      9  C   UNL     1       1.105   9.088  20.433  0.00  0.00    +0.000 A 
ATOM     10  C   UNL     1       0.970  10.028  19.419  0.00  0.00    +0.000 A 
ATOM     11  C   UNL     1       1.414   9.728  18.138  0.00  0.00    +0.000 A 
ATOM     12  C   UNL     1       1.981   8.475  17.866  0.00  0.00    +0.000 A 
ENDBRANCH   5   7
BRANCH   1  13
ATOM     13  C   UNL     1       6.008   4.248  19.026  0.00  0.00    +0.000 C 
BRANCH  13  14
ATOM     14  CA  UNL     1       7.052   5.008  18.191  0.00  0.00    +0.000 C 
BRANCH  14  15
ATOM     15  N   UNL     1       8.068   4.121  17.538  0.00  0.00    +0.000 NA
ATOM     16  H1  UNL     1       8.986   4.555  17.690  0.00  0.00    +0.000 HD
ATOM     17  H2  UNL     1       7.936   4.181  16.524  0.00  0.00    +0.000 HD
ENDBRANCH  14  15
BRANCH  14  18
ATOM     18  C   UNL     1       7.814   6.016  19.070  0.00  0.00    +0.000 C 
ATOM     19  O   UNL     1       8.262   7.089  18.703  0.00  0.00    +0.000 OA
BRANCH  18  20
ATOM     20  OXT UNL     1       7.956   5.542  20.335  0.00  0.00    +0.000 OA
ATOM     21  HXT UNL     1       7.577   4.629  20.332  0.00  0.00    +0.000 HD
ENDBRANCH  18  20
ENDBRANCH  14  18
ENDBRANCH  13  14
ENDBRANCH   1  13
TORSDOF 6
ENDMDL
MODEL 8
REMARK VINA RESULT:      -7.2      2.323      4.026
REMARK  Name = 
REMARK  6 active torsions:
REMARK  status: ('A' for Active; 'I' for Inactive)
REMARK    1  A    between atoms: N_1  and  CA_2
REMARK    2  A    between atoms: CA_2  and  C_3
REMARK    3  A    between atoms: CA_2  and  C_16
REMARK    4  A    between atoms: C_3  and  C_4
REMARK    5  A    between atoms: C_8  and  C_9
REMARK    6  A    between atoms: C_16  and  OXT_18
REMARK                            x       y       z     vdW  Elec       q    Type
REMARK                         _______ _______ _______ _____ _____    ______ ____
ROOT
ATOM      1  C   UNL     1       4.376   4.622  17.198  0.00  0.00    +0.000 A 
ATOM      2  C   UNL     1       3.521   3.516  17.168  0.00  0.00    +0.000 A 
ATOM      3  C   UNL     1       2.218   3.631  17.638  0.00  0.00    +0.000 A 
ATOM      4  C   UNL     1       1.751   4.852  18.135  0.00  0.00    +0.000 A 
ATOM      5  C   UNL     1       2.580   5.987  18.195  0.00  0.00    +0.000 A 
ATOM      6  C   UNL     1       3.898   5.838  17.717  0.00  0.00    +0.000 A 
ENDROOT
BRANCH   5   7
ATOM      7  C   UNL     1       2.076   7.283  18.719  0.00  0.00    +0.000 A 
ATOM      8  C   UNL     1       1.917   8.407  17.888  0.00  0.00    +0.000 A 
ATOM      9  C   UNL     1       1.480   9.640  18.391  0.00  0.00    +0.000 A 
ATOM     10  C   UNL     1       1.175   9.771  19.741  0.00  0.00    +0.000 A 
ATOM     11  C   UNL     1       1.303   8.675  20.585  0.00  0.00    +0.000 A 
ATOM     12  C   UNL     1       1.754   7.448  20.080  0.00  0.00    +0.000 A 
ENDBRANCH   5   7
BRANCH   1  13
ATOM     13  C   UNL     1       5.790   4.516  16.670  0.00  0.00    +0.000 C 
BRANCH  13  14
ATOM     14  CA  UNL     1       6.728   5.610  17.209  0.00  0.00    +0.000 C 
BRANCH  14  15
ATOM     15  N   UNL     1       7.563   6.266  16.152  0.00  0.00    +0.000 NA
ATOM     16  H1  UNL     1       8.441   5.737  16.092  0.00  0.00    +0.000 HD
ATOM     17  H2  UNL     1       7.855   7.184  16.504  0.00  0.00    +0.000 HD
ENDBRANCH  14  15
BRANCH  14  18
ATOM     18  C   UNL     1       7.687   5.025  18.260  0.00  0.00    +0.000 C 
ATOM     19  O   UNL     1       7.827   5.428  19.403  0.00  0.00    +0.000 OA
BRANCH  18  20
ATOM     20  OXT UNL     1       8.403   3.994  17.741  0.00  0.00    +0.000 OA
ATOM     21  HXT UNL     1       9.175   4.402  17.275  0.00  0.00    +0.000 HD
ENDBRANCH  18  20
ENDBRANCH  14  18
ENDBRANCH  13  14
ENDBRANCH   1  13
TORSDOF 6
ENDMDL
MODEL 9
REMARK VINA RESULT:      -7.2      2.450      3.911
REMARK  Name = 
REMARK  6 active torsions:
REMARK  status: ('A' for Active; 'I' for Inactive)
REMARK    1  A    between atoms: N_1  and  CA_2
REMARK    2  A    between atoms: CA_2  and  C_3
REMARK    3  A    between atoms: CA_2  and  C_16
REMARK    4  A    between atoms: C_3  and  C_4
REMARK    5  A    between atoms: C_8  and  C_9
REMARK    6  A    between atoms: C_16  and  OXT_18
REMARK                            x       y       z     vdW  Elec       q    Type
REMARK                         _______ _______ _______ _____ _____    ______ ____
ROOT
ATOM      1  C   UNL     1       4.768   5.257  16.868  0.00  0.00    +0.000 A 
ATOM      2  C   UNL     1       4.100   4.030  16.901  0.00  0.00    +0.000 A 
ATOM      3  C   UNL     1       2.847   3.936  17.496  0.00  0.00    +0.000 A 
ATOM      4  C   UNL     1       2.244   5.067  18.057  0.00  0.00    +0.000 A 
ATOM      5  C   UNL     1       2.886   6.319  18.055  0.00  0.00    +0.000 A 
ATOM      6  C   UNL     1       4.157   6.382  17.451  0.00  0.00    +0.000 A 
ENDROOT
BRANCH   5   7
ATOM      7  C   UNL     1       2.237   7.518  18.648  0.00  0.00    +0.000 A 
ATOM      8  C   UNL     1       1.916   7.587  20.016  0.00  0.00    +0.000 A 
ATOM      9  C   UNL     1       1.268   8.701  20.566  0.00  0.00    +0.000 A 
ATOM     10  C   UNL     1       0.941   9.783  19.758  0.00  0.00    +0.000 A 
ATOM     11  C   UNL     1       1.262   9.755  18.407  0.00  0.00    +0.000 A 
ATOM     12  C   UNL     1       1.897   8.633  17.858  0.00  0.00    +0.000 A 
ENDBRANCH   5   7
BRANCH   1  13
ATOM     13  C   UNL     1       6.123   5.378  16.204  0.00  0.00    +0.000 C 
BRANCH  13  14
ATOM     14  CA  UNL     1       7.299   5.285  17.192  0.00  0.00    +0.000 C 
BRANCH  14  15
ATOM     15  N   UNL     1       7.037   4.385  18.361  0.00  0.00    +0.000 NA
ATOM     16  H1  UNL     1       6.822   3.456  17.982  0.00  0.00    +0.000 HD
ATOM     17  H2  UNL     1       6.158   4.680  18.797  0.00  0.00    +0.000 HD
ENDBRANCH  14  15
BRANCH  14  18
ATOM     18  C   UNL     1       7.643   6.678  17.749  0.00  0.00    +0.000 C 
ATOM     19  O   UNL     1       7.500   7.737  17.162  0.00  0.00    +0.000 OA
BRANCH  18  20
ATOM     20  OXT UNL     1       8.169   6.583  18.998  0.00  0.00    +0.000 OA
ATOM     21  HXT UNL     1       7.399   6.532  19.617  0.00  0.00    +0.000 HD
ENDBRANCH  18  20
ENDBRANCH  14  18
ENDBRANCH  13  14
ENDBRANCH   1  13
TORSDOF 6
ENDMDL
