MODEL 1
REMARK VINA RESULT:      -8.8      0.000      0.000
REMARK  Name = 
REMARK  12 active torsions:
REMARK  status: ('A' for Active; 'I' for Inactive)
REMARK    1  A    between atoms: C_1  and  C_2
REMARK    2  A    between atoms: C_5  and  C_6
REMARK    3  A    between atoms: C_9  and  C_10
REMARK    4  A    between atoms: N_18  and  C_19
REMARK    5  A    between atoms: C_24  and  O_25
REMARK    6  A    between atoms: O_25  and  C_26
REMARK    7  A    between atoms: C_26  and  C_27
REMARK    8  A    between atoms: C_27  and  C_28
REMARK    9  A    between atoms: C_28  and  C_29
REMARK   10  A    between atoms: C_29  and  C_30
REMARK   11  A    between atoms: C_30  and  C_31
REMARK   12  A    between atoms: C_31  and  N_32
REMARK                            x       y       z     vdW  Elec       q    Type
REMARK                         _______ _______ _______ _____ _____    ______ ____
ROOT
ATOM      1  C   UNL     1       5.908   3.614  14.833  0.00  0.00    +0.000 C 
ATOM      2  C   UNL     1       5.483   4.867  15.493  0.00  0.00    +0.000 A 
ATOM      3  N   UNL     1       5.572   6.036  14.891  0.00  0.00    +0.000 NA
ATOM      4  N   UNL     1       4.927   6.962  15.641  0.00  0.00    +0.000 NA
ATOM      5  C   UNL     1       4.462   6.383  16.732  0.00  0.00    +0.000 A 
ATOM      6  N   UNL     1       4.785   5.003  16.688  0.00  0.00    +0.000 N 
ENDROOT
BRANCH   5   7
ATOM      7  C   UNL     1       3.696   7.124  17.754  0.00  0.00    +0.000 A 
ATOM      8  C   UNL     1       3.298   8.441  17.504  0.00  0.00    +0.000 A 
ATOM      9  C   UNL     1       2.412   9.111  18.369  0.00  0.00    +0.000 A 
ATOM     10  C   UNL     1       1.869   8.477  19.500  0.00  0.00    +0.000 A 
ATOM     11  C   UNL     1       2.342   7.186  19.775  0.00  0.00    +0.000 A 
ATOM     12  C   UNL     1       3.292   6.552  18.964  0.00  0.00    +0.000 A 
BRANCH  10  13
ATOM     13  C   UNL     1       0.853   9.138  20.367  0.00  0.00    +0.000 A 
ATOM     14  C   UNL     1       0.600   8.710  21.686  0.00  0.00    +0.000 A 
ATOM     15  C   UNL     1      -0.391   9.308  22.476  0.00  0.00    +0.000 A 
ATOM     16  C   UNL     1      -1.140  10.367  21.976  0.00  0.00    +0.000 A 
ATOM     17  C   UNL     1      -0.890  10.836  20.692  0.00  0.00    +0.000 A 
ATOM     18  C   UNL     1       0.089  10.227  19.901  0.00  0.00    +0.000 A 
ENDBRANCH  10  13
ENDBRANCH   5   7
BRANCH   6  19
ATOM     19  C   UNL     1       4.388   3.993  17.635  0.00  0.00    +0.000 A 
ATOM     20  C   UNL     1       3.279   3.190  17.288  0.00  0.00    +0.000 A 
ATOM     21  C   UNL     1       2.601   2.422  18.237  0.00  0.00    +0.000 A 
ATOM     22  C   UNL     1       3.074   2.370  19.533  0.00  0.00    +0.000 A 
ATOM     23  C   UNL     1       4.246   3.048  19.859  0.00  0.00    +0.000 A 
ATOM     24  C   UNL     1       4.940   3.846  18.924  0.00  0.00    +0.000 A 
BRANCH  24  25
ATOM     25  O   UNL     1       6.057   4.544  19.328  0.00  0.00    +0.000 OA
BRANCH  25  26
ATOM     26  C   UNL     1       6.857   5.021  18.227  0.00  0.00    +0.000 C 
BRANCH  26  27
ATOM     27  C   UNL     1       7.708   6.236  18.611  0.00  0.00    +0.000 C 
BRANCH  27  28
ATOM     28  C   UNL     1       7.825   7.186  17.410  0.00  0.00    +0.000 C 
BRANCH  28  29
ATOM     29  C   UNL     1       7.716   8.658  17.805  0.00  0.00    +0.000 C 
BRANCH  29  30
ATOM     30  C   UNL     1       8.919   9.094  18.653  0.00  0.00    +0.000 C 
BRANCH  30  31
ATOM     31  C   UNL     1       8.825  10.570  19.043  0.00  0.00    +0.000 C 
BRANCH  31  32
ATOM     32  N   UNL     1      10.096  11.251  18.935  0.00  0.00    +0.000 N 
ATOM     33  C   UNL     1      10.894  11.642  19.971  0.00  0.00    +0.000 A 
ATOM     34  C   UNL     1      11.987  12.220  19.380  0.00  0.00    +0.000 A 
ATOM     35  N   UNL     1      11.881  12.183  18.008  0.00  0.00    +0.000 NA
ATOM     36  C   UNL     1      10.728  11.589  17.775  0.00  0.00    +0.000 A 
ENDBRANCH  31  32
ENDBRANCH  30  31
ENDBRANCH  29  30
ENDBRANCH  28  29
ENDBRANCH  27  28
ENDBRANCH  26  27
ENDBRANCH  25  26
ENDBRANCH  24  25
ENDBRANCH   6  19
TORSDOF 11
ENDMDL
MODEL 2
REMARK VINA RESULT:      -8.8      2.009      3.326
REMARK  Name = 
REMARK  12 active torsions:
REMARK  status: ('A' for Active; 'I' for Inactive)
REMARK    1  A    between atoms: C_1  and  C_2
REMARK    2  A    between atoms: C_5  and  C_6
REMARK    3  A    between atoms: C_9  and  C_10
REMARK    4  A    between atoms: N_18  and  C_19
REMARK    5  A    between atoms: C_24  and  O_25
REMARK    6  A    between atoms: O_25  and  C_26
REMARK    7  A    between atoms: C_26  and  C_27
REMARK    8  A    between atoms: C_27  and  C_28
REMARK    9  A    between atoms: C_28  and  C_29
REMARK   10  A    between atoms: C_29  and  C_30
REMARK   11  A    between atoms: C_30  and  C_31
REMARK   12  A    between atoms: C_31  and  N_32
REMARK                            x       y       z     vdW  Elec       q    Type
REMARK                         _______ _______ _______ _____ _____    ______ ____
ROOT
ATOM      1  C   UNL     1       4.325   1.894  19.752  0.00  0.00    +0.000 C 
ATOM      2  C   UNL     1       3.517   3.109  19.987  0.00  0.00    +0.000 A 
ATOM      3  N   UNL     1       2.820   3.278  21.093  0.00  0.00    +0.000 NA
ATOM      4  N   UNL     1       2.355   4.551  21.124  0.00  0.00    +0.000 NA
ATOM      5  C   UNL     1       2.731   5.172  20.022  0.00  0.00    +0.000 A 
ATOM      6  N   UNL     1       3.506   4.281  19.239  0.00  0.00    +0.000 N 
ENDROOT
BRANCH   5   7
ATOM      7  C   UNL     1       2.391   6.585  19.757  0.00  0.00    +0.000 A 
ATOM      8  C   UNL     1       2.434   7.077  18.449  0.00  0.00    +0.000 A 
ATOM      9  C   UNL     1       1.938   8.356  18.135  0.00  0.00    +0.000 A 
ATOM     10  C   UNL     1       1.354   9.179  19.114  0.00  0.00    +0.000 A 
ATOM     11  C   UNL     1       1.393   8.700  20.431  0.00  0.00    +0.000 A 
ATOM     12  C   UNL     1       1.967   7.465  20.758  0.00  0.00    +0.000 A 
BRANCH  10  13
ATOM     13  C   UNL     1       0.735  10.492  18.778  0.00  0.00    +0.000 A 
ATOM     14  C   UNL     1      -0.599  10.600  18.334  0.00  0.00    +0.000 A 
ATOM     15  C   UNL     1      -1.156  11.834  17.973  0.00  0.00    +0.000 A 
ATOM     16  C   UNL     1      -0.402  12.998  18.070  0.00  0.00    +0.000 A 
ATOM     17  C   UNL     1       0.904  12.929  18.538  0.00  0.00    +0.000 A 
ATOM     18  C   UNL     1       1.462  11.694  18.883  0.00  0.00    +0.000 A 
ENDBRANCH  10  13
ENDBRANCH   5   7
BRANCH   6  19
ATOM     19  C   UNL     1       4.185   4.584  18.004  0.00  0.00    +0.000 A 
ATOM     20  C   UNL     1       3.662   4.004  16.827  0.00  0.00    +0.000 A 
ATOM     21  C   UNL     1       4.402   3.945  15.645  0.00  0.00    +0.000 A 
ATOM     22  C   UNL     1       5.644   4.546  15.590  0.00  0.00    +0.000 A 
ATOM     23  C   UNL     1       6.116   5.240  16.701  0.00  0.00    +0.000 A 
ATOM     24  C   UNL     1       5.396   5.300  17.914  0.00  0.00    +0.000 A 
BRANCH  24  25
ATOM     25  O   UNL     1       5.948   5.947  18.997  0.00  0.00    +0.000 OA
BRANCH  25  26
ATOM     26  C   UNL     1       7.358   5.692  19.153  0.00  0.00    +0.000 C 
BRANCH  26  27
ATOM     27  C   UNL     1       8.203   6.954  18.948  0.00  0.00    +0.000 C 
BRANCH  27  28
ATOM     28  C   UNL     1       7.751   7.679  17.672  0.00  0.00    +0.000 C 
BRANCH  28  29
ATOM     29  C   UNL     1       7.917   9.196  17.761  0.00  0.00    +0.000 C 
BRANCH  29  30
ATOM     30  C   UNL     1       8.887   9.581  18.886  0.00  0.00    +0.000 C 
BRANCH  30  31
ATOM     31  C   UNL     1       9.563  10.925  18.608  0.00  0.00    +0.000 C 
BRANCH  31  32
ATOM     32  N   UNL     1       9.730  11.717  19.807  0.00  0.00    +0.000 N 
ATOM     33  C   UNL     1      10.405  12.898  19.907  0.00  0.00    +0.000 A 
ATOM     34  C   UNL     1      10.272  13.274  21.219  0.00  0.00    +0.000 A 
ATOM     35  N   UNL     1       9.524  12.355  21.919  0.00  0.00    +0.000 NA
ATOM     36  C   UNL     1       9.212  11.430  21.035  0.00  0.00    +0.000 A 
ENDBRANCH  31  32
ENDBRANCH  30  31
ENDBRANCH  29  30
ENDBRANCH  28  29
ENDBRANCH  27  28
ENDBRANCH  26  27
ENDBRANCH  25  26
ENDBRANCH  24  25
ENDBRANCH   6  19
TORSDOF 11
ENDMDL
MODEL 3
REMARK VINA RESULT:      -8.8      5.779     11.197
REMARK  Name = 
REMARK  12 active torsions:
REMARK  status: ('A' for Active; 'I' for Inactive)
REMARK    1  A    between atoms: C_1  and  C_2
REMARK    2  A    between atoms: C_5  and  C_6
REMARK    3  A    between atoms: C_9  and  C_10
REMARK    4  A    between atoms: N_18  and  C_19
REMARK    5  A    between atoms: C_24  and  O_25
REMARK    6  A    between atoms: O_25  and  C_26
REMARK    7  A    between atoms: C_26  and  C_27
REMARK    8  A    between atoms: C_27  and  C_28
REMARK    9  A    between atoms: C_28  and  C_29
REMARK   10  A    between atoms: C_29  and  C_30
REMARK   11  A    between atoms: C_30  and  C_31
REMARK   12  A    between atoms: C_31  and  N_32
REMARK                            x       y       z     vdW  Elec       q    Type
REMARK                         _______ _______ _______ _____ _____    ______ ____
ROOT
ATOM      1  C   UNL     1      -1.187  12.571  22.965  0.00  0.00    +0.000 C 
ATOM      2  C   UNL     1      -0.521  11.304  22.598  0.00  0.00    +0.000 A 
ATOM      3  N   UNL     1      -0.632  10.219  23.338  0.00  0.00    +0.000 NA
ATOM      4  N   UNL     1      -0.099   9.173  22.662  0.00  0.00    +0.000 NA
ATOM      5  C   UNL     1       0.379   9.606  21.510  0.00  0.00    +0.000 A 
ATOM      6  N   UNL     1       0.123  10.996  21.405  0.00  0.00    +0.000 N 
ENDROOT
BRANCH   5   7
ATOM      7  C   UNL     1       1.018   8.703  20.531  0.00  0.00    +0.000 A 
ATOM      8  C   UNL     1       1.303   9.165  19.243  0.00  0.00    +0.000 A 
ATOM      9  C   UNL     1       2.077   8.401  18.349  0.00  0.00    +0.000 A 
ATOM     10  C   UNL     1       2.618   7.158  18.723  0.00  0.00    +0.000 A 
ATOM     11  C   UNL     1       2.254   6.679  19.989  0.00  0.00    +0.000 A 
ATOM     12  C   UNL     1       1.412   7.399  20.845  0.00  0.00    +0.000 A 
BRANCH  10  13
ATOM     13  C   UNL     1       3.521   6.386  17.824  0.00  0.00    +0.000 A 
ATOM     14  C   UNL     1       3.516   4.977  17.786  0.00  0.00    +0.000 A 
ATOM     15  C   UNL     1       4.403   4.260  16.973  0.00  0.00    +0.000 A 
ATOM     16  C   UNL     1       5.304   4.933  16.156  0.00  0.00    +0.000 A 
ATOM     17  C   UNL     1       5.311   6.322  16.144  0.00  0.00    +0.000 A 
ATOM     18  C   UNL     1       4.435   7.035  16.969  0.00  0.00    +0.000 A 
ENDBRANCH  10  13
ENDBRANCH   5   7
BRANCH   6  19
ATOM     19  C   UNL     1       0.398  11.841  20.270  0.00  0.00    +0.000 A 
ATOM     20  C   UNL     1       1.585  12.606  20.315  0.00  0.00    +0.000 A 
ATOM     21  C   UNL     1       1.794  13.688  19.458  0.00  0.00    +0.000 A 
ATOM     22  C   UNL     1       0.863  13.970  18.478  0.00  0.00    +0.000 A 
ATOM     23  C   UNL     1      -0.246  13.141  18.333  0.00  0.00    +0.000 A 
ATOM     24  C   UNL     1      -0.491  12.052  19.197  0.00  0.00    +0.000 A 
BRANCH  24  25
ATOM     25  O   UNL     1      -1.641  11.310  19.041  0.00  0.00    +0.000 OA
BRANCH  25  26
ATOM     26  C   UNL     1      -1.581  10.397  17.927  0.00  0.00    +0.000 C 
BRANCH  26  27
ATOM     27  C   UNL     1      -2.330  10.927  16.700  0.00  0.00    +0.000 C 
BRANCH  27  28
ATOM     28  C   UNL     1      -3.688  10.222  16.577  0.00  0.00    +0.000 C 
BRANCH  28  29
ATOM     29  C   UNL     1      -4.740  10.790  17.529  0.00  0.00    +0.000 C 
BRANCH  29  30
ATOM     30  C   UNL     1      -5.160  12.205  17.108  0.00  0.00    +0.000 C 
BRANCH  30  31
ATOM     31  C   UNL     1      -6.453  12.637  17.803  0.00  0.00    +0.000 C 
BRANCH  31  32
ATOM     32  N   UNL     1      -6.667  14.065  17.731  0.00  0.00    +0.000 N 
ATOM     33  C   UNL     1      -7.026  14.773  16.621  0.00  0.00    +0.000 A 
ATOM     34  C   UNL     1      -7.128  16.073  17.045  0.00  0.00    +0.000 A 
ATOM     35  N   UNL     1      -6.850  16.174  18.389  0.00  0.00    +0.000 NA
ATOM     36  C   UNL     1      -6.578  14.943  18.771  0.00  0.00    +0.000 A 
ENDBRANCH  31  32
ENDBRANCH  30  31
ENDBRANCH  29  30
ENDBRANCH  28  29
ENDBRANCH  27  28
ENDBRANCH  26  27
ENDBRANCH  25  26
ENDBRANCH  24  25
ENDBRANCH   6  19
TORSDOF 11
ENDMDL
MODEL 4
REMARK VINA RESULT:      -8.7      5.874     11.478
REMARK  Name = 
REMARK  12 active torsions:
REMARK  status: ('A' for Active; 'I' for Inactive)
REMARK    1  A    between atoms: C_1  and  C_2
REMARK    2  A    between atoms: C_5  and  C_6
REMARK    3  A    between atoms: C_9  and  C_10
REMARK    4  A    between atoms: N_18  and  C_19
REMARK    5  A    between atoms: C_24  and  O_25
REMARK    6  A    between atoms: O_25  and  C_26
REMARK    7  A    between atoms: C_26  and  C_27
REMARK    8  A    between atoms: C_27  and  C_28
REMARK    9  A    between atoms: C_28  and  C_29
REMARK   10  A    between atoms: C_29  and  C_30
REMARK   11  A    between atoms: C_30  and  C_31
REMARK   12  A    between atoms: C_31  and  N_32
REMARK                            x       y       z     vdW  Elec       q    Type
REMARK                         _______ _______ _______ _____ _____    ______ ____
ROOT
ATOM      1  C   UNL     1      -2.005  12.635  22.728  0.00  0.00    +0.000 C 
ATOM      2  C   UNL     1      -1.107  11.478  22.532  0.00  0.00    +0.000 A 
ATOM      3  N   UNL     1      -1.094  10.458  23.366  0.00  0.00    +0.000 NA
ATOM      4  N   UNL     1      -0.338   9.467  22.832  0.00  0.00    +0.000 NA
ATOM      5  C   UNL     1       0.152   9.878  21.678  0.00  0.00    +0.000 A 
ATOM      6  N   UNL     1      -0.325  11.187  21.420  0.00  0.00    +0.000 N 
ENDROOT
BRANCH   5   7
ATOM      7  C   UNL     1       1.013   9.021  20.837  0.00  0.00    +0.000 A 
ATOM      8  C   UNL     1       1.481   7.802  21.337  0.00  0.00    +0.000 A 
ATOM      9  C   UNL     1       2.142   6.879  20.505  0.00  0.00    +0.000 A 
ATOM     10  C   UNL     1       2.332   7.129  19.135  0.00  0.00    +0.000 A 
ATOM     11  C   UNL     1       1.926   8.389  18.672  0.00  0.00    +0.000 A 
ATOM     12  C   UNL     1       1.349   9.343  19.518  0.00  0.00    +0.000 A 
BRANCH  10  13
ATOM     13  C   UNL     1       2.938   6.119  18.223  0.00  0.00    +0.000 A 
ATOM     14  C   UNL     1       2.395   4.827  18.067  0.00  0.00    +0.000 A 
ATOM     15  C   UNL     1       3.001   3.868  17.244  0.00  0.00    +0.000 A 
ATOM     16  C   UNL     1       4.155   4.183  16.535  0.00  0.00    +0.000 A 
ATOM     17  C   UNL     1       4.695   5.459  16.640  0.00  0.00    +0.000 A 
ATOM     18  C   UNL     1       4.096   6.408  17.474  0.00  0.00    +0.000 A 
ENDBRANCH  10  13
ENDBRANCH   5   7
BRANCH   6  19
ATOM     19  C   UNL     1      -0.103  11.968  20.229  0.00  0.00    +0.000 A 
ATOM     20  C   UNL     1       0.963  12.894  20.260  0.00  0.00    +0.000 A 
ATOM     21  C   UNL     1       1.071  13.922  19.321  0.00  0.00    +0.000 A 
ATOM     22  C   UNL     1       0.167  13.988  18.279  0.00  0.00    +0.000 A 
ATOM     23  C   UNL     1      -0.808  13.002  18.158  0.00  0.00    +0.000 A 
ATOM     24  C   UNL     1      -0.951  11.963  19.102  0.00  0.00    +0.000 A 
BRANCH  24  25
ATOM     25  O   UNL     1      -1.977  11.056  18.961  0.00  0.00    +0.000 OA
BRANCH  25  26
ATOM     26  C   UNL     1      -1.843  10.224  17.791  0.00  0.00    +0.000 C 
BRANCH  26  27
ATOM     27  C   UNL     1      -3.180  10.008  17.074  0.00  0.00    +0.000 C 
BRANCH  27  28
ATOM     28  C   UNL     1      -4.112  11.197  17.348  0.00  0.00    +0.000 C 
BRANCH  28  29
ATOM     29  C   UNL     1      -5.270  10.841  18.279  0.00  0.00    +0.000 C 
BRANCH  29  30
ATOM     30  C   UNL     1      -5.935  12.105  18.842  0.00  0.00    +0.000 C 
BRANCH  30  31
ATOM     31  C   UNL     1      -7.265  12.397  18.145  0.00  0.00    +0.000 C 
BRANCH  31  32
ATOM     32  N   UNL     1      -7.320  13.737  17.602  0.00  0.00    +0.000 N 
ATOM     33  C   UNL     1      -7.883  14.827  18.197  0.00  0.00    +0.000 A 
ATOM     34  C   UNL     1      -7.673  15.860  17.321  0.00  0.00    +0.000 A 
ATOM     35  N   UNL     1      -6.985  15.428  16.209  0.00  0.00    +0.000 NA
ATOM     36  C   UNL     1      -6.787  14.142  16.413  0.00  0.00    +0.000 A 
ENDBRANCH  31  32
ENDBRANCH  30  31
ENDBRANCH  29  30
ENDBRANCH  28  29
ENDBRANCH  27  28
ENDBRANCH  26  27
ENDBRANCH  25  26
ENDBRANCH  24  25
ENDBRANCH   6  19
TORSDOF 11
ENDMDL
MODEL 5
REMARK VINA RESULT:      -8.7      4.516      8.336
REMARK  Name = 
REMARK  12 active torsions:
REMARK  status: ('A' for Active; 'I' for Inactive)
REMARK    1  A    between atoms: C_1  and  C_2
REMARK    2  A    between atoms: C_5  and  C_6
REMARK    3  A    between atoms: C_9  and  C_10
REMARK    4  A    between atoms: N_18  and  C_19
REMARK    5  A    between atoms: C_24  and  O_25
REMARK    6  A    between atoms: O_25  and  C_26
REMARK    7  A    between atoms: C_26  and  C_27
REMARK    8  A    between atoms: C_27  and  C_28
REMARK    9  A    between atoms: C_28  and  C_29
REMARK   10  A    between atoms: C_29  and  C_30
REMARK   11  A    between atoms: C_30  and  C_31
REMARK   12  A    between atoms: C_31  and  N_32
REMARK                            x       y       z     vdW  Elec       q    Type
REMARK                         _______ _______ _______ _____ _____    ______ ____
ROOT
ATOM      1  C   UNL     1      -1.566  11.975  22.889  0.00  0.00    +0.000 C 
ATOM      2  C   UNL     1      -0.531  11.020  22.442  0.00  0.00    +0.000 A 
ATOM      3  N   UNL     1       0.211  10.346  23.298  0.00  0.00    +0.000 NA
ATOM      4  N   UNL     1       0.917   9.409  22.619  0.00  0.00    +0.000 NA
ATOM      5  C   UNL     1       0.645   9.516  21.332  0.00  0.00    +0.000 A 
ATOM      6  N   UNL     1      -0.308  10.550  21.152  0.00  0.00    +0.000 N 
ENDROOT
BRANCH   5   7
ATOM      7  C   UNL     1       1.249   8.624  20.321  0.00  0.00    +0.000 A 
ATOM      8  C   UNL     1       1.577   9.127  19.059  0.00  0.00    +0.000 A 
ATOM      9  C   UNL     1       2.322   8.363  18.141  0.00  0.00    +0.000 A 
ATOM     10  C   UNL     1       2.790   7.077  18.464  0.00  0.00    +0.000 A 
ATOM     11  C   UNL     1       2.382   6.562  19.703  0.00  0.00    +0.000 A 
ATOM     12  C   UNL     1       1.567   7.288  20.580  0.00  0.00    +0.000 A 
BRANCH  10  13
ATOM     13  C   UNL     1       3.663   6.298  17.542  0.00  0.00    +0.000 A 
ATOM     14  C   UNL     1       3.656   4.889  17.515  0.00  0.00    +0.000 A 
ATOM     15  C   UNL     1       4.516   4.164  16.678  0.00  0.00    +0.000 A 
ATOM     16  C   UNL     1       5.391   4.831  15.828  0.00  0.00    +0.000 A 
ATOM     17  C   UNL     1       5.397   6.221  15.805  0.00  0.00    +0.000 A 
ATOM     18  C   UNL     1       4.548   6.940  16.652  0.00  0.00    +0.000 A 
ENDBRANCH  10  13
ENDBRANCH   5   7
BRANCH   6  19
ATOM     19  C   UNL     1      -0.943  10.933  19.917  0.00  0.00    +0.000 A 
ATOM     20  C   UNL     1      -1.796   9.983  19.313  0.00  0.00    +0.000 A 
ATOM     21  C   UNL     1      -2.196  10.097  17.980  0.00  0.00    +0.000 A 
ATOM     22  C   UNL     1      -1.826  11.210  17.252  0.00  0.00    +0.000 A 
ATOM     23  C   UNL     1      -1.100  12.222  17.874  0.00  0.00    +0.000 A 
ATOM     24  C   UNL     1      -0.667  12.124  19.214  0.00  0.00    +0.000 A 
BRANCH  24  25
ATOM     25  O   UNL     1       0.105  13.131  19.751  0.00  0.00    +0.000 OA
BRANCH  25  26
ATOM     26  C   UNL     1      -0.637  14.339  20.008  0.00  0.00    +0.000 C 
BRANCH  26  27
ATOM     27  C   UNL     1       0.261  15.580  20.028  0.00  0.00    +0.000 C 
BRANCH  27  28
ATOM     28  C   UNL     1       0.954  15.740  18.667  0.00  0.00    +0.000 C 
BRANCH  28  29
ATOM     29  C   UNL     1       2.420  16.152  18.792  0.00  0.00    +0.000 C 
BRANCH  29  30
ATOM     30  C   UNL     1       3.286  15.439  17.745  0.00  0.00    +0.000 C 
BRANCH  30  31
ATOM     31  C   UNL     1       4.333  14.537  18.402  0.00  0.00    +0.000 C 
BRANCH  31  32
ATOM     32  N   UNL     1       5.670  15.076  18.294  0.00  0.00    +0.000 N 
ATOM     33  C   UNL     1       6.736  14.480  17.686  0.00  0.00    +0.000 A 
ATOM     34  C   UNL     1       7.769  15.372  17.821  0.00  0.00    +0.000 A 
ATOM     35  N   UNL     1       7.356  16.502  18.488  0.00  0.00    +0.000 NA
ATOM     36  C   UNL     1       6.084  16.291  18.757  0.00  0.00    +0.000 A 
ENDBRANCH  31  32
ENDBRANCH  30  31
ENDBRANCH  29  30
ENDBRANCH  28  29
ENDBRANCH  27  28
ENDBRANCH  26  27
ENDBRANCH  25  26
ENDBRANCH  24  25
ENDBRANCH   6  19
TORSDOF 11
ENDMDL
MODEL 6
REMARK VINA RESULT:      -8.6      5.364     10.792
REMARK  Name = 
REMARK  12 active torsions:
REMARK  status: ('A' for Active; 'I' for Inactive)
REMARK    1  A    between atoms: C_1  and  C_2
REMARK    2  A    between atoms: C_5  and  C_6
REMARK    3  A    between atoms: C_9  and  C_10
REMARK    4  A    between atoms: N_18  and  C_19
REMARK    5  A    between atoms: C_24  and  O_25
REMARK    6  A    between atoms: O_25  and  C_26
REMARK    7  A    between atoms: C_26  and  C_27
REMARK    8  A    between atoms: C_27  and  C_28
REMARK    9  A    between atoms: C_28  and  C_29
REMARK   10  A    between atoms: C_29  and  C_30
REMARK   11  A    between atoms: C_30  and  C_31
REMARK   12  A    between atoms: C_31  and  N_32
REMARK                            x       y       z     vdW  Elec       q    Type
REMARK                         _______ _______ _______ _____ _____    ______ ____
ROOT
ATOM      1  C   UNL     1      -1.473  11.672  23.009  0.00  0.00    +0.000 C 
ATOM      2  C   UNL     1      -0.452  10.717  22.531  0.00  0.00    +0.000 A 
ATOM      3  N   UNL     1       0.248   9.972  23.363  0.00  0.00    +0.000 NA
ATOM      4  N   UNL     1       0.947   9.058  22.646  0.00  0.00    +0.000 NA
ATOM      5  C   UNL     1       0.712   9.250  21.362  0.00  0.00    +0.000 A 
ATOM      6  N   UNL     1      -0.207  10.319  21.221  0.00  0.00    +0.000 N 
ENDROOT
BRANCH   5   7
ATOM      7  C   UNL     1       1.319   8.404  20.314  0.00  0.00    +0.000 A 
ATOM      8  C   UNL     1       1.715   8.977  19.101  0.00  0.00    +0.000 A 
ATOM      9  C   UNL     1       2.464   8.246  18.160  0.00  0.00    +0.000 A 
ATOM     10  C   UNL     1       2.869   6.924  18.411  0.00  0.00    +0.000 A 
ATOM     11  C   UNL     1       2.394   6.343  19.595  0.00  0.00    +0.000 A 
ATOM     12  C   UNL     1       1.575   7.041  20.491  0.00  0.00    +0.000 A 
BRANCH  10  13
ATOM     13  C   UNL     1       3.746   6.173  17.468  0.00  0.00    +0.000 A 
ATOM     14  C   UNL     1       3.716   4.767  17.375  0.00  0.00    +0.000 A 
ATOM     15  C   UNL     1       4.579   4.067  16.521  0.00  0.00    +0.000 A 
ATOM     16  C   UNL     1       5.480   4.758  15.718  0.00  0.00    +0.000 A 
ATOM     17  C   UNL     1       5.510   6.146  15.761  0.00  0.00    +0.000 A 
ATOM     18  C   UNL     1       4.657   6.840  16.625  0.00  0.00    +0.000 A 
ENDBRANCH  10  13
ENDBRANCH   5   7
BRANCH   6  19
ATOM     19  C   UNL     1      -0.798  10.795  19.996  0.00  0.00    +0.000 A 
ATOM     20  C   UNL     1      -1.646   9.901  19.305  0.00  0.00    +0.000 A 
ATOM     21  C   UNL     1      -2.003  10.109  17.971  0.00  0.00    +0.000 A 
ATOM     22  C   UNL     1      -1.595  11.262  17.330  0.00  0.00    +0.000 A 
ATOM     23  C   UNL     1      -0.873  12.218  18.040  0.00  0.00    +0.000 A 
ATOM     24  C   UNL     1      -0.484  12.025  19.383  0.00  0.00    +0.000 A 
BRANCH  24  25
ATOM     25  O   UNL     1       0.286  12.980  20.009  0.00  0.00    +0.000 OA
BRANCH  25  26
ATOM     26  C   UNL     1      -0.451  14.173  20.343  0.00  0.00    +0.000 C 
BRANCH  26  27
ATOM     27  C   UNL     1       0.143  14.904  21.552  0.00  0.00    +0.000 C 
BRANCH  27  28
ATOM     28  C   UNL     1      -0.880  14.925  22.698  0.00  0.00    +0.000 C 
BRANCH  28  29
ATOM     29  C   UNL     1      -2.094  15.802  22.394  0.00  0.00    +0.000 C 
BRANCH  29  30
ATOM     30  C   UNL     1      -2.972  15.981  23.639  0.00  0.00    +0.000 C 
BRANCH  30  31
ATOM     31  C   UNL     1      -2.963  14.728  24.518  0.00  0.00    +0.000 C 
BRANCH  31  32
ATOM     32  N   UNL     1      -4.139  13.909  24.323  0.00  0.00    +0.000 N 
ATOM     33  C   UNL     1      -5.258  14.257  23.623  0.00  0.00    +0.000 A 
ATOM     34  C   UNL     1      -6.080  13.162  23.700  0.00  0.00    +0.000 A 
ATOM     35  N   UNL     1      -5.485  12.151  24.420  0.00  0.00    +0.000 NA
ATOM     36  C   UNL     1      -4.314  12.636  24.779  0.00  0.00    +0.000 A 
ENDBRANCH  31  32
ENDBRANCH  30  31
ENDBRANCH  29  30
ENDBRANCH  28  29
ENDBRANCH  27  28
ENDBRANCH  26  27
ENDBRANCH  25  26
ENDBRANCH  24  25
ENDBRANCH   6  19
TORSDOF 11
ENDMDL
MODEL 7
REMARK VINA RESULT:      -8.6      5.477     11.049
REMARK  Name = 
REMARK  12 active torsions:
REMARK  status: ('A' for Active; 'I' for Inactive)
REMARK    1  A    between atoms: C_1  and  C_2
REMARK    2  A    between atoms: C_5  and  C_6
REMARK    3  A    between atoms: C_9  and  C_10
REMARK    4  A    between atoms: N_18  and  C_19
REMARK    5  A    between atoms: C_24  and  O_25
REMARK    6  A    between atoms: O_25  and  C_26
REMARK    7  A    between atoms: C_26  and  C_27
REMARK    8  A    between atoms: C_27  and  C_28
REMARK    9  A    between atoms: C_28  and  C_29
REMARK   10  A    between atoms: C_29  and  C_30
REMARK   11  A    between atoms: C_30  and  C_31
REMARK   12  A    between atoms: C_31  and  N_32
REMARK                            x       y       z     vdW  Elec       q    Type
REMARK                         _______ _______ _______ _____ _____    ______ ____
ROOT
ATOM      1  C   UNL     1      -1.540  11.783  23.016  0.00  0.00    +0.000 C 
ATOM      2  C   UNL     1      -0.508  10.833  22.549  0.00  0.00    +0.000 A 
ATOM      3  N   UNL     1       0.211  10.117  23.389  0.00  0.00    +0.000 NA
ATOM      4  N   UNL     1       0.916   9.198  22.685  0.00  0.00    +0.000 NA
ATOM      5  C   UNL     1       0.667   9.359  21.400  0.00  0.00    +0.000 A 
ATOM      6  N   UNL     1      -0.270  10.411  21.245  0.00  0.00    +0.000 N 
ENDROOT
BRANCH   5   7
ATOM      7  C   UNL     1       1.276   8.500  20.364  0.00  0.00    +0.000 A 
ATOM      8  C   UNL     1       1.718   9.065  19.164  0.00  0.00    +0.000 A 
ATOM      9  C   UNL     1       2.470   8.316  18.239  0.00  0.00    +0.000 A 
ATOM     10  C   UNL     1       2.832   6.983  18.495  0.00  0.00    +0.000 A 
ATOM     11  C   UNL     1       2.313   6.412  19.666  0.00  0.00    +0.000 A 
ATOM     12  C   UNL     1       1.491   7.130  20.543  0.00  0.00    +0.000 A 
BRANCH  10  13
ATOM     13  C   UNL     1       3.712   6.211  17.572  0.00  0.00    +0.000 A 
ATOM     14  C   UNL     1       4.614   6.843  16.693  0.00  0.00    +0.000 A 
ATOM     15  C   UNL     1       5.401   6.110  15.795  0.00  0.00    +0.000 A 
ATOM     16  C   UNL     1       5.326   4.722  15.769  0.00  0.00    +0.000 A 
ATOM     17  C   UNL     1       4.472   4.067  16.648  0.00  0.00    +0.000 A 
ATOM     18  C   UNL     1       3.677   4.802  17.533  0.00  0.00    +0.000 A 
ENDBRANCH  10  13
ENDBRANCH   5   7
BRANCH   6  19
ATOM     19  C   UNL     1      -0.879  10.851  20.016  0.00  0.00    +0.000 A 
ATOM     20  C   UNL     1      -1.819   9.982  19.420  0.00  0.00    +0.000 A 
ATOM     21  C   UNL     1      -2.220  10.132  18.090  0.00  0.00    +0.000 A 
ATOM     22  C   UNL     1      -1.759  11.208  17.359  0.00  0.00    +0.000 A 
ATOM     23  C   UNL     1      -0.939  12.150  17.974  0.00  0.00    +0.000 A 
ATOM     24  C   UNL     1      -0.505  12.013  19.310  0.00  0.00    +0.000 A 
BRANCH  24  25
ATOM     25  O   UNL     1       0.359  12.946  19.840  0.00  0.00    +0.000 OA
BRANCH  25  26
ATOM     26  C   UNL     1      -0.182  14.282  19.846  0.00  0.00    +0.000 C 
BRANCH  26  27
ATOM     27  C   UNL     1      -0.929  14.602  21.145  0.00  0.00    +0.000 C 
BRANCH  27  28
ATOM     28  C   UNL     1      -2.182  15.431  20.831  0.00  0.00    +0.000 C 
BRANCH  28  29
ATOM     29  C   UNL     1      -3.451  14.849  21.453  0.00  0.00    +0.000 C 
BRANCH  29  30
ATOM     30  C   UNL     1      -4.268  15.936  22.163  0.00  0.00    +0.000 C 
BRANCH  30  31
ATOM     31  C   UNL     1      -4.492  15.597  23.639  0.00  0.00    +0.000 C 
BRANCH  31  32
ATOM     32  N   UNL     1      -5.167  14.330  23.817  0.00  0.00    +0.000 N 
ATOM     33  C   UNL     1      -6.484  14.075  23.568  0.00  0.00    +0.000 A 
ATOM     34  C   UNL     1      -6.651  12.747  23.863  0.00  0.00    +0.000 A 
ATOM     35  N   UNL     1      -5.465  12.183  24.277  0.00  0.00    +0.000 NA
ATOM     36  C   UNL     1      -4.591  13.167  24.235  0.00  0.00    +0.000 A 
ENDBRANCH  31  32
ENDBRANCH  30  31
ENDBRANCH  29  30
ENDBRANCH  28  29
ENDBRANCH  27  28
ENDBRANCH  26  27
ENDBRANCH  25  26
ENDBRANCH  24  25
ENDBRANCH   6  19
TORSDOF 11
ENDMDL
MODEL 8
REMARK VINA RESULT:      -8.5      5.536     10.825
REMARK  Name = 
REMARK  12 active torsions:
REMARK  status: ('A' for Active; 'I' for Inactive)
REMARK    1  A    between atoms: C_1  and  C_2
REMARK    2  A    between atoms: C_5  and  C_6
REMARK    3  A    between atoms: C_9  and  C_10
REMARK    4  A    between atoms: N_18  and  C_19
REMARK    5  A    between atoms: C_24  and  O_25
REMARK    6  A    between atoms: O_25  and  C_26
REMARK    7  A    between atoms: C_26  and  C_27
REMARK    8  A    between atoms: C_27  and  C_28
REMARK    9  A    between atoms: C_28  and  C_29
REMARK   10  A    between atoms: C_29  and  C_30
REMARK   11  A    between atoms: C_30  and  C_31
REMARK   12  A    between atoms: C_31  and  N_32
REMARK                            x       y       z     vdW  Elec       q    Type
REMARK                         _______ _______ _______ _____ _____    ______ ____
ROOT
ATOM      1  C   UNL     1      -1.528  13.099  22.744  0.00  0.00    +0.000 C 
ATOM      2  C   UNL     1      -0.809  11.819  22.578  0.00  0.00    +0.000 A 
ATOM      3  N   UNL     1      -1.025  10.790  23.373  0.00  0.00    +0.000 NA
ATOM      4  N   UNL     1      -0.391   9.706  22.865  0.00  0.00    +0.000 NA
ATOM      5  C   UNL     1       0.252  10.060  21.769  0.00  0.00    +0.000 A 
ATOM      6  N   UNL     1       0.008  11.434  21.521  0.00  0.00    +0.000 N 
ENDROOT
BRANCH   5   7
ATOM      7  C   UNL     1       1.036   9.097  20.967  0.00  0.00    +0.000 A 
ATOM      8  C   UNL     1       1.387   7.860  21.516  0.00  0.00    +0.000 A 
ATOM      9  C   UNL     1       1.966   6.850  20.725  0.00  0.00    +0.000 A 
ATOM     10  C   UNL     1       2.186   7.031  19.348  0.00  0.00    +0.000 A 
ATOM     11  C   UNL     1       1.901   8.304  18.836  0.00  0.00    +0.000 A 
ATOM     12  C   UNL     1       1.408   9.338  19.642  0.00  0.00    +0.000 A 
BRANCH  10  13
ATOM     13  C   UNL     1       2.703   5.936  18.480  0.00  0.00    +0.000 A 
ATOM     14  C   UNL     1       3.939   6.031  17.808  0.00  0.00    +0.000 A 
ATOM     15  C   UNL     1       4.393   5.017  16.955  0.00  0.00    +0.000 A 
ATOM     16  C   UNL     1       3.634   3.867  16.769  0.00  0.00    +0.000 A 
ATOM     17  C   UNL     1       2.428   3.726  17.445  0.00  0.00    +0.000 A 
ATOM     18  C   UNL     1       1.971   4.748  18.283  0.00  0.00    +0.000 A 
ENDBRANCH  10  13
ENDBRANCH   5   7
BRANCH   6  19
ATOM     19  C   UNL     1       0.447  12.197  20.380  0.00  0.00    +0.000 A 
ATOM     20  C   UNL     1       1.745  12.752  20.442  0.00  0.00    +0.000 A 
ATOM     21  C   UNL     1       2.152  13.766  19.572  0.00  0.00    +0.000 A 
ATOM     22  C   UNL     1       1.303  14.180  18.565  0.00  0.00    +0.000 A 
ATOM     23  C   UNL     1       0.074  13.546  18.406  0.00  0.00    +0.000 A 
ATOM     24  C   UNL     1      -0.370  12.532  19.281  0.00  0.00    +0.000 A 
BRANCH  24  25
ATOM     25  O   UNL     1      -1.625  11.991  19.109  0.00  0.00    +0.000 OA
BRANCH  25  26
ATOM     26  C   UNL     1      -1.603  10.566  18.887  0.00  0.00    +0.000 C 
BRANCH  26  27
ATOM     27  C   UNL     1      -1.677  10.208  17.399  0.00  0.00    +0.000 C 
BRANCH  27  28
ATOM     28  C   UNL     1      -2.540  11.241  16.660  0.00  0.00    +0.000 C 
BRANCH  28  29
ATOM     29  C   UNL     1      -3.972  10.760  16.428  0.00  0.00    +0.000 C 
BRANCH  29  30
ATOM     30  C   UNL     1      -4.990  11.782  16.951  0.00  0.00    +0.000 C 
BRANCH  30  31
ATOM     31  C   UNL     1      -5.550  11.369  18.314  0.00  0.00    +0.000 C 
BRANCH  31  32
ATOM     32  N   UNL     1      -5.517  12.450  19.274  0.00  0.00    +0.000 N 
ATOM     33  C   UNL     1      -4.761  12.499  20.409  0.00  0.00    +0.000 A 
ATOM     34  C   UNL     1      -5.049  13.713  20.977  0.00  0.00    +0.000 A 
ATOM     35  N   UNL     1      -5.955  14.411  20.210  0.00  0.00    +0.000 NA
ATOM     36  C   UNL     1      -6.214  13.619  19.190  0.00  0.00    +0.000 A 
ENDBRANCH  31  32
ENDBRANCH  30  31
ENDBRANCH  29  30
ENDBRANCH  28  29
ENDBRANCH  27  28
ENDBRANCH  26  27
ENDBRANCH  25  26
ENDBRANCH  24  25
ENDBRANCH   6  19
TORSDOF 11
ENDMDL
MODEL 9
REMARK VINA RESULT:      -8.5      0.845      1.516
REMARK  Name = 
REMARK  12 active torsions:
REMARK  status: ('A' for Active; 'I' for Inactive)
REMARK    1  A    between atoms: C_1  and  C_2
REMARK    2  A    between atoms: C_5  and  C_6
REMARK    3  A    between atoms: C_9  and  C_10
REMARK    4  A    between atoms: N_18  and  C_19
REMARK    5  A    between atoms: C_24  and  O_25
REMARK    6  A    between atoms: O_25  and  C_26
REMARK    7  A    between atoms: C_26  and  C_27
REMARK    8  A    between atoms: C_27  and  C_28
REMARK    9  A    between atoms: C_28  and  C_29
REMARK   10  A    between atoms: C_29  and  C_30
REMARK   11  A    between atoms: C_30  and  C_31
REMARK   12  A    between atoms: C_31  and  N_32
REMARK                            x       y       z     vdW  Elec       q    Type
REMARK                         _______ _______ _______ _____ _____    ______ ____
ROOT
ATOM      1  C   UNL     1       6.037   4.284  15.189  0.00  0.00    +0.000 C 
ATOM      2  C   UNL     1       5.332   5.434  15.794  0.00  0.00    +0.000 A 
ATOM      3  N   UNL     1       5.274   6.607  15.197  0.00  0.00    +0.000 NA
ATOM      4  N   UNL     1       4.403   7.396  15.872  0.00  0.00    +0.000 NA
ATOM      5  C   UNL     1       3.938   6.730  16.912  0.00  0.00    +0.000 A 
ATOM      6  N   UNL     1       4.504   5.431  16.910  0.00  0.00    +0.000 N 
ENDROOT
BRANCH   5   7
ATOM      7  C   UNL     1       2.953   7.313  17.846  0.00  0.00    +0.000 A 
ATOM      8  C   UNL     1       2.669   6.663  19.051  0.00  0.00    +0.000 A 
ATOM      9  C   UNL     1       1.884   7.278  20.044  0.00  0.00    +0.000 A 
ATOM     10  C   UNL     1       1.379   8.580  19.879  0.00  0.00    +0.000 A 
ATOM     11  C   UNL     1       1.609   9.181  18.634  0.00  0.00    +0.000 A 
ATOM     12  C   UNL     1       2.314   8.534  17.612  0.00  0.00    +0.000 A 
BRANCH  10  13
ATOM     13  C   UNL     1       0.633   9.282  20.961  0.00  0.00    +0.000 A 
ATOM     14  C   UNL     1      -0.193  10.394  20.703  0.00  0.00    +0.000 A 
ATOM     15  C   UNL     1      -0.852  11.077  21.734  0.00  0.00    +0.000 A 
ATOM     16  C   UNL     1      -0.722  10.650  23.050  0.00  0.00    +0.000 A 
ATOM     17  C   UNL     1       0.057   9.535  23.334  0.00  0.00    +0.000 A 
ATOM     18  C   UNL     1       0.725   8.866  22.305  0.00  0.00    +0.000 A 
ENDBRANCH  10  13
ENDBRANCH   5   7
BRANCH   6  19
ATOM     19  C   UNL     1       4.197   4.355  17.818  0.00  0.00    +0.000 A 
ATOM     20  C   UNL     1       3.389   3.308  17.321  0.00  0.00    +0.000 A 
ATOM     21  C   UNL     1       2.756   2.399  18.172  0.00  0.00    +0.000 A 
ATOM     22  C   UNL     1       2.992   2.464  19.531  0.00  0.00    +0.000 A 
ATOM     23  C   UNL     1       3.893   3.404  20.023  0.00  0.00    +0.000 A 
ATOM     24  C   UNL     1       4.532   4.345  19.187  0.00  0.00    +0.000 A 
BRANCH  24  25
ATOM     25  O   UNL     1       5.362   5.292  19.746  0.00  0.00    +0.000 OA
BRANCH  25  26
ATOM     26  C   UNL     1       6.733   5.170  19.315  0.00  0.00    +0.000 C 
BRANCH  26  27
ATOM     27  C   UNL     1       7.103   6.208  18.251  0.00  0.00    +0.000 C 
BRANCH  27  28
ATOM     28  C   UNL     1       8.155   7.174  18.814  0.00  0.00    +0.000 C 
BRANCH  28  29
ATOM     29  C   UNL     1       8.628   8.202  17.786  0.00  0.00    +0.000 C 
BRANCH  29  30
ATOM     30  C   UNL     1       8.216   9.622  18.195  0.00  0.00    +0.000 C 
BRANCH  30  31
ATOM     31  C   UNL     1       9.276  10.281  19.080  0.00  0.00    +0.000 C 
BRANCH  31  32
ATOM     32  N   UNL     1       9.899  11.419  18.440  0.00  0.00    +0.000 N 
ATOM     33  C   UNL     1       9.258  12.422  17.774  0.00  0.00    +0.000 A 
ATOM     34  C   UNL     1      10.254  13.272  17.366  0.00  0.00    +0.000 A 
ATOM     35  N   UNL     1      11.486  12.816  17.775  0.00  0.00    +0.000 NA
ATOM     36  C   UNL     1      11.235  11.696  18.422  0.00  0.00    +0.000 A 
ENDBRANCH  31  32
ENDBRANCH  30  31
ENDBRANCH  29  30
ENDBRANCH  28  29
ENDBRANCH  27  28
ENDBRANCH  26  27
ENDBRANCH  25  26
ENDBRANCH  24  25
ENDBRANCH   6  19
TORSDOF 11
ENDMDL
