MODEL 1
REMARK VINA RESULT:      -7.4      0.000      0.000
REMARK  Name = 
REMARK  8 active torsions:
REMARK  status: ('A' for Active; 'I' for Inactive)
REMARK    1  A    between atoms: C_1  and  O_2
REMARK    2  A    between atoms: O_2  and  C_3
REMARK    3  A    between atoms: C_3  and  C_5
REMARK    4  A    between atoms: C_5  and  N_6
REMARK    5  A    between atoms: C_5  and  C_15
REMARK    6  A    between atoms: N_6  and  C_7
REMARK    7  A    between atoms: C_7  and  C_8
REMARK    8  A    between atoms: C_20  and  C_21
REMARK                            x       y       z     vdW  Elec       q    Type
REMARK                         _______ _______ _______ _____ _____    ______ ____
ROOT
ATOM      1  C   UNL     1       5.031   4.367  18.424  0.00  0.00    +0.000 C 
ENDROOT
BRANCH   1   2
ATOM      2  C   UNL     1       4.161   5.628  18.471  0.00  0.00    +0.000 A 
ATOM      3  C   UNL     1       3.346   5.841  19.606  0.00  0.00    +0.000 A 
ATOM      4  C   UNL     1       2.454   6.914  19.671  0.00  0.00    +0.000 A 
ATOM      5  C   UNL     1       2.361   7.803  18.611  0.00  0.00    +0.000 A 
ATOM      6  C   UNL     1       3.184   7.640  17.500  0.00  0.00    +0.000 A 
ATOM      7  C   UNL     1       4.096   6.567  17.417  0.00  0.00    +0.000 A 
ATOM      8  C   UNL     1       4.995   6.516  16.210  0.00  0.00    +0.000 C 
ENDBRANCH   1   2
BRANCH   1   9
ATOM      9  C   UNL     1       6.520   4.759  18.220  0.00  0.00    +0.000 C 
ATOM     10  O   UNL     1       7.247   4.311  17.337  0.00  0.00    +0.000 OA
BRANCH   9  12
ATOM     11  C   UNL     1       7.885   6.597  18.715  0.00  0.00    +0.000 C 
ATOM     12  O   UNL     1       6.929   5.641  19.180  0.00  0.00    +0.000 OA
ENDBRANCH   9  12
ENDBRANCH   1   9
BRANCH   1  13
ATOM     13  N   UNL     1       4.574   3.423  17.365  0.00  0.00    +0.000 NA
ATOM     14  H   UNL     1       5.348   3.249  16.719  0.00  0.00    +0.000 HD
BRANCH  13  15
ATOM     15  C   UNL     1       4.155   2.119  17.924  0.00  0.00    +0.000 C 
BRANCH  15  16
ATOM     16  C   UNL     1       4.081   2.142  19.464  0.00  0.00    +0.000 C 
ATOM     17  O   UNL     1       5.078   2.025  20.182  0.00  0.00    +0.000 OA
ATOM     18  N   UNL     1       2.823   2.364  20.001  0.00  0.00    +0.000 N 
ATOM     19  C   UNL     1       1.568   2.533  19.294  0.00  0.00    +0.000 C 
ATOM     20  C   UNL     1       0.801   3.497  20.180  0.00  0.00    +0.000 C 
ATOM     21  C   UNL     1       1.214   3.085  21.589  0.00  0.00    +0.000 C 
ATOM     22  C   UNL     1       2.633   2.538  21.432  0.00  0.00    +0.000 C 
ENDBRANCH  15  16
ENDBRANCH  13  15
ENDBRANCH   1  13
TORSDOF 6
ENDMDL
MODEL 2
REMARK VINA RESULT:      -7.3      2.562      5.219
REMARK  Name = 
REMARK  8 active torsions:
REMARK  status: ('A' for Active; 'I' for Inactive)
REMARK    1  A    between atoms: C_1  and  O_2
REMARK    2  A    between atoms: O_2  and  C_3
REMARK    3  A    between atoms: C_3  and  C_5
REMARK    4  A    between atoms: C_5  and  N_6
REMARK    5  A    between atoms: C_5  and  C_15
REMARK    6  A    between atoms: N_6  and  C_7
REMARK    7  A    between atoms: C_7  and  C_8
REMARK    8  A    between atoms: C_20  and  C_21
REMARK                            x       y       z     vdW  Elec       q    Type
REMARK                         _______ _______ _______ _____ _____    ______ ____
ROOT
ATOM      1  C   UNL     1       3.978   4.754  18.178  0.00  0.00    +0.000 C 
ENDROOT
BRANCH   1   2
ATOM      2  C   UNL     1       3.116   5.909  18.698  0.00  0.00    +0.000 A 
ATOM      3  C   UNL     1       3.093   7.116  17.962  0.00  0.00    +0.000 A 
ATOM      4  C   UNL     1       2.411   8.241  18.429  0.00  0.00    +0.000 A 
ATOM      5  C   UNL     1       1.730   8.187  19.636  0.00  0.00    +0.000 A 
ATOM      6  C   UNL     1       1.701   6.998  20.359  0.00  0.00    +0.000 A 
ATOM      7  C   UNL     1       2.378   5.848  19.902  0.00  0.00    +0.000 A 
ATOM      8  C   UNL     1       2.228   4.588  20.714  0.00  0.00    +0.000 C 
ENDBRANCH   1   2
BRANCH   1   9
ATOM      9  C   UNL     1       5.113   4.442  19.193  0.00  0.00    +0.000 C 
ATOM     10  O   UNL     1       5.363   3.327  19.642  0.00  0.00    +0.000 OA
BRANCH   9  12
ATOM     11  C   UNL     1       7.183   5.527  19.334  0.00  0.00    +0.000 C 
ATOM     12  O   UNL     1       5.772   5.583  19.554  0.00  0.00    +0.000 OA
ENDBRANCH   9  12
ENDBRANCH   1   9
BRANCH   1  13
ATOM     13  N   UNL     1       4.533   5.047  16.826  0.00  0.00    +0.000 NA
ATOM     14  H   UNL     1       5.081   5.910  16.872  0.00  0.00    +0.000 HD
BRANCH  13  15
ATOM     15  C   UNL     1       5.430   3.973  16.347  0.00  0.00    +0.000 C 
BRANCH  15  16
ATOM     16  C   UNL     1       6.603   4.522  15.512  0.00  0.00    +0.000 C 
ATOM     17  O   UNL     1       7.628   4.983  16.022  0.00  0.00    +0.000 OA
ATOM     18  N   UNL     1       6.466   4.411  14.137  0.00  0.00    +0.000 N 
ATOM     19  C   UNL     1       5.337   3.883  13.393  0.00  0.00    +0.000 C 
ATOM     20  C   UNL     1       5.991   3.258  12.174  0.00  0.00    +0.000 C 
ATOM     21  C   UNL     1       7.152   4.201  11.875  0.00  0.00    +0.000 C 
ATOM     22  C   UNL     1       7.551   4.768  13.238  0.00  0.00    +0.000 C 
ENDBRANCH  15  16
ENDBRANCH  13  15
ENDBRANCH   1  13
TORSDOF 6
ENDMDL
MODEL 3
REMARK VINA RESULT:      -7.2      2.227      4.728
REMARK  Name = 
REMARK  8 active torsions:
REMARK  status: ('A' for Active; 'I' for Inactive)
REMARK    1  A    between atoms: C_1  and  O_2
REMARK    2  A    between atoms: O_2  and  C_3
REMARK    3  A    between atoms: C_3  and  C_5
REMARK    4  A    between atoms: C_5  and  N_6
REMARK    5  A    between atoms: C_5  and  C_15
REMARK    6  A    between atoms: N_6  and  C_7
REMARK    7  A    between atoms: C_7  and  C_8
REMARK    8  A    between atoms: C_20  and  C_21
REMARK                            x       y       z     vdW  Elec       q    Type
REMARK                         _______ _______ _______ _____ _____    ______ ____
ROOT
ATOM      1  C   UNL     1       2.767   5.183  18.899  0.00  0.00    +0.000 C 
ENDROOT
BRANCH   1   2
ATOM      2  C   UNL     1       2.255   6.530  19.421  0.00  0.00    +0.000 A 
ATOM      3  C   UNL     1       1.644   6.569  20.695  0.00  0.00    +0.000 A 
ATOM      4  C   UNL     1       1.064   7.739  21.190  0.00  0.00    +0.000 A 
ATOM      5  C   UNL     1       1.088   8.899  20.429  0.00  0.00    +0.000 A 
ATOM      6  C   UNL     1       1.723   8.898  19.190  0.00  0.00    +0.000 A 
ATOM      7  C   UNL     1       2.319   7.729  18.675  0.00  0.00    +0.000 A 
ATOM      8  C   UNL     1       3.045   7.844  17.360  0.00  0.00    +0.000 C 
ENDBRANCH   1   2
BRANCH   1   9
ATOM      9  C   UNL     1       1.579   4.337  18.363  0.00  0.00    +0.000 C 
ATOM     10  O   UNL     1       1.115   4.423  17.229  0.00  0.00    +0.000 OA
BRANCH   9  12
ATOM     11  C   UNL     1       0.944   2.152  18.916  0.00  0.00    +0.000 C 
ATOM     12  O   UNL     1       1.090   3.512  19.335  0.00  0.00    +0.000 OA
ENDBRANCH   9  12
ENDBRANCH   1   9
BRANCH   1  13
ATOM     13  N   UNL     1       3.525   4.441  19.946  0.00  0.00    +0.000 NA
ATOM     14  H   UNL     1       2.897   3.775  20.401  0.00  0.00    +0.000 HD
BRANCH  13  15
ATOM     15  C   UNL     1       4.654   3.674  19.376  0.00  0.00    +0.000 C 
BRANCH  15  16
ATOM     16  C   UNL     1       5.785   4.590  18.868  0.00  0.00    +0.000 C 
ATOM     17  O   UNL     1       6.561   5.176  19.628  0.00  0.00    +0.000 OA
ATOM     18  N   UNL     1       5.919   4.673  17.491  0.00  0.00    +0.000 N 
ATOM     19  C   UNL     1       5.100   4.037  16.476  0.00  0.00    +0.000 C 
ATOM     20  C   UNL     1       6.088   3.773  15.354  0.00  0.00    +0.000 C 
ATOM     21  C   UNL     1       7.017   4.981  15.411  0.00  0.00    +0.000 C 
ATOM     22  C   UNL     1       7.023   5.397  16.881  0.00  0.00    +0.000 C 
ENDBRANCH  15  16
ENDBRANCH  13  15
ENDBRANCH   1  13
TORSDOF 6
ENDMDL
MODEL 4
REMARK VINA RESULT:      -7.2      2.880      5.445
REMARK  Name = 
REMARK  8 active torsions:
REMARK  status: ('A' for Active; 'I' for Inactive)
REMARK    1  A    between atoms: C_1  and  O_2
REMARK    2  A    between atoms: O_2  and  C_3
REMARK    3  A    between atoms: C_3  and  C_5
REMARK    4  A    between atoms: C_5  and  N_6
REMARK    5  A    between atoms: C_5  and  C_15
REMARK    6  A    between atoms: N_6  and  C_7
REMARK    7  A    between atoms: C_7  and  C_8
REMARK    8  A    between atoms: C_20  and  C_21
REMARK                            x       y       z     vdW  Elec       q    Type
REMARK                         _______ _______ _______ _____ _____    ______ ____
ROOT
ATOM      1  C   UNL     1       3.681   4.379  18.267  0.00  0.00    +0.000 C 
ENDROOT
BRANCH   1   2
ATOM      2  C   UNL     1       4.889   4.505  17.331  0.00  0.00    +0.000 A 
ATOM      3  C   UNL     1       4.710   4.211  15.960  0.00  0.00    +0.000 A 
ATOM      4  C   UNL     1       5.786   4.206  15.069  0.00  0.00    +0.000 A 
ATOM      5  C   UNL     1       7.063   4.502  15.524  0.00  0.00    +0.000 A 
ATOM      6  C   UNL     1       7.258   4.837  16.861  0.00  0.00    +0.000 A 
ATOM      7  C   UNL     1       6.184   4.854  17.775  0.00  0.00    +0.000 A 
ATOM      8  C   UNL     1       6.480   5.300  19.183  0.00  0.00    +0.000 C 
ENDBRANCH   1   2
BRANCH   1   9
ATOM      9  C   UNL     1       3.005   2.994  18.074  0.00  0.00    +0.000 C 
ATOM     10  O   UNL     1       3.590   1.915  18.133  0.00  0.00    +0.000 OA
BRANCH   9  12
ATOM     11  C   UNL     1       0.813   2.534  18.758  0.00  0.00    +0.000 C 
ATOM     12  O   UNL     1       1.677   3.134  17.789  0.00  0.00    +0.000 OA
ENDBRANCH   9  12
ENDBRANCH   1   9
BRANCH   1  13
ATOM     13  N   UNL     1       2.706   5.486  18.057  0.00  0.00    +0.000 NA
ATOM     14  H   UNL     1       1.778   5.086  17.898  0.00  0.00    +0.000 HD
BRANCH  13  15
ATOM     15  C   UNL     1       2.614   6.378  19.233  0.00  0.00    +0.000 C 
BRANCH  15  16
ATOM     16  C   UNL     1       2.203   7.813  18.846  0.00  0.00    +0.000 C 
ATOM     17  O   UNL     1       2.414   8.289  17.728  0.00  0.00    +0.000 OA
ATOM     18  N   UNL     1       1.520   8.525  19.820  0.00  0.00    +0.000 N 
ATOM     19  C   UNL     1       1.187   8.100  21.167  0.00  0.00    +0.000 C 
ATOM     20  C   UNL     1      -0.135   8.798  21.430  0.00  0.00    +0.000 C 
ATOM     21  C   UNL     1       0.024  10.135  20.713  0.00  0.00    +0.000 C 
ATOM     22  C   UNL     1       0.962   9.838  19.543  0.00  0.00    +0.000 C 
ENDBRANCH  15  16
ENDBRANCH  13  15
ENDBRANCH   1  13
TORSDOF 6
ENDMDL
MODEL 5
REMARK VINA RESULT:      -7.1      2.853      5.887
REMARK  Name = 
REMARK  8 active torsions:
REMARK  status: ('A' for Active; 'I' for Inactive)
REMARK    1  A    between atoms: C_1  and  O_2
REMARK    2  A    between atoms: O_2  and  C_3
REMARK    3  A    between atoms: C_3  and  C_5
REMARK    4  A    between atoms: C_5  and  N_6
REMARK    5  A    between atoms: C_5  and  C_15
REMARK    6  A    between atoms: N_6  and  C_7
REMARK    7  A    between atoms: C_7  and  C_8
REMARK    8  A    between atoms: C_20  and  C_21
REMARK                            x       y       z     vdW  Elec       q    Type
REMARK                         _______ _______ _______ _____ _____    ______ ____
ROOT
ATOM      1  C   UNL     1       4.682   4.265  18.030  0.00  0.00    +0.000 C 
ENDROOT
BRANCH   1   2
ATOM      2  C   UNL     1       3.352   3.618  18.433  0.00  0.00    +0.000 A 
ATOM      3  C   UNL     1       2.185   3.981  17.723  0.00  0.00    +0.000 A 
ATOM      4  C   UNL     1       0.926   3.510  18.100  0.00  0.00    +0.000 A 
ATOM      5  C   UNL     1       0.803   2.660  19.189  0.00  0.00    +0.000 A 
ATOM      6  C   UNL     1       1.941   2.253  19.879  0.00  0.00    +0.000 A 
ATOM      7  C   UNL     1       3.223   2.712  19.510  0.00  0.00    +0.000 A 
ATOM      8  C   UNL     1       4.400   2.160  20.269  0.00  0.00    +0.000 C 
ENDBRANCH   1   2
BRANCH   1   9
ATOM      9  C   UNL     1       4.856   5.620  18.769  0.00  0.00    +0.000 C 
ATOM     10  O   UNL     1       4.207   6.636  18.531  0.00  0.00    +0.000 OA
BRANCH   9  12
ATOM     11  C   UNL     1       7.171   5.607  19.127  0.00  0.00    +0.000 C 
ATOM     12  O   UNL     1       5.859   5.547  19.694  0.00  0.00    +0.000 OA
ENDBRANCH   9  12
ENDBRANCH   1   9
BRANCH   1  13
ATOM     13  N   UNL     1       4.782   4.442  16.553  0.00  0.00    +0.000 NA
ATOM     14  H   UNL     1       4.886   5.438  16.345  0.00  0.00    +0.000 HD
BRANCH  13  15
ATOM     15  C   UNL     1       5.954   3.741  15.987  0.00  0.00    +0.000 C 
BRANCH  15  16
ATOM     16  C   UNL     1       6.827   4.670  15.120  0.00  0.00    +0.000 C 
ATOM     17  O   UNL     1       7.612   5.490  15.603  0.00  0.00    +0.000 OA
ATOM     18  N   UNL     1       6.722   4.487  13.750  0.00  0.00    +0.000 N 
ATOM     19  C   UNL     1       5.863   3.561  13.037  0.00  0.00    +0.000 C 
ATOM     20  C   UNL     1       6.686   3.200  11.814  0.00  0.00    +0.000 C 
ATOM     21  C   UNL     1       7.407   4.502  11.479  0.00  0.00    +0.000 C 
ATOM     22  C   UNL     1       7.583   5.205  12.824  0.00  0.00    +0.000 C 
ENDBRANCH  15  16
ENDBRANCH  13  15
ENDBRANCH   1  13
TORSDOF 6
ENDMDL
MODEL 6
REMARK VINA RESULT:      -7.1      2.855      5.252
REMARK  Name = 
REMARK  8 active torsions:
REMARK  status: ('A' for Active; 'I' for Inactive)
REMARK    1  A    between atoms: C_1  and  O_2
REMARK    2  A    between atoms: O_2  and  C_3
REMARK    3  A    between atoms: C_3  and  C_5
REMARK    4  A    between atoms: C_5  and  N_6
REMARK    5  A    between atoms: C_5  and  C_15
REMARK    6  A    between atoms: N_6  and  C_7
REMARK    7  A    between atoms: C_7  and  C_8
REMARK    8  A    between atoms: C_20  and  C_21
REMARK                            x       y       z     vdW  Elec       q    Type
REMARK                         _______ _______ _______ _____ _____    ______ ____
ROOT
ATOM      1  C   UNL     1       4.542   5.176  18.332  0.00  0.00    +0.000 C 
ENDROOT
BRANCH   1   2
ATOM      2  C   UNL     1       5.375   5.058  17.051  0.00  0.00    +0.000 A 
ATOM      3  C   UNL     1       4.817   4.377  15.945  0.00  0.00    +0.000 A 
ATOM      4  C   UNL     1       5.556   4.143  14.784  0.00  0.00    +0.000 A 
ATOM      5  C   UNL     1       6.866   4.591  14.695  0.00  0.00    +0.000 A 
ATOM      6  C   UNL     1       7.425   5.302  15.753  0.00  0.00    +0.000 A 
ATOM      7  C   UNL     1       6.694   5.554  16.933  0.00  0.00    +0.000 A 
ATOM      8  C   UNL     1       7.356   6.394  17.992  0.00  0.00    +0.000 C 
ENDBRANCH   1   2
BRANCH   1   9
ATOM      9  C   UNL     1       4.363   3.774  18.977  0.00  0.00    +0.000 C 
ATOM     10  O   UNL     1       5.196   3.221  19.690  0.00  0.00    +0.000 OA
BRANCH   9  12
ATOM     11  C   UNL     1       3.256   1.828  18.290  0.00  0.00    +0.000 C 
ATOM     12  O   UNL     1       3.169   3.218  18.613  0.00  0.00    +0.000 OA
ENDBRANCH   9  12
ENDBRANCH   1   9
BRANCH   1  13
ATOM     13  N   UNL     1       3.223   5.819  18.071  0.00  0.00    +0.000 NA
ATOM     14  H   UNL     1       2.533   5.092  17.869  0.00  0.00    +0.000 HD
BRANCH  13  15
ATOM     15  C   UNL     1       2.737   6.585  19.240  0.00  0.00    +0.000 C 
BRANCH  15  16
ATOM     16  C   UNL     1       2.151   7.953  18.837  0.00  0.00    +0.000 C 
ATOM     17  O   UNL     1       2.245   8.410  17.695  0.00  0.00    +0.000 OA
ATOM     18  N   UNL     1       1.452   8.623  19.829  0.00  0.00    +0.000 N 
ATOM     19  C   UNL     1       1.244   8.212  21.206  0.00  0.00    +0.000 C 
ATOM     20  C   UNL     1      -0.129   8.774  21.528  0.00  0.00    +0.000 C 
ATOM     21  C   UNL     1      -0.157  10.095  20.765  0.00  0.00    +0.000 C 
ATOM     22  C   UNL     1       0.739   9.859  19.549  0.00  0.00    +0.000 C 
ENDBRANCH  15  16
ENDBRANCH  13  15
ENDBRANCH   1  13
TORSDOF 6
ENDMDL
MODEL 7
REMARK VINA RESULT:      -7.1      1.438      2.324
REMARK  Name = 
REMARK  8 active torsions:
REMARK  status: ('A' for Active; 'I' for Inactive)
REMARK    1  A    between atoms: C_1  and  O_2
REMARK    2  A    between atoms: O_2  and  C_3
REMARK    3  A    between atoms: C_3  and  C_5
REMARK    4  A    between atoms: C_5  and  N_6
REMARK    5  A    between atoms: C_5  and  C_15
REMARK    6  A    between atoms: N_6  and  C_7
REMARK    7  A    between atoms: C_7  and  C_8
REMARK    8  A    between atoms: C_20  and  C_21
REMARK                            x       y       z     vdW  Elec       q    Type
REMARK                         _______ _______ _______ _____ _____    ______ ____
ROOT
ATOM      1  C   UNL     1       3.823   5.932  18.112  0.00  0.00    +0.000 C 
ENDROOT
BRANCH   1   2
ATOM      2  C   UNL     1       2.889   7.097  18.456  0.00  0.00    +0.000 A 
ATOM      3  C   UNL     1       2.735   8.138  17.511  0.00  0.00    +0.000 A 
ATOM      4  C   UNL     1       1.982   9.278  17.799  0.00  0.00    +0.000 A 
ATOM      5  C   UNL     1       1.358   9.403  19.031  0.00  0.00    +0.000 A 
ATOM      6  C   UNL     1       1.458   8.373  19.962  0.00  0.00    +0.000 A 
ATOM      7  C   UNL     1       2.209   7.210  19.690  0.00  0.00    +0.000 A 
ATOM      8  C   UNL     1       2.198   6.120  20.728  0.00  0.00    +0.000 C 
ENDBRANCH   1   2
BRANCH   1   9
ATOM      9  C   UNL     1       5.002   6.439  17.236  0.00  0.00    +0.000 C 
ATOM     10  O   UNL     1       4.919   6.712  16.041  0.00  0.00    +0.000 OA
BRANCH   9  12
ATOM     11  C   UNL     1       7.119   7.421  17.436  0.00  0.00    +0.000 C 
ATOM     12  O   UNL     1       6.157   6.504  17.963  0.00  0.00    +0.000 OA
ENDBRANCH   9  12
ENDBRANCH   1   9
BRANCH   1  13
ATOM     13  N   UNL     1       3.091   4.823  17.436  0.00  0.00    +0.000 NA
ATOM     14  H   UNL     1       3.025   5.030  16.436  0.00  0.00    +0.000 HD
BRANCH  13  15
ATOM     15  C   UNL     1       3.789   3.527  17.580  0.00  0.00    +0.000 C 
BRANCH  15  16
ATOM     16  C   UNL     1       4.048   3.165  19.056  0.00  0.00    +0.000 C 
ATOM     17  O   UNL     1       5.161   3.255  19.580  0.00  0.00    +0.000 OA
ATOM     18  N   UNL     1       2.932   2.786  19.786  0.00  0.00    +0.000 N 
ATOM     19  C   UNL     1       1.565   2.647  19.319  0.00  0.00    +0.000 C 
ATOM     20  C   UNL     1       0.746   3.035  20.536  0.00  0.00    +0.000 C 
ATOM     21  C   UNL     1       1.563   2.488  21.701  0.00  0.00    +0.000 C 
ATOM     22  C   UNL     1       3.012   2.544  21.218  0.00  0.00    +0.000 C 
ENDBRANCH  15  16
ENDBRANCH  13  15
ENDBRANCH   1  13
TORSDOF 6
ENDMDL
MODEL 8
REMARK VINA RESULT:      -7.0      2.684      5.456
REMARK  Name = 
REMARK  8 active torsions:
REMARK  status: ('A' for Active; 'I' for Inactive)
REMARK    1  A    between atoms: C_1  and  O_2
REMARK    2  A    between atoms: O_2  and  C_3
REMARK    3  A    between atoms: C_3  and  C_5
REMARK    4  A    between atoms: C_5  and  N_6
REMARK    5  A    between atoms: C_5  and  C_15
REMARK    6  A    between atoms: N_6  and  C_7
REMARK    7  A    between atoms: C_7  and  C_8
REMARK    8  A    between atoms: C_20  and  C_21
REMARK                            x       y       z     vdW  Elec       q    Type
REMARK                         _______ _______ _______ _____ _____    ______ ____
ROOT
ATOM      1  C   UNL     1       4.148   4.813  19.120  0.00  0.00    +0.000 C 
ENDROOT
BRANCH   1   2
ATOM      2  C   UNL     1       5.102   4.756  17.922  0.00  0.00    +0.000 A 
ATOM      3  C   UNL     1       4.585   4.361  16.668  0.00  0.00    +0.000 A 
ATOM      4  C   UNL     1       5.414   4.190  15.558  0.00  0.00    +0.000 A 
ATOM      5  C   UNL     1       6.778   4.416  15.672  0.00  0.00    +0.000 A 
ATOM      6  C   UNL     1       7.307   4.847  16.885  0.00  0.00    +0.000 A 
ATOM      7  C   UNL     1       6.486   5.033  18.016  0.00  0.00    +0.000 A 
ATOM      8  C   UNL     1       7.136   5.572  19.263  0.00  0.00    +0.000 C 
ENDBRANCH   1   2
BRANCH   1   9
ATOM      9  C   UNL     1       3.924   3.384  19.686  0.00  0.00    +0.000 C 
ATOM     10  O   UNL     1       4.821   2.589  19.957  0.00  0.00    +0.000 OA
BRANCH   9  12
ATOM     11  C   UNL     1       2.182   1.926  19.114  0.00  0.00    +0.000 C 
ATOM     12  O   UNL     1       2.591   3.109  19.806  0.00  0.00    +0.000 OA
ENDBRANCH   9  12
ENDBRANCH   1   9
BRANCH   1  13
ATOM     13  N   UNL     1       2.853   5.457  18.761  0.00  0.00    +0.000 NA
ATOM     14  H   UNL     1       2.091   4.804  18.959  0.00  0.00    +0.000 HD
BRANCH  13  15
ATOM     15  C   UNL     1       2.605   6.685  19.547  0.00  0.00    +0.000 C 
BRANCH  15  16
ATOM     16  C   UNL     1       2.349   7.911  18.648  0.00  0.00    +0.000 C 
ATOM     17  O   UNL     1       2.757   7.984  17.485  0.00  0.00    +0.000 OA
ATOM     18  N   UNL     1       1.572   8.914  19.206  0.00  0.00    +0.000 N 
ATOM     19  C   UNL     1       1.010   8.967  20.543  0.00  0.00    +0.000 C 
ATOM     20  C   UNL     1      -0.290   9.724  20.340  0.00  0.00    +0.000 C 
ATOM     21  C   UNL     1       0.060  10.742  19.260  0.00  0.00    +0.000 C 
ATOM     22  C   UNL     1       1.145  10.063  18.425  0.00  0.00    +0.000 C 
ENDBRANCH  15  16
ENDBRANCH  13  15
ENDBRANCH   1  13
TORSDOF 6
ENDMDL
MODEL 9
REMARK VINA RESULT:      -7.0      2.154      4.895
REMARK  Name = 
REMARK  8 active torsions:
REMARK  status: ('A' for Active; 'I' for Inactive)
REMARK    1  A    between atoms: C_1  and  O_2
REMARK    2  A    between atoms: O_2  and  C_3
REMARK    3  A    between atoms: C_3  and  C_5
REMARK    4  A    between atoms: C_5  and  N_6
REMARK    5  A    between atoms: C_5  and  C_15
REMARK    6  A    between atoms: N_6  and  C_7
REMARK    7  A    between atoms: C_7  and  C_8
REMARK    8  A    between atoms: C_20  and  C_21
REMARK                            x       y       z     vdW  Elec       q    Type
REMARK                         _______ _______ _______ _____ _____    ______ ____
ROOT
ATOM      1  C   UNL     1       2.783   5.555  19.438  0.00  0.00    +0.000 C 
ENDROOT
BRANCH   1   2
ATOM      2  C   UNL     1       2.175   6.938  19.700  0.00  0.00    +0.000 A 
ATOM      3  C   UNL     1       1.517   7.161  20.932  0.00  0.00    +0.000 A 
ATOM      4  C   UNL     1       0.854   8.360  21.197  0.00  0.00    +0.000 A 
ATOM      5  C   UNL     1       0.838   9.368  20.244  0.00  0.00    +0.000 A 
ATOM      6  C   UNL     1       1.514   9.190  19.041  0.00  0.00    +0.000 A 
ATOM      7  C   UNL     1       2.196   7.989  18.755  0.00  0.00    +0.000 A 
ATOM      8  C   UNL     1       2.959   7.917  17.460  0.00  0.00    +0.000 C 
ENDBRANCH   1   2
BRANCH   1   9
ATOM      9  C   UNL     1       1.930   4.461  20.137  0.00  0.00    +0.000 C 
ATOM     10  O   UNL     1       2.088   4.084  21.296  0.00  0.00    +0.000 OA
BRANCH   9  12
ATOM     11  C   UNL     1       1.082   2.521  19.137  0.00  0.00    +0.000 C 
ATOM     12  O   UNL     1       1.003   3.942  19.279  0.00  0.00    +0.000 OA
ENDBRANCH   9  12
ENDBRANCH   1   9
BRANCH   1  13
ATOM     13  N   UNL     1       4.206   5.489  19.877  0.00  0.00    +0.000 NA
ATOM     14  H   UNL     1       4.235   5.371  20.893  0.00  0.00    +0.000 HD
BRANCH  13  15
ATOM     15  C   UNL     1       4.921   4.345  19.272  0.00  0.00    +0.000 C 
BRANCH  15  16
ATOM     16  C   UNL     1       6.193   4.784  18.520  0.00  0.00    +0.000 C 
ATOM     17  O   UNL     1       7.273   4.971  19.086  0.00  0.00    +0.000 OA
ATOM     18  N   UNL     1       6.067   4.901  17.144  0.00  0.00    +0.000 N 
ATOM     19  C   UNL     1       4.877   4.703  16.337  0.00  0.00    +0.000 C 
ATOM     20  C   UNL     1       5.432   4.153  15.036  0.00  0.00    +0.000 C 
ATOM     21  C   UNL     1       6.752   4.900  14.872  0.00  0.00    +0.000 C 
ATOM     22  C   UNL     1       7.218   5.181  16.301  0.00  0.00    +0.000 C 
ENDBRANCH  15  16
ENDBRANCH  13  15
ENDBRANCH   1  13
TORSDOF 6
ENDMDL
