MODEL 1
REMARK VINA RESULT:      -7.9      0.000      0.000
REMARK  Name = 
REMARK  6 active torsions:
REMARK  status: ('A' for Active; 'I' for Inactive)
REMARK    1  A    between atoms: C_1  and  C_2
REMARK    2  A    between atoms: C_2  and  N_3
REMARK    3  A    between atoms: C_7  and  C_8
REMARK    4  A    between atoms: N_15  and  C_16
REMARK    5  A    between atoms: C_19  and  C_20
REMARK    6  A    between atoms: C_21  and  C_22
REMARK                            x       y       z     vdW  Elec       q    Type
REMARK                         _______ _______ _______ _____ _____    ______ ____
ROOT
ATOM      1  C   UNL     1       4.631   4.039  17.752  0.00  0.00    +0.000 C 
ATOM      2  C   UNL     1       4.135   2.601  17.512  0.00  0.00    +0.000 C 
ATOM      3  C   UNL     1       2.864   2.516  18.330  0.00  0.00    +0.000 C 
ATOM      4  C   UNL     1       2.286   3.921  18.254  0.00  0.00    +0.000 C 
ATOM      5  N   UNL     1       3.389   4.807  17.892  0.00  0.00    +0.000 N 
ATOM      6  C   UNL     1       3.378   6.197  18.004  0.00  0.00    +0.000 C 
ATOM      7  O   UNL     1       4.365   6.880  17.750  0.00  0.00    +0.000 OA
ATOM      8  N   UNL     1       2.182   6.716  18.476  0.00  0.00    +0.000 N 
ATOM      9  H   UNL     1       1.592   6.080  18.980  0.00  0.00    +0.000 HD
ENDROOT
BRANCH   8  10
ATOM     10  C   UNL     1       1.882   8.080  18.693  0.00  0.00    +0.000 A 
ATOM     11  C   UNL     1       2.092   9.073  17.744  0.00  0.00    +0.000 A 
ATOM     12  C   UNL     1       1.786  10.406  18.043  0.00  0.00    +0.000 A 
ATOM     13  C   UNL     1       1.285  10.777  19.302  0.00  0.00    +0.000 A 
ATOM     14  C   UNL     1       1.023  12.231  19.582  0.00  0.00    +0.000 C 
ATOM     15  C   UNL     1       1.060   9.780  20.265  0.00  0.00    +0.000 A 
ATOM     16  C   UNL     1       0.598  10.080  21.666  0.00  0.00    +0.000 C 
ATOM     17  C   UNL     1       1.338   8.437  19.936  0.00  0.00    +0.000 A 
ENDBRANCH   8  10
BRANCH   1  22
ATOM     18  N   UNL     1       6.879   4.696  16.799  0.00  0.00    +0.000 N 
ATOM     19  N   UNL     1       7.540   4.822  15.629  0.00  0.00    +0.000 NA
ATOM     20  C   UNL     1       6.576   4.772  14.711  0.00  0.00    +0.000 A 
ATOM     21  C   UNL     1       5.311   4.552  15.276  0.00  0.00    +0.000 A 
ATOM     22  C   UNL     1       5.536   4.434  16.636  0.00  0.00    +0.000 A 
BRANCH  18  24
ATOM     23  C   UNL     1       7.679   6.248  18.558  0.00  0.00    +0.000 C 
ATOM     24  C   UNL     1       7.643   4.825  18.028  0.00  0.00    +0.000 C 
ENDBRANCH  18  24
ENDBRANCH   1  22
TORSDOF 3
ENDMDL
MODEL 2
REMARK VINA RESULT:      -7.7      1.866      3.625
REMARK  Name = 
REMARK  6 active torsions:
REMARK  status: ('A' for Active; 'I' for Inactive)
REMARK    1  A    between atoms: C_1  and  C_2
REMARK    2  A    between atoms: C_2  and  N_3
REMARK    3  A    between atoms: C_7  and  C_8
REMARK    4  A    between atoms: N_15  and  C_16
REMARK    5  A    between atoms: C_19  and  C_20
REMARK    6  A    between atoms: C_21  and  C_22
REMARK                            x       y       z     vdW  Elec       q    Type
REMARK                         _______ _______ _______ _____ _____    ______ ____
ROOT
ATOM      1  C   UNL     1       4.098   4.475  17.133  0.00  0.00    +0.000 C 
ATOM      2  C   UNL     1       5.445   4.347  16.399  0.00  0.00    +0.000 C 
ATOM      3  C   UNL     1       5.541   5.626  15.594  0.00  0.00    +0.000 C 
ATOM      4  C   UNL     1       4.842   6.659  16.464  0.00  0.00    +0.000 C 
ATOM      5  N   UNL     1       3.986   5.917  17.387  0.00  0.00    +0.000 N 
ATOM      6  C   UNL     1       2.955   6.464  18.148  0.00  0.00    +0.000 C 
ATOM      7  O   UNL     1       2.225   5.772  18.851  0.00  0.00    +0.000 OA
ATOM      8  N   UNL     1       2.803   7.834  17.992  0.00  0.00    +0.000 N 
ATOM      9  H   UNL     1       3.191   8.229  17.156  0.00  0.00    +0.000 HD
ENDROOT
BRANCH   8  10
ATOM     10  C   UNL     1       1.846   8.654  18.631  0.00  0.00    +0.000 A 
ATOM     11  C   UNL     1       1.053   9.575  17.959  0.00  0.00    +0.000 A 
ATOM     12  C   UNL     1       0.141  10.366  18.667  0.00  0.00    +0.000 A 
ATOM     13  C   UNL     1       0.016  10.267  20.063  0.00  0.00    +0.000 A 
ATOM     14  C   UNL     1      -0.945  11.179  20.775  0.00  0.00    +0.000 C 
ATOM     15  C   UNL     1       0.807   9.333  20.752  0.00  0.00    +0.000 A 
ATOM     16  C   UNL     1       0.805   9.202  22.251  0.00  0.00    +0.000 C 
ATOM     17  C   UNL     1       1.695   8.518  20.019  0.00  0.00    +0.000 A 
ENDBRANCH   8  10
BRANCH   1  22
ATOM     18  N   UNL     1       3.162   2.617  18.569  0.00  0.00    +0.000 N 
ATOM     19  N   UNL     1       3.488   1.798  19.591  0.00  0.00    +0.000 NA
ATOM     20  C   UNL     1       4.596   2.340  20.093  0.00  0.00    +0.000 A 
ATOM     21  C   UNL     1       5.019   3.463  19.365  0.00  0.00    +0.000 A 
ATOM     22  C   UNL     1       4.109   3.589  18.330  0.00  0.00    +0.000 A 
BRANCH  18  24
ATOM     23  C   UNL     1       0.701   2.408  18.780  0.00  0.00    +0.000 C 
ATOM     24  C   UNL     1       1.915   2.364  17.868  0.00  0.00    +0.000 C 
ENDBRANCH  18  24
ENDBRANCH   1  22
TORSDOF 3
ENDMDL
MODEL 3
REMARK VINA RESULT:      -7.5      2.672      7.920
REMARK  Name = 
REMARK  6 active torsions:
REMARK  status: ('A' for Active; 'I' for Inactive)
REMARK    1  A    between atoms: C_1  and  C_2
REMARK    2  A    between atoms: C_2  and  N_3
REMARK    3  A    between atoms: C_7  and  C_8
REMARK    4  A    between atoms: N_15  and  C_16
REMARK    5  A    between atoms: C_19  and  C_20
REMARK    6  A    between atoms: C_21  and  C_22
REMARK                            x       y       z     vdW  Elec       q    Type
REMARK                         _______ _______ _______ _____ _____    ______ ____
ROOT
ATOM      1  C   UNL     1      -0.206  10.099  20.326  0.00  0.00    +0.000 C 
ATOM      2  C   UNL     1      -0.394  10.566  21.781  0.00  0.00    +0.000 C 
ATOM      3  C   UNL     1      -0.009   9.355  22.603  0.00  0.00    +0.000 C 
ATOM      4  C   UNL     1       1.082   8.687  21.780  0.00  0.00    +0.000 C 
ATOM      5  N   UNL     1       0.931   9.174  20.412  0.00  0.00    +0.000 N 
ATOM      6  C   UNL     1       1.518   8.604  19.283  0.00  0.00    +0.000 C 
ATOM      7  O   UNL     1       1.292   9.020  18.150  0.00  0.00    +0.000 OA
ATOM      8  N   UNL     1       2.323   7.509  19.556  0.00  0.00    +0.000 N 
ATOM      9  H   UNL     1       2.157   7.046  20.431  0.00  0.00    +0.000 HD
ENDROOT
BRANCH   8  10
ATOM     10  C   UNL     1       3.040   6.734  18.617  0.00  0.00    +0.000 A 
ATOM     11  C   UNL     1       4.065   7.239  17.828  0.00  0.00    +0.000 A 
ATOM     12  C   UNL     1       4.715   6.411  16.905  0.00  0.00    +0.000 A 
ATOM     13  C   UNL     1       4.341   5.067  16.739  0.00  0.00    +0.000 A 
ATOM     14  C   UNL     1       5.041   4.239  15.696  0.00  0.00    +0.000 C 
ATOM     15  C   UNL     1       3.311   4.544  17.538  0.00  0.00    +0.000 A 
ATOM     16  C   UNL     1       2.784   3.142  17.386  0.00  0.00    +0.000 C 
ATOM     17  C   UNL     1       2.692   5.381  18.489  0.00  0.00    +0.000 A 
ENDBRANCH   8  10
BRANCH   1  22
ATOM     18  N   UNL     1      -0.974  11.717  18.541  0.00  0.00    +0.000 N 
ATOM     19  N   UNL     1      -0.696  12.929  18.017  0.00  0.00    +0.000 NA
ATOM     20  C   UNL     1       0.511  13.218  18.502  0.00  0.00    +0.000 A 
ATOM     21  C   UNL     1       0.983  12.231  19.381  0.00  0.00    +0.000 A 
ATOM     22  C   UNL     1      -0.029  11.290  19.450  0.00  0.00    +0.000 A 
BRANCH  18  24
ATOM     23  C   UNL     1      -1.958  10.023  17.023  0.00  0.00    +0.000 C 
ATOM     24  C   UNL     1      -2.194  11.055  18.113  0.00  0.00    +0.000 C 
ENDBRANCH  18  24
ENDBRANCH   1  22
TORSDOF 3
ENDMDL
MODEL 4
REMARK VINA RESULT:      -7.5      1.698      2.139
REMARK  Name = 
REMARK  6 active torsions:
REMARK  status: ('A' for Active; 'I' for Inactive)
REMARK    1  A    between atoms: C_1  and  C_2
REMARK    2  A    between atoms: C_2  and  N_3
REMARK    3  A    between atoms: C_7  and  C_8
REMARK    4  A    between atoms: N_15  and  C_16
REMARK    5  A    between atoms: C_19  and  C_20
REMARK    6  A    between atoms: C_21  and  C_22
REMARK                            x       y       z     vdW  Elec       q    Type
REMARK                         _______ _______ _______ _____ _____    ______ ____
ROOT
ATOM      1  C   UNL     1       3.974   4.106  19.857  0.00  0.00    +0.000 C 
ATOM      2  C   UNL     1       3.639   2.630  20.139  0.00  0.00    +0.000 C 
ATOM      3  C   UNL     1       2.699   2.692  21.324  0.00  0.00    +0.000 C 
ATOM      4  C   UNL     1       1.930   3.987  21.112  0.00  0.00    +0.000 C 
ATOM      5  N   UNL     1       2.734   4.808  20.210  0.00  0.00    +0.000 N 
ATOM      6  C   UNL     1       2.559   6.173  19.990  0.00  0.00    +0.000 C 
ATOM      7  O   UNL     1       3.316   6.820  19.272  0.00  0.00    +0.000 OA
ATOM      8  N   UNL     1       1.499   6.728  20.690  0.00  0.00    +0.000 N 
ATOM      9  H   UNL     1       1.185   6.217  21.494  0.00  0.00    +0.000 HD
ENDROOT
BRANCH   8  10
ATOM     10  C   UNL     1       1.086   8.079  20.665  0.00  0.00    +0.000 A 
ATOM     11  C   UNL     1       1.367   8.948  19.619  0.00  0.00    +0.000 A 
ATOM     12  C   UNL     1       0.940  10.280  19.678  0.00  0.00    +0.000 A 
ATOM     13  C   UNL     1       0.241  10.775  20.791  0.00  0.00    +0.000 A 
ATOM     14  C   UNL     1      -0.149  12.227  20.821  0.00  0.00    +0.000 C 
ATOM     15  C   UNL     1      -0.057   9.902  21.851  0.00  0.00    +0.000 A 
ATOM     16  C   UNL     1      -0.732  10.350  23.120  0.00  0.00    +0.000 C 
ATOM     17  C   UNL     1       0.348   8.554  21.759  0.00  0.00    +0.000 A 
ENDBRANCH   8  10
BRANCH   1  22
ATOM     18  N   UNL     1       5.665   4.750  18.092  0.00  0.00    +0.000 N 
ATOM     19  N   UNL     1       5.953   4.577  16.785  0.00  0.00    +0.000 NA
ATOM     20  C   UNL     1       4.832   4.069  16.275  0.00  0.00    +0.000 A 
ATOM     21  C   UNL     1       3.849   3.855  17.254  0.00  0.00    +0.000 A 
ATOM     22  C   UNL     1       4.435   4.240  18.447  0.00  0.00    +0.000 A 
BRANCH  18  24
ATOM     23  C   UNL     1       7.503   6.411  18.163  0.00  0.00    +0.000 C 
ATOM     24  C   UNL     1       6.659   5.404  18.925  0.00  0.00    +0.000 C 
ENDBRANCH  18  24
ENDBRANCH   1  22
TORSDOF 3
ENDMDL
MODEL 5
REMARK VINA RESULT:      -7.4      1.954      3.866
REMARK  Name = 
REMARK  6 active torsions:
REMARK  status: ('A' for Active; 'I' for Inactive)
REMARK    1  A    between atoms: C_1  and  C_2
REMARK    2  A    between atoms: C_2  and  N_3
REMARK    3  A    between atoms: C_7  and  C_8
REMARK    4  A    between atoms: N_15  and  C_16
REMARK    5  A    between atoms: C_19  and  C_20
REMARK    6  A    between atoms: C_21  and  C_22
REMARK                            x       y       z     vdW  Elec       q    Type
REMARK                         _______ _______ _______ _____ _____    ______ ____
ROOT
ATOM      1  C   UNL     1       3.982   4.608  17.175  0.00  0.00    +0.000 C 
ATOM      2  C   UNL     1       5.308   4.502  16.401  0.00  0.00    +0.000 C 
ATOM      3  C   UNL     1       5.377   5.796  15.620  0.00  0.00    +0.000 C 
ATOM      4  C   UNL     1       4.697   6.808  16.529  0.00  0.00    +0.000 C 
ATOM      5  N   UNL     1       3.871   6.044  17.460  0.00  0.00    +0.000 N 
ATOM      6  C   UNL     1       2.858   6.571  18.260  0.00  0.00    +0.000 C 
ATOM      7  O   UNL     1       2.152   5.862  18.970  0.00  0.00    +0.000 OA
ATOM      8  N   UNL     1       2.696   7.942  18.136  0.00  0.00    +0.000 N 
ATOM      9  H   UNL     1       3.059   8.356  17.298  0.00  0.00    +0.000 HD
ENDROOT
BRANCH   8  10
ATOM     10  C   UNL     1       1.754   8.745  18.818  0.00  0.00    +0.000 A 
ATOM     11  C   UNL     1       1.722   8.887  20.199  0.00  0.00    +0.000 A 
ATOM     12  C   UNL     1       0.743   9.686  20.800  0.00  0.00    +0.000 A 
ATOM     13  C   UNL     1      -0.236  10.344  20.036  0.00  0.00    +0.000 A 
ATOM     14  C   UNL     1      -1.293  11.148  20.742  0.00  0.00    +0.000 C 
ATOM     15  C   UNL     1      -0.208  10.214  18.638  0.00  0.00    +0.000 A 
ATOM     16  C   UNL     1      -1.253  10.814  17.736  0.00  0.00    +0.000 C 
ATOM     17  C   UNL     1       0.808   9.435  18.045  0.00  0.00    +0.000 A 
ENDBRANCH   8  10
BRANCH   1  22
ATOM     18  N   UNL     1       3.096   2.715  18.597  0.00  0.00    +0.000 N 
ATOM     19  N   UNL     1       3.454   1.878  19.593  0.00  0.00    +0.000 NA
ATOM     20  C   UNL     1       4.572   2.418  20.077  0.00  0.00    +0.000 A 
ATOM     21  C   UNL     1       4.968   3.558  19.360  0.00  0.00    +0.000 A 
ATOM     22  C   UNL     1       4.030   3.698  18.353  0.00  0.00    +0.000 A 
BRANCH  18  24
ATOM     23  C   UNL     1       0.645   2.468  18.871  0.00  0.00    +0.000 C 
ATOM     24  C   UNL     1       1.832   2.468  17.924  0.00  0.00    +0.000 C 
ENDBRANCH  18  24
ENDBRANCH   1  22
TORSDOF 3
ENDMDL
MODEL 6
REMARK VINA RESULT:      -7.4      2.703      7.948
REMARK  Name = 
REMARK  6 active torsions:
REMARK  status: ('A' for Active; 'I' for Inactive)
REMARK    1  A    between atoms: C_1  and  C_2
REMARK    2  A    between atoms: C_2  and  N_3
REMARK    3  A    between atoms: C_7  and  C_8
REMARK    4  A    between atoms: N_15  and  C_16
REMARK    5  A    between atoms: C_19  and  C_20
REMARK    6  A    between atoms: C_21  and  C_22
REMARK                            x       y       z     vdW  Elec       q    Type
REMARK                         _______ _______ _______ _____ _____    ______ ____
ROOT
ATOM      1  C   UNL     1      -0.155  10.188  20.490  0.00  0.00    +0.000 C 
ATOM      2  C   UNL     1      -0.258  10.729  21.928  0.00  0.00    +0.000 C 
ATOM      3  C   UNL     1       0.100   9.536  22.789  0.00  0.00    +0.000 C 
ATOM      4  C   UNL     1       1.120   8.776  21.956  0.00  0.00    +0.000 C 
ATOM      5  N   UNL     1       0.936   9.210  20.573  0.00  0.00    +0.000 N 
ATOM      6  C   UNL     1       1.445   8.561  19.449  0.00  0.00    +0.000 C 
ATOM      7  O   UNL     1       1.193   8.937  18.309  0.00  0.00    +0.000 OA
ATOM      8  N   UNL     1       2.204   7.438  19.741  0.00  0.00    +0.000 N 
ATOM      9  H   UNL     1       2.052   7.023  20.641  0.00  0.00    +0.000 HD
ENDROOT
BRANCH   8  10
ATOM     10  C   UNL     1       2.841   6.586  18.810  0.00  0.00    +0.000 A 
ATOM     11  C   UNL     1       2.365   5.326  18.472  0.00  0.00    +0.000 A 
ATOM     12  C   UNL     1       3.065   4.534  17.555  0.00  0.00    +0.000 A 
ATOM     13  C   UNL     1       4.265   4.975  16.973  0.00  0.00    +0.000 A 
ATOM     14  C   UNL     1       4.999   4.058  16.033  0.00  0.00    +0.000 C 
ATOM     15  C   UNL     1       4.751   6.251  17.302  0.00  0.00    +0.000 A 
ATOM     16  C   UNL     1       6.064   6.786  16.794  0.00  0.00    +0.000 C 
ATOM     17  C   UNL     1       4.015   7.052  18.199  0.00  0.00    +0.000 A 
ENDBRANCH   8  10
BRANCH   1  22
ATOM     18  N   UNL     1      -0.895  11.731  18.629  0.00  0.00    +0.000 N 
ATOM     19  N   UNL     1      -0.592  12.908  18.043  0.00  0.00    +0.000 NA
ATOM     20  C   UNL     1       0.624  13.192  18.506  0.00  0.00    +0.000 A 
ATOM     21  C   UNL     1       1.078  12.240  19.432  0.00  0.00    +0.000 A 
ATOM     22  C   UNL     1       0.044  11.329  19.554  0.00  0.00    +0.000 A 
BRANCH  18  24
ATOM     23  C   UNL     1      -1.932  10.004  17.186  0.00  0.00    +0.000 C 
ATOM     24  C   UNL     1      -2.133  11.078  18.241  0.00  0.00    +0.000 C 
ENDBRANCH  18  24
ENDBRANCH   1  22
TORSDOF 3
ENDMDL
MODEL 7
REMARK VINA RESULT:      -7.2      2.210      3.988
REMARK  Name = 
REMARK  6 active torsions:
REMARK  status: ('A' for Active; 'I' for Inactive)
REMARK    1  A    between atoms: C_1  and  C_2
REMARK    2  A    between atoms: C_2  and  N_3
REMARK    3  A    between atoms: C_7  and  C_8
REMARK    4  A    between atoms: N_15  and  C_16
REMARK    5  A    between atoms: C_19  and  C_20
REMARK    6  A    between atoms: C_21  and  C_22
REMARK                            x       y       z     vdW  Elec       q    Type
REMARK                         _______ _______ _______ _____ _____    ______ ____
ROOT
ATOM      1  C   UNL     1       3.684   4.809  17.524  0.00  0.00    +0.000 C 
ATOM      2  C   UNL     1       4.904   4.857  16.585  0.00  0.00    +0.000 C 
ATOM      3  C   UNL     1       4.863   6.257  16.011  0.00  0.00    +0.000 C 
ATOM      4  C   UNL     1       4.296   7.100  17.143  0.00  0.00    +0.000 C 
ATOM      5  N   UNL     1       3.600   6.181  18.039  0.00  0.00    +0.000 N 
ATOM      6  C   UNL     1       2.692   6.552  19.030  0.00  0.00    +0.000 C 
ATOM      7  O   UNL     1       2.085   5.724  19.703  0.00  0.00    +0.000 OA
ATOM      8  N   UNL     1       2.505   7.921  19.141  0.00  0.00    +0.000 N 
ATOM      9  H   UNL     1       2.756   8.468  18.338  0.00  0.00    +0.000 HD
ENDROOT
BRANCH   8  10
ATOM     10  C   UNL     1       1.650   8.585  20.049  0.00  0.00    +0.000 A 
ATOM     11  C   UNL     1       1.584   8.283  21.403  0.00  0.00    +0.000 A 
ATOM     12  C   UNL     1       0.695   8.974  22.235  0.00  0.00    +0.000 A 
ATOM     13  C   UNL     1      -0.161   9.966  21.727  0.00  0.00    +0.000 A 
ATOM     14  C   UNL     1      -1.130  10.638  22.660  0.00  0.00    +0.000 C 
ATOM     15  C   UNL     1      -0.097  10.285  20.361  0.00  0.00    +0.000 A 
ATOM     16  C   UNL     1      -1.021  11.275  19.704  0.00  0.00    +0.000 C 
ATOM     17  C   UNL     1       0.830   9.606  19.544  0.00  0.00    +0.000 A 
ENDBRANCH   8  10
BRANCH   1  22
ATOM     18  N   UNL     1       3.089   2.612  18.624  0.00  0.00    +0.000 N 
ATOM     19  N   UNL     1       3.584   1.675  19.459  0.00  0.00    +0.000 NA
ATOM     20  C   UNL     1       4.646   2.264  20.007  0.00  0.00    +0.000 A 
ATOM     21  C   UNL     1       4.873   3.547  19.485  0.00  0.00    +0.000 A 
ATOM     22  C   UNL     1       3.888   3.731  18.532  0.00  0.00    +0.000 A 
BRANCH  18  24
ATOM     23  C   UNL     1       0.617   2.600  18.797  0.00  0.00    +0.000 C 
ATOM     24  C   UNL     1       1.841   2.321  17.941  0.00  0.00    +0.000 C 
ENDBRANCH  18  24
ENDBRANCH   1  22
TORSDOF 3
ENDMDL
MODEL 8
REMARK VINA RESULT:      -7.2      1.397      2.093
REMARK  Name = 
REMARK  6 active torsions:
REMARK  status: ('A' for Active; 'I' for Inactive)
REMARK    1  A    between atoms: C_1  and  C_2
REMARK    2  A    between atoms: C_2  and  N_3
REMARK    3  A    between atoms: C_7  and  C_8
REMARK    4  A    between atoms: N_15  and  C_16
REMARK    5  A    between atoms: C_19  and  C_20
REMARK    6  A    between atoms: C_21  and  C_22
REMARK                            x       y       z     vdW  Elec       q    Type
REMARK                         _______ _______ _______ _____ _____    ______ ____
ROOT
ATOM      1  C   UNL     1       4.502   3.952  19.397  0.00  0.00    +0.000 C 
ATOM      2  C   UNL     1       4.196   2.455  19.587  0.00  0.00    +0.000 C 
ATOM      3  C   UNL     1       3.294   2.421  20.802  0.00  0.00    +0.000 C 
ATOM      4  C   UNL     1       2.501   3.716  20.705  0.00  0.00    +0.000 C 
ATOM      5  N   UNL     1       3.265   4.608  19.837  0.00  0.00    +0.000 N 
ATOM      6  C   UNL     1       3.064   5.983  19.716  0.00  0.00    +0.000 C 
ATOM      7  O   UNL     1       3.789   6.689  19.022  0.00  0.00    +0.000 OA
ATOM      8  N   UNL     1       2.020   6.471  20.486  0.00  0.00    +0.000 N 
ATOM      9  H   UNL     1       1.739   5.902  21.262  0.00  0.00    +0.000 HD
ENDROOT
BRANCH   8  10
ATOM     10  C   UNL     1       1.588   7.814  20.567  0.00  0.00    +0.000 A 
ATOM     11  C   UNL     1       1.272   8.449  21.761  0.00  0.00    +0.000 A 
ATOM     12  C   UNL     1       0.832   9.777  21.756  0.00  0.00    +0.000 A 
ATOM     13  C   UNL     1       0.680  10.493  20.557  0.00  0.00    +0.000 A 
ATOM     14  C   UNL     1       0.156  11.902  20.610  0.00  0.00    +0.000 C 
ATOM     15  C   UNL     1       1.005   9.864  19.344  0.00  0.00    +0.000 A 
ATOM     16  C   UNL     1       0.806  10.516  18.001  0.00  0.00    +0.000 C 
ATOM     17  C   UNL     1       1.483   8.537  19.369  0.00  0.00    +0.000 A 
ENDBRANCH   8  10
BRANCH   1  22
ATOM     18  N   UNL     1       6.142   4.703  17.626  0.00  0.00    +0.000 N 
ATOM     19  N   UNL     1       6.379   4.630  16.300  0.00  0.00    +0.000 NA
ATOM     20  C   UNL     1       5.230   4.184  15.794  0.00  0.00    +0.000 A 
ATOM     21  C   UNL     1       4.279   3.911  16.789  0.00  0.00    +0.000 A 
ATOM     22  C   UNL     1       4.915   4.189  17.986  0.00  0.00    +0.000 A 
BRANCH  18  24
ATOM     23  C   UNL     1       7.573   6.680  18.062  0.00  0.00    +0.000 C 
ATOM     24  C   UNL     1       7.178   5.271  18.471  0.00  0.00    +0.000 C 
ENDBRANCH  18  24
ENDBRANCH   1  22
TORSDOF 3
ENDMDL
MODEL 9
REMARK VINA RESULT:      -7.1      0.746      1.532
REMARK  Name = 
REMARK  6 active torsions:
REMARK  status: ('A' for Active; 'I' for Inactive)
REMARK    1  A    between atoms: C_1  and  C_2
REMARK    2  A    between atoms: C_2  and  N_3
REMARK    3  A    between atoms: C_7  and  C_8
REMARK    4  A    between atoms: N_15  and  C_16
REMARK    5  A    between atoms: C_19  and  C_20
REMARK    6  A    between atoms: C_21  and  C_22
REMARK                            x       y       z     vdW  Elec       q    Type
REMARK                         _______ _______ _______ _____ _____    ______ ____
ROOT
ATOM      1  C   UNL     1       4.666   3.758  17.707  0.00  0.00    +0.000 C 
ATOM      2  C   UNL     1       4.221   2.371  17.206  0.00  0.00    +0.000 C 
ATOM      3  C   UNL     1       3.024   2.042  18.071  0.00  0.00    +0.000 C 
ATOM      4  C   UNL     1       2.375   3.393  18.328  0.00  0.00    +0.000 C 
ATOM      5  N   UNL     1       3.403   4.402  18.086  0.00  0.00    +0.000 N 
ATOM      6  C   UNL     1       3.335   5.735  18.486  0.00  0.00    +0.000 C 
ATOM      7  O   UNL     1       4.266   6.517  18.315  0.00  0.00    +0.000 OA
ATOM      8  N   UNL     1       2.156   6.072  19.134  0.00  0.00    +0.000 N 
ATOM      9  H   UNL     1       1.638   5.311  19.532  0.00  0.00    +0.000 HD
ENDROOT
BRANCH   8  10
ATOM     10  C   UNL     1       1.810   7.341  19.650  0.00  0.00    +0.000 A 
ATOM     11  C   UNL     1       1.484   7.566  20.981  0.00  0.00    +0.000 A 
ATOM     12  C   UNL     1       1.132   8.851  21.411  0.00  0.00    +0.000 A 
ATOM     13  C   UNL     1       1.079   9.932  20.516  0.00  0.00    +0.000 A 
ATOM     14  C   UNL     1       0.645  11.279  21.025  0.00  0.00    +0.000 C 
ATOM     15  C   UNL     1       1.414   9.718  19.169  0.00  0.00    +0.000 A 
ATOM     16  C   UNL     1       1.316  10.790  18.116  0.00  0.00    +0.000 C 
ATOM     17  C   UNL     1       1.803   8.425  18.759  0.00  0.00    +0.000 A 
ENDBRANCH   8  10
BRANCH   1  22
ATOM     18  N   UNL     1       6.778   4.804  16.793  0.00  0.00    +0.000 N 
ATOM     19  N   UNL     1       7.355   5.194  15.637  0.00  0.00    +0.000 NA
ATOM     20  C   UNL     1       6.351   5.191  14.762  0.00  0.00    +0.000 A 
ATOM     21  C   UNL     1       5.148   4.744  15.330  0.00  0.00    +0.000 A 
ATOM     22  C   UNL     1       5.461   4.428  16.640  0.00  0.00    +0.000 A 
BRANCH  18  24
ATOM     23  C   UNL     1       7.712   6.187  18.625  0.00  0.00    +0.000 C 
ATOM     24  C   UNL     1       7.594   4.810  17.995  0.00  0.00    +0.000 C 
ENDBRANCH  18  24
ENDBRANCH   1  22
TORSDOF 3
ENDMDL
