MODEL 1
REMARK VINA RESULT:      -8.1      0.000      0.000
REMARK  Name = 
REMARK  6 active torsions:
REMARK  status: ('A' for Active; 'I' for Inactive)
REMARK    1  A    between atoms: C_1  and  C_2
REMARK    2  A    between atoms: C_7  and  C_8
REMARK    3  A    between atoms: C_8  and  S_9
REMARK    4  A    between atoms: S_9  and  C_10
REMARK    5  A    between atoms: N_12  and  C_13
REMARK    6  A    between atoms: C_13  and  C_14
REMARK                            x       y       z     vdW  Elec       q    Type
REMARK                         _______ _______ _______ _____ _____    ______ ____
ROOT
ATOM      1  C   UNL     1       2.186   6.056  19.675  0.00  0.00    +0.000 A 
ATOM      2  C   UNL     1       3.227   6.369  18.832  0.00  0.00    +0.000 A 
ATOM      3  N   UNL     1       3.540   5.240  18.106  0.00  0.00    +0.000 N 
ATOM      4  C   UNL     1       2.697   4.199  18.456  0.00  0.00    +0.000 A 
ATOM      5  C   UNL     1       2.635   2.866  18.013  0.00  0.00    +0.000 A 
ATOM      6  C   UNL     1       1.659   2.029  18.566  0.00  0.00    +0.000 A 
ATOM      7  C   UNL     1       0.769   2.505  19.522  0.00  0.00    +0.000 A 
ATOM      8  C   UNL     1       0.842   3.829  19.961  0.00  0.00    +0.000 A 
ATOM      9  C   UNL     1       1.823   4.697  19.430  0.00  0.00    +0.000 A 
ENDROOT
BRANCH   1  10
ATOM     10  S   UNL     1       1.453   7.043  20.925  0.00  0.00    +0.000 S 
BRANCH  10  11
ATOM     11  C   UNL     1       1.258   8.670  20.153  0.00  0.00    +0.000 C 
BRANCH  11  18
ATOM     12  C   UNL     1      -0.102  11.161  19.051  0.00  0.00    +0.000 C 
ATOM     13  C   UNL     1      -0.238  10.742  20.489  0.00  0.00    +0.000 A 
ATOM     14  C   UNL     1      -1.019  11.539  21.347  0.00  0.00    +0.000 A 
ATOM     15  C   UNL     1      -1.169  11.215  22.693  0.00  0.00    +0.000 A 
ATOM     16  C   UNL     1      -0.540  10.089  23.203  0.00  0.00    +0.000 A 
ATOM     17  C   UNL     1       0.235   9.282  22.367  0.00  0.00    +0.000 A 
ATOM     18  C   UNL     1       0.391   9.587  21.001  0.00  0.00    +0.000 A 
ENDBRANCH  11  18
ENDBRANCH  10  11
ENDBRANCH   1  10
BRANCH   3  19
ATOM     19  C   UNL     1       4.684   5.122  17.204  0.00  0.00    +0.000 C 
BRANCH  19  20
ATOM     20  C   UNL     1       6.019   5.079  17.931  0.00  0.00    +0.000 C 
ATOM     21  O   UNL     1       6.481   4.035  18.392  0.00  0.00    +0.000 OA
ATOM     22  N   UNL     1       6.723   6.267  18.021  0.00  0.00    +0.000 N 
ATOM     23  C   UNL     1       6.393   7.554  17.434  0.00  0.00    +0.000 C 
ATOM     24  C   UNL     1       7.725   8.288  17.393  0.00  0.00    +0.000 C 
ATOM     25  C   UNL     1       8.457   7.771  18.626  0.00  0.00    +0.000 C 
ATOM     26  C   UNL     1       7.949   6.344  18.797  0.00  0.00    +0.000 C 
ENDBRANCH  19  20
ENDBRANCH   3  19
TORSDOF 5
ENDMDL
MODEL 2
REMARK VINA RESULT:      -8.0      1.042      1.369
REMARK  Name = 
REMARK  6 active torsions:
REMARK  status: ('A' for Active; 'I' for Inactive)
REMARK    1  A    between atoms: C_1  and  C_2
REMARK    2  A    between atoms: C_7  and  C_8
REMARK    3  A    between atoms: C_8  and  S_9
REMARK    4  A    between atoms: S_9  and  C_10
REMARK    5  A    between atoms: N_12  and  C_13
REMARK    6  A    between atoms: C_13  and  C_14
REMARK                            x       y       z     vdW  Elec       q    Type
REMARK                         _______ _______ _______ _____ _____    ______ ____
ROOT
ATOM      1  C   UNL     1       2.198   6.144  19.618  0.00  0.00    +0.000 A 
ATOM      2  C   UNL     1       3.004   6.404  18.534  0.00  0.00    +0.000 A 
ATOM      3  N   UNL     1       3.208   5.218  17.863  0.00  0.00    +0.000 N 
ATOM      4  C   UNL     1       2.523   4.191  18.490  0.00  0.00    +0.000 A 
ATOM      5  C   UNL     1       2.436   2.818  18.197  0.00  0.00    +0.000 A 
ATOM      6  C   UNL     1       1.656   2.011  19.033  0.00  0.00    +0.000 A 
ATOM      7  C   UNL     1       0.979   2.552  20.119  0.00  0.00    +0.000 A 
ATOM      8  C   UNL     1       1.076   3.915  20.407  0.00  0.00    +0.000 A 
ATOM      9  C   UNL     1       1.863   4.756  19.588  0.00  0.00    +0.000 A 
ENDROOT
BRANCH   1  10
ATOM     10  S   UNL     1       1.710   7.229  20.906  0.00  0.00    +0.000 S 
BRANCH  10  11
ATOM     11  C   UNL     1       1.265   8.764  20.054  0.00  0.00    +0.000 C 
BRANCH  11  18
ATOM     12  C   UNL     1       0.899  11.727  19.456  0.00  0.00    +0.000 C 
ATOM     13  C   UNL     1       0.340  11.083  20.695  0.00  0.00    +0.000 A 
ATOM     14  C   UNL     1      -0.370  11.889  21.605  0.00  0.00    +0.000 A 
ATOM     15  C   UNL     1      -0.896  11.357  22.780  0.00  0.00    +0.000 A 
ATOM     16  C   UNL     1      -0.720  10.010  23.064  0.00  0.00    +0.000 A 
ATOM     17  C   UNL     1      -0.024   9.193  22.171  0.00  0.00    +0.000 A 
ATOM     18  C   UNL     1       0.508   9.710  20.973  0.00  0.00    +0.000 A 
ENDBRANCH  11  18
ENDBRANCH  10  11
ENDBRANCH   1  10
BRANCH   3  19
ATOM     19  C   UNL     1       4.125   5.046  16.737  0.00  0.00    +0.000 C 
BRANCH  19  20
ATOM     20  C   UNL     1       5.187   6.131  16.659  0.00  0.00    +0.000 C 
ATOM     21  O   UNL     1       5.113   7.065  15.859  0.00  0.00    +0.000 OA
ATOM     22  N   UNL     1       6.235   6.051  17.560  0.00  0.00    +0.000 N 
ATOM     23  C   UNL     1       6.418   5.100  18.643  0.00  0.00    +0.000 C 
ATOM     24  C   UNL     1       7.387   5.800  19.583  0.00  0.00    +0.000 C 
ATOM     25  C   UNL     1       8.268   6.617  18.645  0.00  0.00    +0.000 C 
ATOM     26  C   UNL     1       7.352   6.976  17.481  0.00  0.00    +0.000 C 
ENDBRANCH  19  20
ENDBRANCH   3  19
TORSDOF 5
ENDMDL
MODEL 3
REMARK VINA RESULT:      -7.8      1.252      1.613
REMARK  Name = 
REMARK  6 active torsions:
REMARK  status: ('A' for Active; 'I' for Inactive)
REMARK    1  A    between atoms: C_1  and  C_2
REMARK    2  A    between atoms: C_7  and  C_8
REMARK    3  A    between atoms: C_8  and  S_9
REMARK    4  A    between atoms: S_9  and  C_10
REMARK    5  A    between atoms: N_12  and  C_13
REMARK    6  A    between atoms: C_13  and  C_14
REMARK                            x       y       z     vdW  Elec       q    Type
REMARK                         _______ _______ _______ _____ _____    ______ ____
ROOT
ATOM      1  C   UNL     1       2.123   6.389  19.423  0.00  0.00    +0.000 A 
ATOM      2  C   UNL     1       2.909   6.494  18.299  0.00  0.00    +0.000 A 
ATOM      3  N   UNL     1       3.183   5.220  17.851  0.00  0.00    +0.000 N 
ATOM      4  C   UNL     1       2.564   4.285  18.664  0.00  0.00    +0.000 A 
ATOM      5  C   UNL     1       2.561   2.879  18.627  0.00  0.00    +0.000 A 
ATOM      6  C   UNL     1       1.835   2.193  19.607  0.00  0.00    +0.000 A 
ATOM      7  C   UNL     1       1.128   2.882  20.586  0.00  0.00    +0.000 A 
ATOM      8  C   UNL     1       1.142   4.278  20.619  0.00  0.00    +0.000 A 
ATOM      9  C   UNL     1       1.874   5.001  19.650  0.00  0.00    +0.000 A 
ENDROOT
BRANCH   1  10
ATOM     10  S   UNL     1       1.573   7.659  20.499  0.00  0.00    +0.000 S 
BRANCH  10  11
ATOM     11  C   UNL     1       1.355   9.097  19.419  0.00  0.00    +0.000 C 
BRANCH  11  18
ATOM     12  C   UNL     1      -1.021  10.166  17.844  0.00  0.00    +0.000 C 
ATOM     13  C   UNL     1      -0.752  10.574  19.267  0.00  0.00    +0.000 A 
ATOM     14  C   UNL     1      -1.632  11.486  19.878  0.00  0.00    +0.000 A 
ATOM     15  C   UNL     1      -1.428  11.917  21.187  0.00  0.00    +0.000 A 
ATOM     16  C   UNL     1      -0.339  11.443  21.905  0.00  0.00    +0.000 A 
ATOM     17  C   UNL     1       0.543  10.534  21.317  0.00  0.00    +0.000 A 
ATOM     18  C   UNL     1       0.348  10.079  19.999  0.00  0.00    +0.000 A 
ENDBRANCH  11  18
ENDBRANCH  10  11
ENDBRANCH   1  10
BRANCH   3  19
ATOM     19  C   UNL     1       4.106   4.901  16.763  0.00  0.00    +0.000 C 
BRANCH  19  20
ATOM     20  C   UNL     1       5.213   5.929  16.596  0.00  0.00    +0.000 C 
ATOM     21  O   UNL     1       5.196   6.771  15.697  0.00  0.00    +0.000 OA
ATOM     22  N   UNL     1       6.235   5.909  17.529  0.00  0.00    +0.000 N 
ATOM     23  C   UNL     1       6.353   5.077  18.714  0.00  0.00    +0.000 C 
ATOM     24  C   UNL     1       7.329   5.840  19.598  0.00  0.00    +0.000 C 
ATOM     25  C   UNL     1       8.264   6.513  18.602  0.00  0.00    +0.000 C 
ATOM     26  C   UNL     1       7.391   6.777  17.381  0.00  0.00    +0.000 C 
ENDBRANCH  19  20
ENDBRANCH   3  19
TORSDOF 5
ENDMDL
MODEL 4
REMARK VINA RESULT:      -7.8      3.458      6.035
REMARK  Name = 
REMARK  6 active torsions:
REMARK  status: ('A' for Active; 'I' for Inactive)
REMARK    1  A    between atoms: C_1  and  C_2
REMARK    2  A    between atoms: C_7  and  C_8
REMARK    3  A    between atoms: C_8  and  S_9
REMARK    4  A    between atoms: S_9  and  C_10
REMARK    5  A    between atoms: N_12  and  C_13
REMARK    6  A    between atoms: C_13  and  C_14
REMARK                            x       y       z     vdW  Elec       q    Type
REMARK                         _______ _______ _______ _____ _____    ______ ____
ROOT
ATOM      1  C   UNL     1       4.801   3.680  17.411  0.00  0.00    +0.000 A 
ATOM      2  C   UNL     1       4.751   3.868  16.049  0.00  0.00    +0.000 A 
ATOM      3  N   UNL     1       5.649   4.862  15.725  0.00  0.00    +0.000 N 
ATOM      4  C   UNL     1       6.297   5.309  16.864  0.00  0.00    +0.000 A 
ATOM      5  C   UNL     1       7.270   6.309  17.046  0.00  0.00    +0.000 A 
ATOM      6  C   UNL     1       7.742   6.545  18.343  0.00  0.00    +0.000 A 
ATOM      7  C   UNL     1       7.267   5.806  19.421  0.00  0.00    +0.000 A 
ATOM      8  C   UNL     1       6.296   4.820  19.231  0.00  0.00    +0.000 A 
ATOM      9  C   UNL     1       5.792   4.564  17.936  0.00  0.00    +0.000 A 
ENDROOT
BRANCH   1  10
ATOM     10  S   UNL     1       3.797   2.649  18.413  0.00  0.00    +0.000 S 
BRANCH  10  11
ATOM     11  C   UNL     1       2.147   3.389  18.303  0.00  0.00    +0.000 C 
BRANCH  11  18
ATOM     12  C   UNL     1       1.518   3.903  21.238  0.00  0.00    +0.000 C 
ATOM     13  C   UNL     1       1.828   5.018  20.276  0.00  0.00    +0.000 A 
ATOM     14  C   UNL     1       1.818   6.339  20.759  0.00  0.00    +0.000 A 
ATOM     15  C   UNL     1       2.079   7.416  19.915  0.00  0.00    +0.000 A 
ATOM     16  C   UNL     1       2.352   7.189  18.574  0.00  0.00    +0.000 A 
ATOM     17  C   UNL     1       2.371   5.884  18.077  0.00  0.00    +0.000 A 
ATOM     18  C   UNL     1       2.120   4.781  18.916  0.00  0.00    +0.000 A 
ENDBRANCH  11  18
ENDBRANCH  10  11
ENDBRANCH   1  10
BRANCH   3  19
ATOM     19  C   UNL     1       5.791   5.453  14.396  0.00  0.00    +0.000 C 
BRANCH  19  20
ATOM     20  C   UNL     1       6.935   4.854  13.593  0.00  0.00    +0.000 C 
ATOM     21  O   UNL     1       8.109   5.176  13.783  0.00  0.00    +0.000 OA
ATOM     22  N   UNL     1       6.607   3.891  12.654  0.00  0.00    +0.000 N 
ATOM     23  C   UNL     1       5.305   3.306  12.385  0.00  0.00    +0.000 C 
ATOM     24  C   UNL     1       5.632   1.990  11.696  0.00  0.00    +0.000 C 
ATOM     25  C   UNL     1       6.906   2.300  10.919  0.00  0.00    +0.000 C 
ATOM     26  C   UNL     1       7.619   3.350  11.763  0.00  0.00    +0.000 C 
ENDBRANCH  19  20
ENDBRANCH   3  19
TORSDOF 5
ENDMDL
MODEL 5
REMARK VINA RESULT:      -7.8      3.531      8.786
REMARK  Name = 
REMARK  6 active torsions:
REMARK  status: ('A' for Active; 'I' for Inactive)
REMARK    1  A    between atoms: C_1  and  C_2
REMARK    2  A    between atoms: C_7  and  C_8
REMARK    3  A    between atoms: C_8  and  S_9
REMARK    4  A    between atoms: S_9  and  C_10
REMARK    5  A    between atoms: N_12  and  C_13
REMARK    6  A    between atoms: C_13  and  C_14
REMARK                            x       y       z     vdW  Elec       q    Type
REMARK                         _______ _______ _______ _____ _____    ______ ____
ROOT
ATOM      1  C   UNL     1       1.297   8.735  19.938  0.00  0.00    +0.000 A 
ATOM      2  C   UNL     1       0.966   9.531  18.865  0.00  0.00    +0.000 A 
ATOM      3  N   UNL     1       0.111  10.513  19.313  0.00  0.00    +0.000 N 
ATOM      4  C   UNL     1      -0.102  10.376  20.674  0.00  0.00    +0.000 A 
ATOM      5  C   UNL     1      -0.899  11.114  21.569  0.00  0.00    +0.000 A 
ATOM      6  C   UNL     1      -0.918  10.725  22.913  0.00  0.00    +0.000 A 
ATOM      7  C   UNL     1      -0.165   9.643  23.355  0.00  0.00    +0.000 A 
ATOM      8  C   UNL     1       0.618   8.912  22.459  0.00  0.00    +0.000 A 
ATOM      9  C   UNL     1       0.652   9.273  21.092  0.00  0.00    +0.000 A 
ENDROOT
BRANCH   1  10
ATOM     10  S   UNL     1       2.239   7.257  19.956  0.00  0.00    +0.000 S 
BRANCH  10  11
ATOM     11  C   UNL     1       2.491   6.864  18.206  0.00  0.00    +0.000 C 
BRANCH  11  18
ATOM     12  C   UNL     1       4.901   5.624  16.818  0.00  0.00    +0.000 C 
ATOM     13  C   UNL     1       3.762   4.793  17.345  0.00  0.00    +0.000 A 
ATOM     14  C   UNL     1       3.821   3.397  17.179  0.00  0.00    +0.000 A 
ATOM     15  C   UNL     1       2.790   2.575  17.628  0.00  0.00    +0.000 A 
ATOM     16  C   UNL     1       1.683   3.137  18.249  0.00  0.00    +0.000 A 
ATOM     17  C   UNL     1       1.609   4.519  18.426  0.00  0.00    +0.000 A 
ATOM     18  C   UNL     1       2.645   5.367  17.989  0.00  0.00    +0.000 A 
ENDBRANCH  11  18
ENDBRANCH  10  11
ENDBRANCH   1  10
BRANCH   3  19
ATOM     19  C   UNL     1      -0.580  11.472  18.452  0.00  0.00    +0.000 C 
BRANCH  19  20
ATOM     20  C   UNL     1      -1.821  10.895  17.789  0.00  0.00    +0.000 C 
ATOM     21  O   UNL     1      -1.760   9.987  16.959  0.00  0.00    +0.000 OA
ATOM     22  N   UNL     1      -3.043  11.409  18.189  0.00  0.00    +0.000 N 
ATOM     23  C   UNL     1      -3.309  12.384  19.232  0.00  0.00    +0.000 C 
ATOM     24  C   UNL     1      -4.771  12.152  19.582  0.00  0.00    +0.000 C 
ATOM     25  C   UNL     1      -5.394  11.727  18.258  0.00  0.00    +0.000 C 
ATOM     26  C   UNL     1      -4.270  11.001  17.527  0.00  0.00    +0.000 C 
ENDBRANCH  19  20
ENDBRANCH   3  19
TORSDOF 5
ENDMDL
MODEL 6
REMARK VINA RESULT:      -7.7      1.238      1.938
REMARK  Name = 
REMARK  6 active torsions:
REMARK  status: ('A' for Active; 'I' for Inactive)
REMARK    1  A    between atoms: C_1  and  C_2
REMARK    2  A    between atoms: C_7  and  C_8
REMARK    3  A    between atoms: C_8  and  S_9
REMARK    4  A    between atoms: S_9  and  C_10
REMARK    5  A    between atoms: N_12  and  C_13
REMARK    6  A    between atoms: C_13  and  C_14
REMARK                            x       y       z     vdW  Elec       q    Type
REMARK                         _______ _______ _______ _____ _____    ______ ____
ROOT
ATOM      1  C   UNL     1       2.186   6.676  19.397  0.00  0.00    +0.000 A 
ATOM      2  C   UNL     1       3.157   6.724  18.423  0.00  0.00    +0.000 A 
ATOM      3  N   UNL     1       3.569   5.434  18.170  0.00  0.00    +0.000 N 
ATOM      4  C   UNL     1       2.859   4.543  18.957  0.00  0.00    +0.000 A 
ATOM      5  C   UNL     1       2.931   3.143  19.071  0.00  0.00    +0.000 A 
ATOM      6  C   UNL     1       2.073   2.508  19.977  0.00  0.00    +0.000 A 
ATOM      7  C   UNL     1       1.168   3.240  20.738  0.00  0.00    +0.000 A 
ATOM      8  C   UNL     1       1.108   4.631  20.622  0.00  0.00    +0.000 A 
ATOM      9  C   UNL     1       1.968   5.304  19.725  0.00  0.00    +0.000 A 
ENDROOT
BRANCH   1  10
ATOM     10  S   UNL     1       1.390   8.005  20.217  0.00  0.00    +0.000 S 
BRANCH  10  11
ATOM     11  C   UNL     1       1.498   9.383  19.046  0.00  0.00    +0.000 C 
BRANCH  11  18
ATOM     12  C   UNL     1       0.545  11.510  21.006  0.00  0.00    +0.000 C 
ATOM     13  C   UNL     1      -0.276  11.087  19.819  0.00  0.00    +0.000 A 
ATOM     14  C   UNL     1      -1.529  11.696  19.620  0.00  0.00    +0.000 A 
ATOM     15  C   UNL     1      -2.344  11.336  18.550  0.00  0.00    +0.000 A 
ATOM     16  C   UNL     1      -1.920  10.357  17.662  0.00  0.00    +0.000 A 
ATOM     17  C   UNL     1      -0.679   9.743  17.839  0.00  0.00    +0.000 A 
ATOM     18  C   UNL     1       0.165  10.102  18.909  0.00  0.00    +0.000 A 
ENDBRANCH  11  18
ENDBRANCH  10  11
ENDBRANCH   1  10
BRANCH   3  19
ATOM     19  C   UNL     1       4.688   5.073  17.301  0.00  0.00    +0.000 C 
BRANCH  19  20
ATOM     20  C   UNL     1       6.024   5.046  18.026  0.00  0.00    +0.000 C 
ATOM     21  O   UNL     1       6.482   4.015  18.519  0.00  0.00    +0.000 OA
ATOM     22  N   UNL     1       6.735   6.233  18.076  0.00  0.00    +0.000 N 
ATOM     23  C   UNL     1       6.411   7.502  17.449  0.00  0.00    +0.000 C 
ATOM     24  C   UNL     1       7.747   8.227  17.381  0.00  0.00    +0.000 C 
ATOM     25  C   UNL     1       8.479   7.745  18.627  0.00  0.00    +0.000 C 
ATOM     26  C   UNL     1       7.964   6.327  18.846  0.00  0.00    +0.000 C 
ENDBRANCH  19  20
ENDBRANCH   3  19
TORSDOF 5
ENDMDL
MODEL 7
REMARK VINA RESULT:      -7.7      3.925      9.256
REMARK  Name = 
REMARK  6 active torsions:
REMARK  status: ('A' for Active; 'I' for Inactive)
REMARK    1  A    between atoms: C_1  and  C_2
REMARK    2  A    between atoms: C_7  and  C_8
REMARK    3  A    between atoms: C_8  and  S_9
REMARK    4  A    between atoms: S_9  and  C_10
REMARK    5  A    between atoms: N_12  and  C_13
REMARK    6  A    between atoms: C_13  and  C_14
REMARK                            x       y       z     vdW  Elec       q    Type
REMARK                         _______ _______ _______ _____ _____    ______ ____
ROOT
ATOM      1  C   UNL     1       0.745   9.836  19.114  0.00  0.00    +0.000 A 
ATOM      2  C   UNL     1       0.921  10.496  20.308  0.00  0.00    +0.000 A 
ATOM      3  N   UNL     1      -0.169  11.317  20.505  0.00  0.00    +0.000 N 
ATOM      4  C   UNL     1      -1.063  11.181  19.457  0.00  0.00    +0.000 A 
ATOM      5  C   UNL     1      -2.294  11.811  19.199  0.00  0.00    +0.000 A 
ATOM      6  C   UNL     1      -2.982  11.467  18.029  0.00  0.00    +0.000 A 
ATOM      7  C   UNL     1      -2.467  10.521  17.150  0.00  0.00    +0.000 A 
ATOM      8  C   UNL     1      -1.241   9.904  17.411  0.00  0.00    +0.000 A 
ATOM      9  C   UNL     1      -0.516  10.238  18.578  0.00  0.00    +0.000 A 
ENDROOT
BRANCH   1  10
ATOM     10  S   UNL     1       1.856   8.769  18.278  0.00  0.00    +0.000 S 
BRANCH  10  11
ATOM     11  C   UNL     1       2.242   7.483  19.494  0.00  0.00    +0.000 C 
BRANCH  11  18
ATOM     12  C   UNL     1       1.347   4.700  20.346  0.00  0.00    +0.000 C 
ATOM     13  C   UNL     1       2.317   4.921  19.217  0.00  0.00    +0.000 A 
ATOM     14  C   UNL     1       2.826   3.795  18.543  0.00  0.00    +0.000 A 
ATOM     15  C   UNL     1       3.741   3.932  17.502  0.00  0.00    +0.000 A 
ATOM     16  C   UNL     1       4.163   5.198  17.119  0.00  0.00    +0.000 A 
ATOM     17  C   UNL     1       3.666   6.327  17.773  0.00  0.00    +0.000 A 
ATOM     18  C   UNL     1       2.732   6.210  18.821  0.00  0.00    +0.000 A 
ENDBRANCH  11  18
ENDBRANCH  10  11
ENDBRANCH   1  10
BRANCH   3  19
ATOM     19  C   UNL     1      -0.293  12.290  21.588  0.00  0.00    +0.000 C 
BRANCH  19  20
ATOM     20  C   UNL     1      -1.217  11.829  22.704  0.00  0.00    +0.000 C 
ATOM     21  O   UNL     1      -0.965  10.846  23.401  0.00  0.00    +0.000 OA
ATOM     22  N   UNL     1      -2.349  12.592  22.937  0.00  0.00    +0.000 N 
ATOM     23  C   UNL     1      -2.738  13.839  22.302  0.00  0.00    +0.000 C 
ATOM     24  C   UNL     1      -3.711  14.462  23.291  0.00  0.00    +0.000 C 
ATOM     25  C   UNL     1      -4.403  13.259  23.920  0.00  0.00    +0.000 C 
ATOM     26  C   UNL     1      -3.345  12.162  23.903  0.00  0.00    +0.000 C 
ENDBRANCH  19  20
ENDBRANCH   3  19
TORSDOF 5
ENDMDL
MODEL 8
REMARK VINA RESULT:      -7.7      2.652      3.540
REMARK  Name = 
REMARK  6 active torsions:
REMARK  status: ('A' for Active; 'I' for Inactive)
REMARK    1  A    between atoms: C_1  and  C_2
REMARK    2  A    between atoms: C_7  and  C_8
REMARK    3  A    between atoms: C_8  and  S_9
REMARK    4  A    between atoms: S_9  and  C_10
REMARK    5  A    between atoms: N_12  and  C_13
REMARK    6  A    between atoms: C_13  and  C_14
REMARK                            x       y       z     vdW  Elec       q    Type
REMARK                         _______ _______ _______ _____ _____    ______ ____
ROOT
ATOM      1  C   UNL     1       3.553   6.341  17.420  0.00  0.00    +0.000 A 
ATOM      2  C   UNL     1       4.671   5.900  16.751  0.00  0.00    +0.000 A 
ATOM      3  N   UNL     1       4.676   4.523  16.795  0.00  0.00    +0.000 N 
ATOM      4  C   UNL     1       3.559   4.063  17.470  0.00  0.00    +0.000 A 
ATOM      5  C   UNL     1       3.136   2.759  17.785  0.00  0.00    +0.000 A 
ATOM      6  C   UNL     1       1.941   2.605  18.498  0.00  0.00    +0.000 A 
ATOM      7  C   UNL     1       1.188   3.711  18.878  0.00  0.00    +0.000 A 
ATOM      8  C   UNL     1       1.619   5.002  18.566  0.00  0.00    +0.000 A 
ATOM      9  C   UNL     1       2.826   5.192  17.856  0.00  0.00    +0.000 A 
ENDROOT
BRANCH   1  10
ATOM     10  S   UNL     1       3.085   7.986  17.806  0.00  0.00    +0.000 S 
BRANCH  10  11
ATOM     11  C   UNL     1       2.172   7.837  19.364  0.00  0.00    +0.000 C 
BRANCH  11  18
ATOM     12  C   UNL     1       1.153   8.802  22.067  0.00  0.00    +0.000 C 
ATOM     13  C   UNL     1       0.676   9.397  20.770  0.00  0.00    +0.000 A 
ATOM     14  C   UNL     1      -0.278  10.430  20.820  0.00  0.00    +0.000 A 
ATOM     15  C   UNL     1      -0.773  11.010  19.654  0.00  0.00    +0.000 A 
ATOM     16  C   UNL     1      -0.322  10.564  18.419  0.00  0.00    +0.000 A 
ATOM     17  C   UNL     1       0.628   9.544  18.349  0.00  0.00    +0.000 A 
ATOM     18  C   UNL     1       1.148   8.952  19.517  0.00  0.00    +0.000 A 
ENDBRANCH  11  18
ENDBRANCH  10  11
ENDBRANCH   1  10
BRANCH   3  19
ATOM     19  C   UNL     1       5.772   3.679  16.321  0.00  0.00    +0.000 C 
BRANCH  19  20
ATOM     20  C   UNL     1       6.838   4.453  15.560  0.00  0.00    +0.000 C 
ATOM     21  O   UNL     1       7.730   5.078  16.134  0.00  0.00    +0.000 OA
ATOM     22  N   UNL     1       6.790   4.393  14.178  0.00  0.00    +0.000 N 
ATOM     23  C   UNL     1       5.894   3.612  13.343  0.00  0.00    +0.000 C 
ATOM     24  C   UNL     1       6.629   3.512  12.014  0.00  0.00    +0.000 C 
ATOM     25  C   UNL     1       7.384   4.833  11.922  0.00  0.00    +0.000 C 
ATOM     26  C   UNL     1       7.695   5.193  13.371  0.00  0.00    +0.000 C 
ENDBRANCH  19  20
ENDBRANCH   3  19
TORSDOF 5
ENDMDL
MODEL 9
REMARK VINA RESULT:      -7.7      1.427      2.283
REMARK  Name = 
REMARK  6 active torsions:
REMARK  status: ('A' for Active; 'I' for Inactive)
REMARK    1  A    between atoms: C_1  and  C_2
REMARK    2  A    between atoms: C_7  and  C_8
REMARK    3  A    between atoms: C_8  and  S_9
REMARK    4  A    between atoms: S_9  and  C_10
REMARK    5  A    between atoms: N_12  and  C_13
REMARK    6  A    between atoms: C_13  and  C_14
REMARK                            x       y       z     vdW  Elec       q    Type
REMARK                         _______ _______ _______ _____ _____    ______ ____
ROOT
ATOM      1  C   UNL     1       2.096   6.477  19.334  0.00  0.00    +0.000 A 
ATOM      2  C   UNL     1       2.890   6.553  18.213  0.00  0.00    +0.000 A 
ATOM      3  N   UNL     1       3.186   5.267  17.815  0.00  0.00    +0.000 N 
ATOM      4  C   UNL     1       2.573   4.354  18.655  0.00  0.00    +0.000 A 
ATOM      5  C   UNL     1       2.591   2.947  18.670  0.00  0.00    +0.000 A 
ATOM      6  C   UNL     1       1.865   2.287  19.668  0.00  0.00    +0.000 A 
ATOM      7  C   UNL     1       1.140   3.000  20.615  0.00  0.00    +0.000 A 
ATOM      8  C   UNL     1       1.133   4.397  20.597  0.00  0.00    +0.000 A 
ATOM      9  C   UNL     1       1.864   5.095  19.609  0.00  0.00    +0.000 A 
ENDROOT
BRANCH   1  10
ATOM     10  S   UNL     1       1.518   7.777  20.358  0.00  0.00    +0.000 S 
BRANCH  10  11
ATOM     11  C   UNL     1       1.708   9.265  19.341  0.00  0.00    +0.000 C 
BRANCH  11  18
ATOM     12  C   UNL     1       0.404  11.227  21.271  0.00  0.00    +0.000 C 
ATOM     13  C   UNL     1      -0.238  10.836  19.968  0.00  0.00    +0.000 A 
ATOM     14  C   UNL     1      -1.486  11.398  19.642  0.00  0.00    +0.000 A 
ATOM     15  C   UNL     1      -2.141  11.064  18.459  0.00  0.00    +0.000 A 
ATOM     16  C   UNL     1      -1.558  10.159  17.583  0.00  0.00    +0.000 A 
ATOM     17  C   UNL     1      -0.317   9.594  17.886  0.00  0.00    +0.000 A 
ATOM     18  C   UNL     1       0.365   9.928  19.072  0.00  0.00    +0.000 A 
ENDBRANCH  11  18
ENDBRANCH  10  11
ENDBRANCH   1  10
BRANCH   3  19
ATOM     19  C   UNL     1       4.123   4.922  16.747  0.00  0.00    +0.000 C 
BRANCH  19  20
ATOM     20  C   UNL     1       5.247   5.933  16.586  0.00  0.00    +0.000 C 
ATOM     21  O   UNL     1       5.255   6.766  15.679  0.00  0.00    +0.000 OA
ATOM     22  N   UNL     1       6.255   5.908  17.535  0.00  0.00    +0.000 N 
ATOM     23  C   UNL     1       6.344   5.086  18.730  0.00  0.00    +0.000 C 
ATOM     24  C   UNL     1       7.317   5.844  19.621  0.00  0.00    +0.000 C 
ATOM     25  C   UNL     1       8.277   6.494  18.632  0.00  0.00    +0.000 C 
ATOM     26  C   UNL     1       7.425   6.758  17.395  0.00  0.00    +0.000 C 
ENDBRANCH  19  20
ENDBRANCH   3  19
TORSDOF 5
ENDMDL
