MODEL 1
REMARK VINA RESULT:      -6.8      0.000      0.000
REMARK  Name = 
REMARK  6 active torsions:
REMARK  status: ('A' for Active; 'I' for Inactive)
REMARK    1  A    between atoms: C_1  and  O_2
REMARK    2  A    between atoms: O_2  and  C_3
REMARK    3  A    between atoms: C_5  and  O_6
REMARK    4  A    between atoms: O_6  and  C_7
REMARK    5  A    between atoms: C_9  and  C_10
REMARK    6  A    between atoms: N_12  and  N_13
REMARK                            x       y       z     vdW  Elec       q    Type
REMARK                         _______ _______ _______ _____ _____    ______ ____
ROOT
ATOM      1  C   UNL     1       6.856   6.113  16.672  0.00  0.00    +0.000 A 
ATOM      2  C   UNL     1       6.875   5.200  15.612  0.00  0.00    +0.000 A 
ATOM      3  C   UNL     1       5.999   4.111  15.588  0.00  0.00    +0.000 A 
ATOM      4  C   UNL     1       5.116   3.928  16.651  0.00  0.00    +0.000 A 
ATOM      5  C   UNL     1       5.073   4.850  17.703  0.00  0.00    +0.000 A 
ATOM      6  C   UNL     1       5.943   5.940  17.714  0.00  0.00    +0.000 A 
ENDROOT
BRANCH   5   7
ATOM      7  C   UNL     1       4.094   4.611  18.794  0.00  0.00    +0.000 C 
ATOM      8  O   UNL     1       3.864   5.519  19.577  0.00  0.00    +0.000 OA
ATOM      9  N   UNL     1       3.549   3.343  18.883  0.00  0.00    +0.000 N 
ATOM     10  H   UNL     1       3.860   2.560  18.328  0.00  0.00    +0.000 HD
BRANCH   9  11
ATOM     11  N   UNL     1       2.731   3.040  19.924  0.00  0.00    +0.000 N 
ATOM     12  C   UNL     1       3.152   2.637  21.148  0.00  0.00    +0.000 A 
ATOM     13  N   UNL     1       2.114   2.568  21.956  0.00  0.00    +0.000 NA
ATOM     14  N   UNL     1       0.995   2.939  21.232  0.00  0.00    +0.000 NA
ATOM     15  C   UNL     1       1.390   3.230  20.011  0.00  0.00    +0.000 A 
ENDBRANCH   9  11
ENDBRANCH   5   7
BRANCH   1  17
ATOM     16  C   UNL     1       7.731   8.086  17.660  0.00  0.00    +0.000 C 
ATOM     17  O   UNL     1       7.750   7.148  16.587  0.00  0.00    +0.000 OA
ENDBRANCH   1  17
BRANCH   3  18
ATOM     18  O   UNL     1       6.070   3.315  14.478  0.00  0.00    +0.000 OA
ATOM     19  C   UNL     1       6.349   3.967  13.241  0.00  0.00    +0.000 C 
ENDBRANCH   3  18
TORSDOF 4
ENDMDL
MODEL 2
REMARK VINA RESULT:      -6.6      0.251      2.820
REMARK  Name = 
REMARK  6 active torsions:
REMARK  status: ('A' for Active; 'I' for Inactive)
REMARK    1  A    between atoms: C_1  and  O_2
REMARK    2  A    between atoms: O_2  and  C_3
REMARK    3  A    between atoms: C_5  and  O_6
REMARK    4  A    between atoms: O_6  and  C_7
REMARK    5  A    between atoms: C_9  and  C_10
REMARK    6  A    between atoms: N_12  and  N_13
REMARK                            x       y       z     vdW  Elec       q    Type
REMARK                         _______ _______ _______ _____ _____    ______ ____
ROOT
ATOM      1  C   UNL     1       5.798   4.210  15.300  0.00  0.00    +0.000 A 
ATOM      2  C   UNL     1       6.766   5.214  15.420  0.00  0.00    +0.000 A 
ATOM      3  C   UNL     1       6.831   6.013  16.566  0.00  0.00    +0.000 A 
ATOM      4  C   UNL     1       5.901   5.813  17.585  0.00  0.00    +0.000 A 
ATOM      5  C   UNL     1       4.946   4.795  17.483  0.00  0.00    +0.000 A 
ATOM      6  C   UNL     1       4.895   3.995  16.341  0.00  0.00    +0.000 A 
ENDROOT
BRANCH   5   7
ATOM      7  C   UNL     1       3.998   4.619  18.613  0.00  0.00    +0.000 C 
ATOM      8  O   UNL     1       3.781   5.572  19.343  0.00  0.00    +0.000 OA
ATOM      9  N   UNL     1       3.465   3.355  18.795  0.00  0.00    +0.000 N 
ATOM     10  H   UNL     1       3.768   2.541  18.282  0.00  0.00    +0.000 HD
BRANCH   9  11
ATOM     11  N   UNL     1       2.678   3.113  19.875  0.00  0.00    +0.000 N 
ATOM     12  C   UNL     1       3.112   2.597  21.050  0.00  0.00    +0.000 A 
ATOM     13  N   UNL     1       2.124   2.628  21.922  0.00  0.00    +0.000 NA
ATOM     14  N   UNL     1       1.026   3.181  21.290  0.00  0.00    +0.000 NA
ATOM     15  C   UNL     1       1.383   3.476  20.057  0.00  0.00    +0.000 A 
ENDBRANCH   9  11
ENDBRANCH   5   7
BRANCH   1  17
ATOM     16  C   UNL     1       6.675   3.987  13.106  0.00  0.00    +0.000 C 
ATOM     17  O   UNL     1       5.834   3.482  14.140  0.00  0.00    +0.000 OA
ENDBRANCH   1  17
BRANCH   3  18
ATOM     18  O   UNL     1       7.850   6.925  16.598  0.00  0.00    +0.000 OA
ATOM     19  C   UNL     1       7.744   7.968  17.564  0.00  0.00    +0.000 C 
ENDBRANCH   3  18
TORSDOF 4
ENDMDL
MODEL 3
REMARK VINA RESULT:      -6.6      0.948      1.085
REMARK  Name = 
REMARK  6 active torsions:
REMARK  status: ('A' for Active; 'I' for Inactive)
REMARK    1  A    between atoms: C_1  and  O_2
REMARK    2  A    between atoms: O_2  and  C_3
REMARK    3  A    between atoms: C_5  and  O_6
REMARK    4  A    between atoms: O_6  and  C_7
REMARK    5  A    between atoms: C_9  and  C_10
REMARK    6  A    between atoms: N_12  and  N_13
REMARK                            x       y       z     vdW  Elec       q    Type
REMARK                         _______ _______ _______ _____ _____    ______ ____
ROOT
ATOM      1  C   UNL     1       7.001   5.918  16.635  0.00  0.00    +0.000 A 
ATOM      2  C   UNL     1       6.817   5.249  15.419  0.00  0.00    +0.000 A 
ATOM      3  C   UNL     1       5.953   4.153  15.328  0.00  0.00    +0.000 A 
ATOM      4  C   UNL     1       5.290   3.716  16.474  0.00  0.00    +0.000 A 
ATOM      5  C   UNL     1       5.449   4.395  17.687  0.00  0.00    +0.000 A 
ATOM      6  C   UNL     1       6.304   5.494  17.767  0.00  0.00    +0.000 A 
ENDROOT
BRANCH   5   7
ATOM      7  C   UNL     1       4.697   3.893  18.866  0.00  0.00    +0.000 C 
ATOM      8  O   UNL     1       5.261   3.128  19.632  0.00  0.00    +0.000 OA
ATOM      9  N   UNL     1       3.376   4.287  18.983  0.00  0.00    +0.000 N 
ATOM     10  H   UNL     1       2.877   4.792  18.266  0.00  0.00    +0.000 HD
BRANCH   9  11
ATOM     11  N   UNL     1       2.613   3.772  19.981  0.00  0.00    +0.000 N 
ATOM     12  C   UNL     1       1.897   2.625  19.896  0.00  0.00    +0.000 A 
ATOM     13  N   UNL     1       1.393   2.346  21.081  0.00  0.00    +0.000 NA
ATOM     14  N   UNL     1       1.799   3.339  21.953  0.00  0.00    +0.000 NA
ATOM     15  C   UNL     1       2.543   4.186  21.272  0.00  0.00    +0.000 A 
ENDBRANCH   9  11
ENDBRANCH   5   7
BRANCH   1  17
ATOM     16  C   UNL     1       7.627   8.008  17.569  0.00  0.00    +0.000 C 
ATOM     17  O   UNL     1       7.861   6.984  16.606  0.00  0.00    +0.000 OA
ENDBRANCH   1  17
BRANCH   3  18
ATOM     18  O   UNL     1       5.810   3.611  14.081  0.00  0.00    +0.000 OA
ATOM     19  C   UNL     1       6.673   4.113  13.063  0.00  0.00    +0.000 C 
ENDBRANCH   3  18
TORSDOF 4
ENDMDL
MODEL 4
REMARK VINA RESULT:      -6.5      1.322      3.176
REMARK  Name = 
REMARK  6 active torsions:
REMARK  status: ('A' for Active; 'I' for Inactive)
REMARK    1  A    between atoms: C_1  and  O_2
REMARK    2  A    between atoms: O_2  and  C_3
REMARK    3  A    between atoms: C_5  and  O_6
REMARK    4  A    between atoms: O_6  and  C_7
REMARK    5  A    between atoms: C_9  and  C_10
REMARK    6  A    between atoms: N_12  and  N_13
REMARK                            x       y       z     vdW  Elec       q    Type
REMARK                         _______ _______ _______ _____ _____    ______ ____
ROOT
ATOM      1  C   UNL     1       6.511   5.390  16.120  0.00  0.00    +0.000 A 
ATOM      2  C   UNL     1       7.369   6.329  16.704  0.00  0.00    +0.000 A 
ATOM      3  C   UNL     1       7.372   6.534  18.087  0.00  0.00    +0.000 A 
ATOM      4  C   UNL     1       6.490   5.805  18.882  0.00  0.00    +0.000 A 
ATOM      5  C   UNL     1       5.647   4.845  18.309  0.00  0.00    +0.000 A 
ATOM      6  C   UNL     1       5.657   4.640  16.930  0.00  0.00    +0.000 A 
ENDROOT
BRANCH   5   7
ATOM      7  C   UNL     1       4.746   4.086  19.214  0.00  0.00    +0.000 C 
ATOM      8  O   UNL     1       5.132   3.014  19.652  0.00  0.00    +0.000 OA
ATOM      9  N   UNL     1       3.494   4.625  19.452  0.00  0.00    +0.000 N 
ATOM     10  H   UNL     1       3.130   5.429  18.965  0.00  0.00    +0.000 HD
BRANCH   9  11
ATOM     11  N   UNL     1       2.593   3.920  20.185  0.00  0.00    +0.000 N 
ATOM     12  C   UNL     1       1.699   3.040  19.673  0.00  0.00    +0.000 A 
ATOM     13  N   UNL     1       1.081   2.432  20.666  0.00  0.00    +0.000 NA
ATOM     14  N   UNL     1       1.596   2.933  21.848  0.00  0.00    +0.000 NA
ATOM     15  C   UNL     1       2.515   3.822  21.536  0.00  0.00    +0.000 A 
ENDBRANCH   9  11
ENDBRANCH   5   7
BRANCH   1  17
ATOM     16  C   UNL     1       6.145   4.030  14.210  0.00  0.00    +0.000 C 
ATOM     17  O   UNL     1       6.599   5.265  14.759  0.00  0.00    +0.000 OA
ENDBRANCH   1  17
BRANCH   3  18
ATOM     18  O   UNL     1       8.288   7.437  18.552  0.00  0.00    +0.000 OA
ATOM     19  C   UNL     1       8.196   8.763  18.038  0.00  0.00    +0.000 C 
ENDBRANCH   3  18
TORSDOF 4
ENDMDL
MODEL 5
REMARK VINA RESULT:      -6.5      1.234      3.155
REMARK  Name = 
REMARK  6 active torsions:
REMARK  status: ('A' for Active; 'I' for Inactive)
REMARK    1  A    between atoms: C_1  and  O_2
REMARK    2  A    between atoms: O_2  and  C_3
REMARK    3  A    between atoms: C_5  and  O_6
REMARK    4  A    between atoms: O_6  and  C_7
REMARK    5  A    between atoms: C_9  and  C_10
REMARK    6  A    between atoms: N_12  and  N_13
REMARK                            x       y       z     vdW  Elec       q    Type
REMARK                         _______ _______ _______ _____ _____    ______ ____
ROOT
ATOM      1  C   UNL     1       6.193   4.052  14.592  0.00  0.00    +0.000 A 
ATOM      2  C   UNL     1       7.021   5.121  14.957  0.00  0.00    +0.000 A 
ATOM      3  C   UNL     1       6.894   5.730  16.209  0.00  0.00    +0.000 A 
ATOM      4  C   UNL     1       5.912   5.276  17.087  0.00  0.00    +0.000 A 
ATOM      5  C   UNL     1       5.097   4.192  16.740  0.00  0.00    +0.000 A 
ATOM      6  C   UNL     1       5.237   3.583  15.494  0.00  0.00    +0.000 A 
ENDROOT
BRANCH   5   7
ATOM      7  C   UNL     1       4.085   3.742  17.730  0.00  0.00    +0.000 C 
ATOM      8  O   UNL     1       3.039   3.266  17.316  0.00  0.00    +0.000 OA
ATOM      9  N   UNL     1       4.377   3.948  19.066  0.00  0.00    +0.000 N 
ATOM     10  H   UNL     1       5.171   4.479  19.390  0.00  0.00    +0.000 HD
BRANCH   9  11
ATOM     11  N   UNL     1       3.442   3.653  20.007  0.00  0.00    +0.000 N 
ATOM     12  C   UNL     1       3.427   2.526  20.757  0.00  0.00    +0.000 A 
ATOM     13  N   UNL     1       2.474   2.626  21.662  0.00  0.00    +0.000 NA
ATOM     14  N   UNL     1       1.862   3.854  21.489  0.00  0.00    +0.000 NA
ATOM     15  C   UNL     1       2.467   4.464  20.492  0.00  0.00    +0.000 A 
ENDBRANCH   9  11
ENDBRANCH   5   7
BRANCH   1  17
ATOM     16  C   UNL     1       5.278   3.454  12.486  0.00  0.00    +0.000 C 
ATOM     17  O   UNL     1       6.412   3.525  13.347  0.00  0.00    +0.000 OA
ENDBRANCH   1  17
BRANCH   3  18
ATOM     18  O   UNL     1       7.790   6.728  16.478  0.00  0.00    +0.000 OA
ATOM     19  C   UNL     1       7.426   7.657  17.496  0.00  0.00    +0.000 C 
ENDBRANCH   3  18
TORSDOF 4
ENDMDL
MODEL 6
REMARK VINA RESULT:      -6.5      0.959      3.016
REMARK  Name = 
REMARK  6 active torsions:
REMARK  status: ('A' for Active; 'I' for Inactive)
REMARK    1  A    between atoms: C_1  and  O_2
REMARK    2  A    between atoms: O_2  and  C_3
REMARK    3  A    between atoms: C_5  and  O_6
REMARK    4  A    between atoms: O_6  and  C_7
REMARK    5  A    between atoms: C_9  and  C_10
REMARK    6  A    between atoms: N_12  and  N_13
REMARK                            x       y       z     vdW  Elec       q    Type
REMARK                         _______ _______ _______ _____ _____    ______ ____
ROOT
ATOM      1  C   UNL     1       5.718   4.329  15.163  0.00  0.00    +0.000 A 
ATOM      2  C   UNL     1       6.578   5.425  15.300  0.00  0.00    +0.000 A 
ATOM      3  C   UNL     1       6.788   6.019  16.549  0.00  0.00    +0.000 A 
ATOM      4  C   UNL     1       6.110   5.520  17.659  0.00  0.00    +0.000 A 
ATOM      5  C   UNL     1       5.268   4.409  17.535  0.00  0.00    +0.000 A 
ATOM      6  C   UNL     1       5.072   3.815  16.289  0.00  0.00    +0.000 A 
ENDROOT
BRANCH   5   7
ATOM      7  C   UNL     1       4.593   3.911  18.761  0.00  0.00    +0.000 C 
ATOM      8  O   UNL     1       5.210   3.164  19.503  0.00  0.00    +0.000 OA
ATOM      9  N   UNL     1       3.275   4.288  18.949  0.00  0.00    +0.000 N 
ATOM     10  H   UNL     1       2.728   4.777  18.256  0.00  0.00    +0.000 HD
BRANCH   9  11
ATOM     11  N   UNL     1       2.577   3.775  19.996  0.00  0.00    +0.000 N 
ATOM     12  C   UNL     1       1.864   2.624  19.962  0.00  0.00    +0.000 A 
ATOM     13  N   UNL     1       1.436   2.350  21.177  0.00  0.00    +0.000 NA
ATOM     14  N   UNL     1       1.890   3.351  22.016  0.00  0.00    +0.000 NA
ATOM     15  C   UNL     1       2.586   4.197  21.286  0.00  0.00    +0.000 A 
ENDBRANCH   9  11
ENDBRANCH   5   7
BRANCH   1  17
ATOM     16  C   UNL     1       6.689   4.057  13.015  0.00  0.00    +0.000 C 
ATOM     17  O   UNL     1       5.595   3.821  13.897  0.00  0.00    +0.000 OA
ENDBRANCH   1  17
BRANCH   3  18
ATOM     18  O   UNL     1       7.690   7.047  16.573  0.00  0.00    +0.000 OA
ATOM     19  C   UNL     1       7.808   7.764  17.799  0.00  0.00    +0.000 C 
ENDBRANCH   3  18
TORSDOF 4
ENDMDL
MODEL 7
REMARK VINA RESULT:      -6.5      1.260      1.498
REMARK  Name = 
REMARK  6 active torsions:
REMARK  status: ('A' for Active; 'I' for Inactive)
REMARK    1  A    between atoms: C_1  and  O_2
REMARK    2  A    between atoms: O_2  and  C_3
REMARK    3  A    between atoms: C_5  and  O_6
REMARK    4  A    between atoms: O_6  and  C_7
REMARK    5  A    between atoms: C_9  and  C_10
REMARK    6  A    between atoms: N_12  and  N_13
REMARK                            x       y       z     vdW  Elec       q    Type
REMARK                         _______ _______ _______ _____ _____    ______ ____
ROOT
ATOM      1  C   UNL     1       6.886   5.726  16.242  0.00  0.00    +0.000 A 
ATOM      2  C   UNL     1       7.058   5.086  15.008  0.00  0.00    +0.000 A 
ATOM      3  C   UNL     1       6.185   4.075  14.598  0.00  0.00    +0.000 A 
ATOM      4  C   UNL     1       5.148   3.689  15.446  0.00  0.00    +0.000 A 
ATOM      5  C   UNL     1       4.954   4.340  16.670  0.00  0.00    +0.000 A 
ATOM      6  C   UNL     1       5.823   5.356  17.067  0.00  0.00    +0.000 A 
ENDROOT
BRANCH   5   7
ATOM      7  C   UNL     1       3.817   3.898  17.517  0.00  0.00    +0.000 C 
ATOM      8  O   UNL     1       2.841   3.410  16.971  0.00  0.00    +0.000 OA
ATOM      9  N   UNL     1       3.921   4.127  18.878  0.00  0.00    +0.000 N 
ATOM     10  H   UNL     1       4.661   4.668  19.299  0.00  0.00    +0.000 HD
BRANCH   9  11
ATOM     11  N   UNL     1       2.867   3.840  19.685  0.00  0.00    +0.000 N 
ATOM     12  C   UNL     1       1.790   4.643  19.867  0.00  0.00    +0.000 A 
ATOM     13  N   UNL     1       0.897   4.002  20.593  0.00  0.00    +0.000 NA
ATOM     14  N   UNL     1       1.413   2.752  20.883  0.00  0.00    +0.000 NA
ATOM     15  C   UNL     1       2.599   2.670  20.317  0.00  0.00    +0.000 A 
ENDBRANCH   9  11
ENDBRANCH   5   7
BRANCH   1  17
ATOM     16  C   UNL     1       7.405   7.642  17.542  0.00  0.00    +0.000 C 
ATOM     17  O   UNL     1       7.794   6.709  16.537  0.00  0.00    +0.000 OA
ENDBRANCH   1  17
BRANCH   3  18
ATOM     18  O   UNL     1       6.416   3.559  13.352  0.00  0.00    +0.000 OA
ATOM     19  C   UNL     1       5.291   3.458  12.483  0.00  0.00    +0.000 C 
ENDBRANCH   3  18
TORSDOF 4
ENDMDL
MODEL 8
REMARK VINA RESULT:      -6.4      1.373      1.471
REMARK  Name = 
REMARK  6 active torsions:
REMARK  status: ('A' for Active; 'I' for Inactive)
REMARK    1  A    between atoms: C_1  and  O_2
REMARK    2  A    between atoms: O_2  and  C_3
REMARK    3  A    between atoms: C_5  and  O_6
REMARK    4  A    between atoms: O_6  and  C_7
REMARK    5  A    between atoms: C_9  and  C_10
REMARK    6  A    between atoms: N_12  and  N_13
REMARK                            x       y       z     vdW  Elec       q    Type
REMARK                         _______ _______ _______ _____ _____    ______ ____
ROOT
ATOM      1  C   UNL     1       7.355   6.470  18.190  0.00  0.00    +0.000 A 
ATOM      2  C   UNL     1       7.192   6.407  16.801  0.00  0.00    +0.000 A 
ATOM      3  C   UNL     1       6.232   5.568  16.229  0.00  0.00    +0.000 A 
ATOM      4  C   UNL     1       5.448   4.770  17.061  0.00  0.00    +0.000 A 
ATOM      5  C   UNL     1       5.586   4.846  18.452  0.00  0.00    +0.000 A 
ATOM      6  C   UNL     1       6.539   5.693  19.015  0.00  0.00    +0.000 A 
ENDROOT
BRANCH   5   7
ATOM      7  C   UNL     1       4.704   3.987  19.283  0.00  0.00    +0.000 C 
ATOM      8  O   UNL     1       5.093   2.867  19.576  0.00  0.00    +0.000 OA
ATOM      9  N   UNL     1       3.465   4.500  19.623  0.00  0.00    +0.000 N 
ATOM     10  H   UNL     1       3.094   5.360  19.248  0.00  0.00    +0.000 HD
BRANCH   9  11
ATOM     11  N   UNL     1       2.579   3.716  20.290  0.00  0.00    +0.000 N 
ATOM     12  C   UNL     1       2.558   3.542  21.633  0.00  0.00    +0.000 A 
ATOM     13  N   UNL     1       1.490   2.840  21.957  0.00  0.00    +0.000 NA
ATOM     14  N   UNL     1       0.805   2.560  20.789  0.00  0.00    +0.000 NA
ATOM     15  C   UNL     1       1.473   3.106  19.795  0.00  0.00    +0.000 A 
ENDBRANCH   9  11
ENDBRANCH   5   7
BRANCH   1  17
ATOM     16  C   UNL     1       8.268   8.659  18.121  0.00  0.00    +0.000 C 
ATOM     17  O   UNL     1       8.318   7.333  18.641  0.00  0.00    +0.000 OA
ENDBRANCH   1  17
BRANCH   3  18
ATOM     18  O   UNL     1       6.125   5.628  14.867  0.00  0.00    +0.000 OA
ATOM     19  C   UNL     1       6.844   4.646  14.126  0.00  0.00    +0.000 C 
ENDBRANCH   3  18
TORSDOF 4
ENDMDL
MODEL 9
REMARK VINA RESULT:      -6.3      3.227      6.828
REMARK  Name = 
REMARK  6 active torsions:
REMARK  status: ('A' for Active; 'I' for Inactive)
REMARK    1  A    between atoms: C_1  and  O_2
REMARK    2  A    between atoms: O_2  and  C_3
REMARK    3  A    between atoms: C_5  and  O_6
REMARK    4  A    between atoms: O_6  and  C_7
REMARK    5  A    between atoms: C_9  and  C_10
REMARK    6  A    between atoms: N_12  and  N_13
REMARK                            x       y       z     vdW  Elec       q    Type
REMARK                         _______ _______ _______ _____ _____    ______ ____
ROOT
ATOM      1  C   UNL     1       1.770   4.226  19.884  0.00  0.00    +0.000 A 
ATOM      2  C   UNL     1       1.391   5.387  20.569  0.00  0.00    +0.000 A 
ATOM      3  C   UNL     1       1.949   6.626  20.242  0.00  0.00    +0.000 A 
ATOM      4  C   UNL     1       2.912   6.692  19.236  0.00  0.00    +0.000 A 
ATOM      5  C   UNL     1       3.278   5.540  18.529  0.00  0.00    +0.000 A 
ATOM      6  C   UNL     1       2.708   4.309  18.854  0.00  0.00    +0.000 A 
ENDROOT
BRANCH   5   7
ATOM      7  C   UNL     1       4.292   5.681  17.453  0.00  0.00    +0.000 C 
ATOM      8  O   UNL     1       4.406   6.763  16.900  0.00  0.00    +0.000 OA
ATOM      9  N   UNL     1       5.004   4.546  17.108  0.00  0.00    +0.000 N 
ATOM     10  H   UNL     1       4.795   3.625  17.463  0.00  0.00    +0.000 HD
BRANCH   9  11
ATOM     11  N   UNL     1       5.867   4.592  16.060  0.00  0.00    +0.000 N 
ATOM     12  C   UNL     1       5.575   4.191  14.799  0.00  0.00    +0.000 A 
ATOM     13  N   UNL     1       6.580   4.506  14.007  0.00  0.00    +0.000 NA
ATOM     14  N   UNL     1       7.542   5.129  14.780  0.00  0.00    +0.000 NA
ATOM     15  C   UNL     1       7.088   5.181  16.014  0.00  0.00    +0.000 A 
ENDBRANCH   9  11
ENDBRANCH   5   7
BRANCH   1  17
ATOM     16  C   UNL     1       1.551   2.544  21.544  0.00  0.00    +0.000 C 
ATOM     17  O   UNL     1       1.152   3.069  20.280  0.00  0.00    +0.000 OA
ENDBRANCH   1  17
BRANCH   3  18
ATOM     18  O   UNL     1       1.466   7.698  20.939  0.00  0.00    +0.000 OA
ATOM     19  C   UNL     1       1.090   8.842  20.175  0.00  0.00    +0.000 C 
ENDBRANCH   3  18
TORSDOF 4
ENDMDL
