MODEL 1
REMARK VINA RESULT:      -7.7      0.000      0.000
REMARK  Name = 
REMARK  7 active torsions:
REMARK  status: ('A' for Active; 'I' for Inactive)
REMARK    1  A    between atoms: C_1  and  S_2
REMARK    2  A    between atoms: S_2  and  C_5
REMARK    3  A    between atoms: C_8  and  N_9
REMARK    4  A    between atoms: N_12  and  N_13
REMARK    5  A    between atoms: N_13  and  C_14
REMARK    6  A    between atoms: C_14  and  N_16
REMARK    7  A    between atoms: N_16  and  C_17
REMARK                            x       y       z     vdW  Elec       q    Type
REMARK                         _______ _______ _______ _____ _____    ______ ____
ROOT
ATOM      1  N   UNL     1       2.563   7.283  20.105  0.00  0.00    +0.000 N 
ATOM      2  C   UNL     1       2.449   5.943  19.798  0.00  0.00    +0.000 C 
ATOM      3  O   UNL     1       1.568   5.407  19.130  0.00  0.00    +0.000 OA
ATOM      4  N   UNL     1       3.472   5.180  20.333  0.00  0.00    +0.000 N 
ATOM      5  H   UNL     1       3.416   7.573  20.558  0.00  0.00    +0.000 HD
ATOM      6  H   UNL     1       4.300   5.572  20.769  0.00  0.00    +0.000 HD
ENDROOT
BRANCH   1  10
ATOM      7  C   UNL     1      -0.137  10.354  19.062  0.00  0.00    +0.000 A 
ATOM      8  C   UNL     1      -0.191   9.812  20.344  0.00  0.00    +0.000 A 
ATOM      9  C   UNL     1       0.696   8.795  20.701  0.00  0.00    +0.000 A 
ATOM     10  C   UNL     1       1.634   8.301  19.788  0.00  0.00    +0.000 A 
ATOM     11  C   UNL     1       1.664   8.848  18.494  0.00  0.00    +0.000 A 
ATOM     12  C   UNL     1       0.777   9.867  18.126  0.00  0.00    +0.000 A 
BRANCH   7  14
ATOM     13  C   UNL     1      -2.180  10.935  17.259  0.00  0.00    +0.000 C 
ATOM     14  S   UNL     1      -1.282  11.639  18.617  0.00  0.00    +0.000 S 
ATOM     15  O   UNL     1      -0.512  12.759  18.114  0.00  0.00    +0.000 OA
ATOM     16  O   UNL     1      -2.201  11.806  19.728  0.00  0.00    +0.000 OA
ENDBRANCH   7  14
ENDBRANCH   1  10
BRANCH   4  17
ATOM     17  N   UNL     1       3.536   3.822  19.953  0.00  0.00    +0.000 N 
ATOM     18  H   UNL     1       2.843   3.227  20.406  0.00  0.00    +0.000 HD
BRANCH  17  19
ATOM     19  C   UNL     1       4.208   3.449  18.799  0.00  0.00    +0.000 C 
ATOM     20  S   UNL     1       3.406   2.744  17.499  0.00  0.00    +0.000 S 
BRANCH  19  21
ATOM     21  N   UNL     1       5.564   3.746  18.872  0.00  0.00    +0.000 N 
ATOM     22  H   UNL     1       6.142   3.072  19.360  0.00  0.00    +0.000 HD
BRANCH  21  23
ATOM     23  C   UNL     1       6.215   4.926  18.447  0.00  0.00    +0.000 A 
ATOM     24  C   UNL     1       5.622   5.704  17.443  0.00  0.00    +0.000 A 
ATOM     25  C   UNL     1       6.222   6.900  17.031  0.00  0.00    +0.000 A 
ATOM     26  C   UNL     1       7.397   7.333  17.646  0.00  0.00    +0.000 A 
ATOM     27  F   UNL     1       7.956   8.485  17.266  0.00  0.00    +0.000 F 
ATOM     28  C   UNL     1       7.979   6.588  18.661  0.00  0.00    +0.000 A 
ATOM     29  C   UNL     1       7.383   5.391  19.062  0.00  0.00    +0.000 A 
ENDBRANCH  21  23
ENDBRANCH  19  21
ENDBRANCH  17  19
ENDBRANCH   4  17
TORSDOF 6
ENDMDL
MODEL 2
REMARK VINA RESULT:      -7.6      0.158      1.374
REMARK  Name = 
REMARK  7 active torsions:
REMARK  status: ('A' for Active; 'I' for Inactive)
REMARK    1  A    between atoms: C_1  and  S_2
REMARK    2  A    between atoms: S_2  and  C_5
REMARK    3  A    between atoms: C_8  and  N_9
REMARK    4  A    between atoms: N_12  and  N_13
REMARK    5  A    between atoms: N_13  and  C_14
REMARK    6  A    between atoms: C_14  and  N_16
REMARK    7  A    between atoms: N_16  and  C_17
REMARK                            x       y       z     vdW  Elec       q    Type
REMARK                         _______ _______ _______ _____ _____    ______ ____
ROOT
ATOM      1  N   UNL     1       2.682   7.223  20.047  0.00  0.00    +0.000 N 
ATOM      2  C   UNL     1       2.514   5.878  19.789  0.00  0.00    +0.000 C 
ATOM      3  O   UNL     1       1.609   5.354  19.144  0.00  0.00    +0.000 OA
ATOM      4  N   UNL     1       3.508   5.095  20.348  0.00  0.00    +0.000 N 
ATOM      5  H   UNL     1       3.549   7.494  20.486  0.00  0.00    +0.000 HD
ATOM      6  H   UNL     1       4.353   5.468  20.767  0.00  0.00    +0.000 HD
ENDROOT
BRANCH   1  10
ATOM      7  C   UNL     1      -0.044  10.300  19.095  0.00  0.00    +0.000 A 
ATOM      8  C   UNL     1       0.868   9.881  18.130  0.00  0.00    +0.000 A 
ATOM      9  C   UNL     1       1.776   8.864  18.432  0.00  0.00    +0.000 A 
ATOM     10  C   UNL     1       1.793   8.265  19.696  0.00  0.00    +0.000 A 
ATOM     11  C   UNL     1       0.878   8.710  20.664  0.00  0.00    +0.000 A 
ATOM     12  C   UNL     1      -0.036   9.730  20.370  0.00  0.00    +0.000 A 
BRANCH   7  14
ATOM     13  C   UNL     1      -2.146  10.923  17.376  0.00  0.00    +0.000 C 
ATOM     14  S   UNL     1      -1.184  11.605  18.701  0.00  0.00    +0.000 S 
ATOM     15  O   UNL     1      -0.415  12.715  18.172  0.00  0.00    +0.000 OA
ATOM     16  O   UNL     1      -2.055  11.782  19.847  0.00  0.00    +0.000 OA
ENDBRANCH   7  14
ENDBRANCH   1  10
BRANCH   4  17
ATOM     17  N   UNL     1       3.516   3.722  20.017  0.00  0.00    +0.000 N 
ATOM     18  H   UNL     1       2.781   3.178  20.468  0.00  0.00    +0.000 HD
BRANCH  17  19
ATOM     19  C   UNL     1       4.204   3.276  18.899  0.00  0.00    +0.000 C 
ATOM     20  S   UNL     1       3.434   2.409  17.677  0.00  0.00    +0.000 S 
BRANCH  19  21
ATOM     21  N   UNL     1       5.542   3.647  18.932  0.00  0.00    +0.000 N 
ATOM     22  H   UNL     1       6.172   3.001  19.394  0.00  0.00    +0.000 HD
BRANCH  21  23
ATOM     23  C   UNL     1       6.113   4.866  18.502  0.00  0.00    +0.000 A 
ATOM     24  C   UNL     1       7.286   5.321  19.120  0.00  0.00    +0.000 A 
ATOM     25  C   UNL     1       7.897   6.504  18.686  0.00  0.00    +0.000 A 
ATOM     26  C   UNL     1       7.353   7.213  17.616  0.00  0.00    +0.000 A 
ATOM     27  F   UNL     1       7.950   8.330  17.190  0.00  0.00    +0.000 F 
ATOM     28  C   UNL     1       6.209   6.758  16.976  0.00  0.00    +0.000 A 
ATOM     29  C   UNL     1       5.597   5.583  17.417  0.00  0.00    +0.000 A 
ENDBRANCH  21  23
ENDBRANCH  19  21
ENDBRANCH  17  19
ENDBRANCH   4  17
TORSDOF 6
ENDMDL
MODEL 3
REMARK VINA RESULT:      -7.6      0.802      1.374
REMARK  Name = 
REMARK  7 active torsions:
REMARK  status: ('A' for Active; 'I' for Inactive)
REMARK    1  A    between atoms: C_1  and  S_2
REMARK    2  A    between atoms: S_2  and  C_5
REMARK    3  A    between atoms: C_8  and  N_9
REMARK    4  A    between atoms: N_12  and  N_13
REMARK    5  A    between atoms: N_13  and  C_14
REMARK    6  A    between atoms: C_14  and  N_16
REMARK    7  A    between atoms: N_16  and  C_17
REMARK                            x       y       z     vdW  Elec       q    Type
REMARK                         _______ _______ _______ _____ _____    ______ ____
ROOT
ATOM      1  N   UNL     1       2.313   7.210  20.382  0.00  0.00    +0.000 N 
ATOM      2  C   UNL     1       2.336   5.949  19.822  0.00  0.00    +0.000 C 
ATOM      3  O   UNL     1       1.786   5.588  18.785  0.00  0.00    +0.000 OA
ATOM      4  N   UNL     1       3.077   5.045  20.563  0.00  0.00    +0.000 N 
ATOM      5  H   UNL     1       2.923   7.366  21.171  0.00  0.00    +0.000 HD
ATOM      6  H   UNL     1       3.668   5.305  21.345  0.00  0.00    +0.000 HD
ENDROOT
BRANCH   1  10
ATOM      7  C   UNL     1       0.021  10.511  19.096  0.00  0.00    +0.000 A 
ATOM      8  C   UNL     1       0.947   9.947  18.221  0.00  0.00    +0.000 A 
ATOM      9  C   UNL     1       1.712   8.855  18.634  0.00  0.00    +0.000 A 
ATOM     10  C   UNL     1       1.573   8.323  19.921  0.00  0.00    +0.000 A 
ATOM     11  C   UNL     1       0.647   8.913  20.796  0.00  0.00    +0.000 A 
ATOM     12  C   UNL     1      -0.124  10.010  20.391  0.00  0.00    +0.000 A 
BRANCH   7  14
ATOM     13  C   UNL     1      -1.885  12.332  19.997  0.00  0.00    +0.000 C 
ATOM     14  S   UNL     1      -0.935  11.910  18.560  0.00  0.00    +0.000 S 
ATOM     15  O   UNL     1      -1.851  11.449  17.535  0.00  0.00    +0.000 OA
ATOM     16  O   UNL     1      -0.008  12.995  18.296  0.00  0.00    +0.000 OA
ENDBRANCH   7  14
ENDBRANCH   1  10
BRANCH   4  17
ATOM     17  N   UNL     1       3.292   3.767  20.002  0.00  0.00    +0.000 N 
ATOM     18  H   UNL     1       2.537   3.103  20.172  0.00  0.00    +0.000 HD
BRANCH  17  19
ATOM     19  C   UNL     1       4.238   3.592  19.004  0.00  0.00    +0.000 C 
ATOM     20  S   UNL     1       3.850   2.862  17.537  0.00  0.00    +0.000 S 
BRANCH  19  21
ATOM     21  N   UNL     1       5.479   4.097  19.374  0.00  0.00    +0.000 N 
ATOM     22  H   UNL     1       5.892   3.696  20.207  0.00  0.00    +0.000 HD
BRANCH  21  23
ATOM     23  C   UNL     1       6.181   5.178  18.794  0.00  0.00    +0.000 A 
ATOM     24  C   UNL     1       5.553   5.936  17.796  0.00  0.00    +0.000 A 
ATOM     25  C   UNL     1       6.207   7.038  17.232  0.00  0.00    +0.000 A 
ATOM     26  C   UNL     1       7.474   7.401  17.690  0.00  0.00    +0.000 A 
ATOM     27  F   UNL     1       8.087   8.466  17.166  0.00  0.00    +0.000 F 
ATOM     28  C   UNL     1       8.094   6.677  18.698  0.00  0.00    +0.000 A 
ATOM     29  C   UNL     1       7.443   5.572  19.251  0.00  0.00    +0.000 A 
ENDBRANCH  21  23
ENDBRANCH  19  21
ENDBRANCH  17  19
ENDBRANCH   4  17
TORSDOF 6
ENDMDL
MODEL 4
REMARK VINA RESULT:      -7.4      5.980      7.981
REMARK  Name = 
REMARK  7 active torsions:
REMARK  status: ('A' for Active; 'I' for Inactive)
REMARK    1  A    between atoms: C_1  and  S_2
REMARK    2  A    between atoms: S_2  and  C_5
REMARK    3  A    between atoms: C_8  and  N_9
REMARK    4  A    between atoms: N_12  and  N_13
REMARK    5  A    between atoms: N_13  and  C_14
REMARK    6  A    between atoms: C_14  and  N_16
REMARK    7  A    between atoms: N_16  and  C_17
REMARK                            x       y       z     vdW  Elec       q    Type
REMARK                         _______ _______ _______ _____ _____    ______ ____
ROOT
ATOM      1  N   UNL     1       7.826   9.127  17.536  0.00  0.00    +0.000 N 
ATOM      2  C   UNL     1       7.906   7.790  17.868  0.00  0.00    +0.000 C 
ATOM      3  O   UNL     1       8.498   7.297  18.825  0.00  0.00    +0.000 OA
ATOM      4  N   UNL     1       7.223   6.974  16.982  0.00  0.00    +0.000 N 
ATOM      5  H   UNL     1       7.195   9.371  16.788  0.00  0.00    +0.000 HD
ATOM      6  H   UNL     1       6.602   7.321  16.260  0.00  0.00    +0.000 HD
ENDROOT
BRANCH   1  10
ATOM      7  C   UNL     1       9.791  12.385  19.361  0.00  0.00    +0.000 A 
ATOM      8  C   UNL     1       9.937  11.113  19.909  0.00  0.00    +0.000 A 
ATOM      9  C   UNL     1       9.293  10.027  19.315  0.00  0.00    +0.000 A 
ATOM     10  C   UNL     1       8.489  10.196  18.182  0.00  0.00    +0.000 A 
ATOM     11  C   UNL     1       8.338  11.488  17.652  0.00  0.00    +0.000 A 
ATOM     12  C   UNL     1       8.980  12.584  18.242  0.00  0.00    +0.000 A 
BRANCH   7  14
ATOM     13  C   UNL     1       9.934  15.167  19.291  0.00  0.00    +0.000 C 
ATOM     14  S   UNL     1      10.606  13.761  20.137  0.00  0.00    +0.000 S 
ATOM     15  O   UNL     1      12.017  13.674  19.814  0.00  0.00    +0.000 OA
ATOM     16  O   UNL     1      10.160  13.808  21.517  0.00  0.00    +0.000 OA
ENDBRANCH   7  14
ENDBRANCH   1  10
BRANCH   4  17
ATOM     17  N   UNL     1       7.113   5.606  17.314  0.00  0.00    +0.000 N 
ATOM     18  H   UNL     1       7.781   5.290  18.016  0.00  0.00    +0.000 HD
BRANCH  17  19
ATOM     19  C   UNL     1       5.961   4.902  17.001  0.00  0.00    +0.000 C 
ATOM     20  S   UNL     1       5.703   4.269  15.462  0.00  0.00    +0.000 S 
BRANCH  19  21
ATOM     21  N   UNL     1       5.109   4.791  18.093  0.00  0.00    +0.000 N 
ATOM     22  H   UNL     1       5.450   5.179  18.965  0.00  0.00    +0.000 HD
BRANCH  21  23
ATOM     23  C   UNL     1       3.875   4.105  18.162  0.00  0.00    +0.000 A 
ATOM     24  C   UNL     1       3.857   2.791  18.651  0.00  0.00    +0.000 A 
ATOM     25  C   UNL     1       2.644   2.101  18.770  0.00  0.00    +0.000 A 
ATOM     26  C   UNL     1       1.450   2.735  18.430  0.00  0.00    +0.000 A 
ATOM     27  F   UNL     1       0.292   2.081  18.564  0.00  0.00    +0.000 F 
ATOM     28  C   UNL     1       1.451   4.045  17.972  0.00  0.00    +0.000 A 
ATOM     29  C   UNL     1       2.662   4.727  17.845  0.00  0.00    +0.000 A 
ENDBRANCH  21  23
ENDBRANCH  19  21
ENDBRANCH  17  19
ENDBRANCH   4  17
TORSDOF 6
ENDMDL
MODEL 5
REMARK VINA RESULT:      -7.4      3.275      4.041
REMARK  Name = 
REMARK  7 active torsions:
REMARK  status: ('A' for Active; 'I' for Inactive)
REMARK    1  A    between atoms: C_1  and  S_2
REMARK    2  A    between atoms: S_2  and  C_5
REMARK    3  A    between atoms: C_8  and  N_9
REMARK    4  A    between atoms: N_12  and  N_13
REMARK    5  A    between atoms: N_13  and  C_14
REMARK    6  A    between atoms: C_14  and  N_16
REMARK    7  A    between atoms: N_16  and  C_17
REMARK                            x       y       z     vdW  Elec       q    Type
REMARK                         _______ _______ _______ _____ _____    ______ ____
ROOT
ATOM      1  N   UNL     1       3.074   7.649  17.486  0.00  0.00    +0.000 N 
ATOM      2  C   UNL     1       4.035   6.711  17.805  0.00  0.00    +0.000 C 
ATOM      3  O   UNL     1       4.330   6.302  18.925  0.00  0.00    +0.000 OA
ATOM      4  N   UNL     1       4.698   6.221  16.693  0.00  0.00    +0.000 N 
ATOM      5  H   UNL     1       2.874   7.776  16.506  0.00  0.00    +0.000 HD
ATOM      6  H   UNL     1       4.412   6.406  15.738  0.00  0.00    +0.000 HD
ENDROOT
BRANCH   1  10
ATOM      7  C   UNL     1       0.781   9.992  20.143  0.00  0.00    +0.000 A 
ATOM      8  C   UNL     1       1.170   8.712  20.531  0.00  0.00    +0.000 A 
ATOM      9  C   UNL     1       1.928   7.927  19.662  0.00  0.00    +0.000 A 
ATOM     10  C   UNL     1       2.296   8.399  18.397  0.00  0.00    +0.000 A 
ATOM     11  C   UNL     1       1.881   9.685  18.014  0.00  0.00    +0.000 A 
ATOM     12  C   UNL     1       1.119  10.480  18.879  0.00  0.00    +0.000 A 
BRANCH   7  14
ATOM     13  C   UNL     1      -1.453  11.655  20.205  0.00  0.00    +0.000 C 
ATOM     14  S   UNL     1      -0.197  10.975  21.255  0.00  0.00    +0.000 S 
ATOM     15  O   UNL     1       0.635  12.065  21.725  0.00  0.00    +0.000 OA
ATOM     16  O   UNL     1      -0.834  10.067  22.191  0.00  0.00    +0.000 OA
ENDBRANCH   7  14
ENDBRANCH   1  10
BRANCH   4  17
ATOM     17  N   UNL     1       5.592   5.147  16.892  0.00  0.00    +0.000 N 
ATOM     18  H   UNL     1       6.087   5.174  17.783  0.00  0.00    +0.000 HD
BRANCH  17  19
ATOM     19  C   UNL     1       5.487   3.998  16.124  0.00  0.00    +0.000 C 
ATOM     20  S   UNL     1       6.064   3.936  14.543  0.00  0.00    +0.000 S 
BRANCH  19  21
ATOM     21  N   UNL     1       4.882   2.961  16.824  0.00  0.00    +0.000 N 
ATOM     22  H   UNL     1       5.170   2.024  16.568  0.00  0.00    +0.000 HD
BRANCH  21  23
ATOM     23  C   UNL     1       3.835   3.051  17.769  0.00  0.00    +0.000 A 
ATOM     24  C   UNL     1       2.537   3.326  17.317  0.00  0.00    +0.000 A 
ATOM     25  C   UNL     1       1.472   3.380  18.225  0.00  0.00    +0.000 A 
ATOM     26  C   UNL     1       1.700   3.127  19.577  0.00  0.00    +0.000 A 
ATOM     27  F   UNL     1       0.679   3.157  20.438  0.00  0.00    +0.000 F 
ATOM     28  C   UNL     1       2.975   2.823  20.033  0.00  0.00    +0.000 A 
ATOM     29  C   UNL     1       4.037   2.781  19.127  0.00  0.00    +0.000 A 
ENDBRANCH  21  23
ENDBRANCH  19  21
ENDBRANCH  17  19
ENDBRANCH   4  17
TORSDOF 6
ENDMDL
MODEL 6
REMARK VINA RESULT:      -7.4      5.732      7.702
REMARK  Name = 
REMARK  7 active torsions:
REMARK  status: ('A' for Active; 'I' for Inactive)
REMARK    1  A    between atoms: C_1  and  S_2
REMARK    2  A    between atoms: S_2  and  C_5
REMARK    3  A    between atoms: C_8  and  N_9
REMARK    4  A    between atoms: N_12  and  N_13
REMARK    5  A    between atoms: N_13  and  C_14
REMARK    6  A    between atoms: C_14  and  N_16
REMARK    7  A    between atoms: N_16  and  C_17
REMARK                            x       y       z     vdW  Elec       q    Type
REMARK                         _______ _______ _______ _____ _____    ______ ____
ROOT
ATOM      1  N   UNL     1       7.845   8.787  17.366  0.00  0.00    +0.000 N 
ATOM      2  C   UNL     1       7.808   7.461  17.745  0.00  0.00    +0.000 C 
ATOM      3  O   UNL     1       8.205   6.981  18.804  0.00  0.00    +0.000 OA
ATOM      4  N   UNL     1       7.249   6.641  16.780  0.00  0.00    +0.000 N 
ATOM      5  H   UNL     1       7.360   9.028  16.514  0.00  0.00    +0.000 HD
ATOM      6  H   UNL     1       6.775   6.985  15.952  0.00  0.00    +0.000 HD
ENDROOT
BRANCH   1  10
ATOM      7  C   UNL     1       9.607  12.033  19.407  0.00  0.00    +0.000 A 
ATOM      8  C   UNL     1       9.665  10.763  19.976  0.00  0.00    +0.000 A 
ATOM      9  C   UNL     1       9.086   9.681  19.311  0.00  0.00    +0.000 A 
ATOM     10  C   UNL     1       8.435   9.852  18.085  0.00  0.00    +0.000 A 
ATOM     11  C   UNL     1       8.370  11.142  17.533  0.00  0.00    +0.000 A 
ATOM     12  C   UNL     1       8.947  12.234  18.193  0.00  0.00    +0.000 A 
BRANCH   7  14
ATOM     13  C   UNL     1       9.456  14.806  19.636  0.00  0.00    +0.000 C 
ATOM     14  S   UNL     1      10.337  13.404  20.272  0.00  0.00    +0.000 S 
ATOM     15  O   UNL     1      11.718  13.508  19.843  0.00  0.00    +0.000 OA
ATOM     16  O   UNL     1      10.002  13.258  21.676  0.00  0.00    +0.000 OA
ENDBRANCH   7  14
ENDBRANCH   1  10
BRANCH   4  17
ATOM     17  N   UNL     1       7.023   5.291  17.127  0.00  0.00    +0.000 N 
ATOM     18  H   UNL     1       7.383   5.029  18.045  0.00  0.00    +0.000 HD
BRANCH  17  19
ATOM     19  C   UNL     1       6.070   4.545  16.451  0.00  0.00    +0.000 C 
ATOM     20  S   UNL     1       5.757   4.788  14.815  0.00  0.00    +0.000 S 
BRANCH  19  21
ATOM     21  N   UNL     1       5.461   3.611  17.280  0.00  0.00    +0.000 N 
ATOM     22  H   UNL     1       5.910   2.705  17.335  0.00  0.00    +0.000 HD
BRANCH  21  23
ATOM     23  C   UNL     1       4.230   3.735  17.964  0.00  0.00    +0.000 A 
ATOM     24  C   UNL     1       4.218   4.324  19.236  0.00  0.00    +0.000 A 
ATOM     25  C   UNL     1       3.009   4.498  19.920  0.00  0.00    +0.000 A 
ATOM     26  C   UNL     1       1.811   4.113  19.319  0.00  0.00    +0.000 A 
ATOM     27  F   UNL     1       0.656   4.299  19.965  0.00  0.00    +0.000 F 
ATOM     28  C   UNL     1       1.806   3.556  18.048  0.00  0.00    +0.000 A 
ATOM     29  C   UNL     1       3.014   3.374  17.373  0.00  0.00    +0.000 A 
ENDBRANCH  21  23
ENDBRANCH  19  21
ENDBRANCH  17  19
ENDBRANCH   4  17
TORSDOF 6
ENDMDL
MODEL 7
REMARK VINA RESULT:      -7.3      5.761      8.003
REMARK  Name = 
REMARK  7 active torsions:
REMARK  status: ('A' for Active; 'I' for Inactive)
REMARK    1  A    between atoms: C_1  and  S_2
REMARK    2  A    between atoms: S_2  and  C_5
REMARK    3  A    between atoms: C_8  and  N_9
REMARK    4  A    between atoms: N_12  and  N_13
REMARK    5  A    between atoms: N_13  and  C_14
REMARK    6  A    between atoms: C_14  and  N_16
REMARK    7  A    between atoms: N_16  and  C_17
REMARK                            x       y       z     vdW  Elec       q    Type
REMARK                         _______ _______ _______ _____ _____    ______ ____
ROOT
ATOM      1  N   UNL     1       8.931   8.718  19.171  0.00  0.00    +0.000 N 
ATOM      2  C   UNL     1       8.169   8.018  18.259  0.00  0.00    +0.000 C 
ATOM      3  O   UNL     1       7.673   8.448  17.220  0.00  0.00    +0.000 OA
ATOM      4  N   UNL     1       7.982   6.694  18.617  0.00  0.00    +0.000 N 
ATOM      5  H   UNL     1       9.365   8.180  19.906  0.00  0.00    +0.000 HD
ATOM      6  H   UNL     1       8.475   6.240  19.378  0.00  0.00    +0.000 HD
ENDROOT
BRANCH   1  10
ATOM      7  C   UNL     1       9.752  12.857  19.196  0.00  0.00    +0.000 A 
ATOM      8  C   UNL     1       9.671  12.190  17.976  0.00  0.00    +0.000 A 
ATOM      9  C   UNL     1       9.401  10.821  17.954  0.00  0.00    +0.000 A 
ATOM     10  C   UNL     1       9.221  10.102  19.140  0.00  0.00    +0.000 A 
ATOM     11  C   UNL     1       9.322  10.786  20.363  0.00  0.00    +0.000 A 
ATOM     12  C   UNL     1       9.594  12.159  20.395  0.00  0.00    +0.000 A 
BRANCH   7  14
ATOM     13  C   UNL     1      11.876  14.651  19.378  0.00  0.00    +0.000 C 
ATOM     14  S   UNL     1      10.111  14.598  19.209  0.00  0.00    +0.000 S 
ATOM     15  O   UNL     1       9.527  15.158  20.412  0.00  0.00    +0.000 OA
ATOM     16  O   UNL     1       9.767  15.121  17.900  0.00  0.00    +0.000 OA
ENDBRANCH   7  14
ENDBRANCH   1  10
BRANCH   4  17
ATOM     17  N   UNL     1       7.347   5.851  17.679  0.00  0.00    +0.000 N 
ATOM     18  H   UNL     1       7.975   5.199  17.210  0.00  0.00    +0.000 HD
BRANCH  17  19
ATOM     19  C   UNL     1       5.971   5.682  17.710  0.00  0.00    +0.000 C 
ATOM     20  S   UNL     1       5.046   5.715  16.303  0.00  0.00    +0.000 S 
BRANCH  19  21
ATOM     21  N   UNL     1       5.504   5.477  19.002  0.00  0.00    +0.000 N 
ATOM     22  H   UNL     1       6.091   5.828  19.749  0.00  0.00    +0.000 HD
BRANCH  21  23
ATOM     23  C   UNL     1       4.367   4.740  19.404  0.00  0.00    +0.000 A 
ATOM     24  C   UNL     1       4.432   3.340  19.404  0.00  0.00    +0.000 A 
ATOM     25  C   UNL     1       3.335   2.584  19.837  0.00  0.00    +0.000 A 
ATOM     26  C   UNL     1       2.188   3.229  20.298  0.00  0.00    +0.000 A 
ATOM     27  F   UNL     1       1.151   2.506  20.731  0.00  0.00    +0.000 F 
ATOM     28  C   UNL     1       2.121   4.614  20.331  0.00  0.00    +0.000 A 
ATOM     29  C   UNL     1       3.213   5.365  19.890  0.00  0.00    +0.000 A 
ENDBRANCH  21  23
ENDBRANCH  19  21
ENDBRANCH  17  19
ENDBRANCH   4  17
TORSDOF 6
ENDMDL
MODEL 8
REMARK VINA RESULT:      -7.3      5.890      8.053
REMARK  Name = 
REMARK  7 active torsions:
REMARK  status: ('A' for Active; 'I' for Inactive)
REMARK    1  A    between atoms: C_1  and  S_2
REMARK    2  A    between atoms: S_2  and  C_5
REMARK    3  A    between atoms: C_8  and  N_9
REMARK    4  A    between atoms: N_12  and  N_13
REMARK    5  A    between atoms: N_13  and  C_14
REMARK    6  A    between atoms: C_14  and  N_16
REMARK    7  A    between atoms: N_16  and  C_17
REMARK                            x       y       z     vdW  Elec       q    Type
REMARK                         _______ _______ _______ _____ _____    ______ ____
ROOT
ATOM      1  N   UNL     1       8.864   8.721  19.152  0.00  0.00    +0.000 N 
ATOM      2  C   UNL     1       8.157   8.057  18.171  0.00  0.00    +0.000 C 
ATOM      3  O   UNL     1       7.774   8.510  17.095  0.00  0.00    +0.000 OA
ATOM      4  N   UNL     1       7.884   6.741  18.504  0.00  0.00    +0.000 N 
ATOM      5  H   UNL     1       9.208   8.164  19.919  0.00  0.00    +0.000 HD
ATOM      6  H   UNL     1       8.287   6.265  19.303  0.00  0.00    +0.000 HD
ENDROOT
BRANCH   1  10
ATOM      7  C   UNL     1       9.863  12.819  19.279  0.00  0.00    +0.000 A 
ATOM      8  C   UNL     1       9.752  12.187  18.043  0.00  0.00    +0.000 A 
ATOM      9  C   UNL     1       9.422  10.832  17.986  0.00  0.00    +0.000 A 
ATOM     10  C   UNL     1       9.213  10.092  19.155  0.00  0.00    +0.000 A 
ATOM     11  C   UNL     1       9.346  10.739  20.394  0.00  0.00    +0.000 A 
ATOM     12  C   UNL     1       9.677  12.099  20.460  0.00  0.00    +0.000 A 
BRANCH   7  14
ATOM     13  C   UNL     1      10.709  14.916  17.650  0.00  0.00    +0.000 C 
ATOM     14  S   UNL     1      10.298  14.542  19.334  0.00  0.00    +0.000 S 
ATOM     15  O   UNL     1      11.504  14.665  20.130  0.00  0.00    +0.000 OA
ATOM     16  O   UNL     1       9.098  15.281  19.681  0.00  0.00    +0.000 OA
ENDBRANCH   7  14
ENDBRANCH   1  10
BRANCH   4  17
ATOM     17  N   UNL     1       7.299   5.928  17.508  0.00  0.00    +0.000 N 
ATOM     18  H   UNL     1       7.972   5.418  16.936  0.00  0.00    +0.000 HD
BRANCH  17  19
ATOM     19  C   UNL     1       5.961   5.577  17.589  0.00  0.00    +0.000 C 
ATOM     20  S   UNL     1       4.736   6.694  17.297  0.00  0.00    +0.000 S 
BRANCH  19  21
ATOM     21  N   UNL     1       5.796   4.235  17.913  0.00  0.00    +0.000 N 
ATOM     22  H   UNL     1       6.616   3.650  17.812  0.00  0.00    +0.000 HD
BRANCH  21  23
ATOM     23  C   UNL     1       4.597   3.570  18.256  0.00  0.00    +0.000 A 
ATOM     24  C   UNL     1       4.232   3.484  19.606  0.00  0.00    +0.000 A 
ATOM     25  C   UNL     1       3.030   2.866  19.972  0.00  0.00    +0.000 A 
ATOM     26  C   UNL     1       2.180   2.365  18.987  0.00  0.00    +0.000 A 
ATOM     27  F   UNL     1       1.023   1.796  19.338  0.00  0.00    +0.000 F 
ATOM     28  C   UNL     1       2.515   2.470  17.645  0.00  0.00    +0.000 A 
ATOM     29  C   UNL     1       3.719   3.077  17.283  0.00  0.00    +0.000 A 
ENDBRANCH  21  23
ENDBRANCH  19  21
ENDBRANCH  17  19
ENDBRANCH   4  17
TORSDOF 6
ENDMDL
MODEL 9
REMARK VINA RESULT:      -7.3      5.766      7.760
REMARK  Name = 
REMARK  7 active torsions:
REMARK  status: ('A' for Active; 'I' for Inactive)
REMARK    1  A    between atoms: C_1  and  S_2
REMARK    2  A    between atoms: S_2  and  C_5
REMARK    3  A    between atoms: C_8  and  N_9
REMARK    4  A    between atoms: N_12  and  N_13
REMARK    5  A    between atoms: N_13  and  C_14
REMARK    6  A    between atoms: C_14  and  N_16
REMARK    7  A    between atoms: N_16  and  C_17
REMARK                            x       y       z     vdW  Elec       q    Type
REMARK                         _______ _______ _______ _____ _____    ______ ____
ROOT
ATOM      1  N   UNL     1       7.722   8.974  17.417  0.00  0.00    +0.000 N 
ATOM      2  C   UNL     1       7.778   7.646  17.787  0.00  0.00    +0.000 C 
ATOM      3  O   UNL     1       8.348   7.172  18.767  0.00  0.00    +0.000 OA
ATOM      4  N   UNL     1       7.099   6.816  16.913  0.00  0.00    +0.000 N 
ATOM      5  H   UNL     1       7.106   9.206  16.653  0.00  0.00    +0.000 HD
ATOM      6  H   UNL     1       6.494   7.150  16.171  0.00  0.00    +0.000 HD
ENDROOT
BRANCH   1  10
ATOM      7  C   UNL     1       9.697  12.256  19.187  0.00  0.00    +0.000 A 
ATOM      8  C   UNL     1       9.859  10.989  19.741  0.00  0.00    +0.000 A 
ATOM      9  C   UNL     1       9.212   9.895  19.166  0.00  0.00    +0.000 A 
ATOM     10  C   UNL     1       8.389  10.051  18.045  0.00  0.00    +0.000 A 
ATOM     11  C   UNL     1       8.222  11.338  17.508  0.00  0.00    +0.000 A 
ATOM     12  C   UNL     1       8.868  12.442  18.079  0.00  0.00    +0.000 A 
BRANCH   7  14
ATOM     13  C   UNL     1       9.941  13.599  21.616  0.00  0.00    +0.000 C 
ATOM     14  S   UNL     1      10.517  13.642  19.940  0.00  0.00    +0.000 S 
ATOM     15  O   UNL     1      10.003  14.847  19.318  0.00  0.00    +0.000 OA
ATOM     16  O   UNL     1      11.940  13.355  19.943  0.00  0.00    +0.000 OA
ENDBRANCH   7  14
ENDBRANCH   1  10
BRANCH   4  17
ATOM     17  N   UNL     1       6.964   5.458  17.279  0.00  0.00    +0.000 N 
ATOM     18  H   UNL     1       7.283   5.246  18.224  0.00  0.00    +0.000 HD
BRANCH  17  19
ATOM     19  C   UNL     1       6.123   4.621  16.563  0.00  0.00    +0.000 C 
ATOM     20  S   UNL     1       5.957   4.755  14.893  0.00  0.00    +0.000 S 
BRANCH  19  21
ATOM     21  N   UNL     1       5.489   3.697  17.385  0.00  0.00    +0.000 N 
ATOM     22  H   UNL     1       5.912   2.778  17.431  0.00  0.00    +0.000 HD
BRANCH  21  23
ATOM     23  C   UNL     1       4.265   3.851  18.075  0.00  0.00    +0.000 A 
ATOM     24  C   UNL     1       3.087   4.022  17.334  0.00  0.00    +0.000 A 
ATOM     25  C   UNL     1       1.854   4.134  17.989  0.00  0.00    +0.000 A 
ATOM     26  C   UNL     1       1.797   4.044  19.379  0.00  0.00    +0.000 A 
ATOM     27  F   UNL     1       0.617   4.130  20.000  0.00  0.00    +0.000 F 
ATOM     28  C   UNL     1       2.952   3.845  20.122  0.00  0.00    +0.000 A 
ATOM     29  C   UNL     1       4.181   3.743  19.467  0.00  0.00    +0.000 A 
ENDBRANCH  21  23
ENDBRANCH  19  21
ENDBRANCH  17  19
ENDBRANCH   4  17
TORSDOF 6
ENDMDL
