MODEL 1
REMARK VINA RESULT:      -7.1      0.000      0.000
REMARK  Name = 
REMARK  7 active torsions:
REMARK  status: ('A' for Active; 'I' for Inactive)
REMARK    1  A    between atoms: C_1  and  N_2
REMARK    2  A    between atoms: C_5  and  O_6
REMARK    3  A    between atoms: O_6  and  C_7
REMARK    4  A    between atoms: C_7  and  C_8
REMARK    5  A    between atoms: C_8  and  O_9
REMARK    6  A    between atoms: C_8  and  C_10
REMARK    7  A    between atoms: C_10  and  N_11
REMARK                            x       y       z     vdW  Elec       q    Type
REMARK                         _______ _______ _______ _____ _____    ______ ____
ROOT
ATOM      1  C   UNL     1       7.651   7.107  17.766  0.00  0.00    +0.000 C 
ENDROOT
BRANCH   1   2
ATOM      2  O   UNL     1       8.017   6.654  19.080  0.00  0.00    +0.000 OA
ATOM      3  H   UNL     1       7.381   7.021  19.716  0.00  0.00    +0.000 HD
ENDBRANCH   1   2
BRANCH   1   4
ATOM      4  C   UNL     1       7.960   8.607  17.665  0.00  0.00    +0.000 C 
BRANCH   4   5
ATOM      5  O   UNL     1       8.792   8.993  18.759  0.00  0.00    +0.000 OA
BRANCH   5  10
ATOM      6  C   UNL     1      11.772  12.440  17.910  0.00  0.00    +0.000 C 
ATOM      7  N   UNL     1      10.557  12.050  18.613  0.00  0.00    +0.000 NA
ATOM      8  C   UNL     1      10.839  11.410  19.900  0.00  0.00    +0.000 C 
ATOM      9  C   UNL     1       9.517  10.742  20.255  0.00  0.00    +0.000 C 
ATOM     10  C   UNL     1       8.876  10.410  18.906  0.00  0.00    +0.000 C 
ATOM     11  C   UNL     1       9.813  11.036  17.866  0.00  0.00    +0.000 C 
ENDBRANCH   5  10
ENDBRANCH   4   5
ENDBRANCH   1   4
BRANCH   1  12
ATOM     12  C   UNL     1       6.142   6.884  17.475  0.00  0.00    +0.000 C 
BRANCH  12  13
ATOM     13  N   UNL     1       5.502   5.743  18.156  0.00  0.00    +0.000 NA
ATOM     14  C   UNL     1       5.776   4.469  17.462  0.00  0.00    +0.000 C 
ATOM     15  C   UNL     1       4.599   3.861  16.684  0.00  0.00    +0.000 C 
ATOM     16  C   UNL     1       3.418   3.729  17.606  0.00  0.00    +0.000 A 
ATOM     17  C   UNL     1       2.540   2.644  17.573  0.00  0.00    +0.000 A 
ATOM     18  C   UNL     1       1.461   2.600  18.451  0.00  0.00    +0.000 A 
ATOM     19  C   UNL     1       1.243   3.642  19.354  0.00  0.00    +0.000 A 
ATOM     20  C   UNL     1       2.107   4.735  19.382  0.00  0.00    +0.000 A 
ATOM     21  C   UNL     1       3.201   4.776  18.513  0.00  0.00    +0.000 A 
ATOM     22  C   UNL     1       4.072   6.001  18.414  0.00  0.00    +0.000 C 
ENDBRANCH  12  13
ENDBRANCH   1  12
TORSDOF 6
ENDMDL
MODEL 2
REMARK VINA RESULT:      -7.1      4.911      6.829
REMARK  Name = 
REMARK  7 active torsions:
REMARK  status: ('A' for Active; 'I' for Inactive)
REMARK    1  A    between atoms: C_1  and  N_2
REMARK    2  A    between atoms: C_5  and  O_6
REMARK    3  A    between atoms: O_6  and  C_7
REMARK    4  A    between atoms: C_7  and  C_8
REMARK    5  A    between atoms: C_8  and  O_9
REMARK    6  A    between atoms: C_8  and  C_10
REMARK    7  A    between atoms: C_10  and  N_11
REMARK                            x       y       z     vdW  Elec       q    Type
REMARK                         _______ _______ _______ _____ _____    ______ ____
ROOT
ATOM      1  C   UNL     1       1.982   3.632  20.484  0.00  0.00    +0.000 C 
ENDROOT
BRANCH   1   2
ATOM      2  O   UNL     1       0.956   2.965  21.237  0.00  0.00    +0.000 OA
ATOM      3  H   UNL     1       0.966   2.024  20.997  0.00  0.00    +0.000 HD
ENDBRANCH   1   2
BRANCH   1   4
ATOM      4  C   UNL     1       1.741   5.145  20.568  0.00  0.00    +0.000 C 
BRANCH   4   5
ATOM      5  O   UNL     1       2.037   5.742  19.304  0.00  0.00    +0.000 OA
BRANCH   5  10
ATOM      6  C   UNL     1       0.428  10.056  19.828  0.00  0.00    +0.000 C 
ATOM      7  N   UNL     1       1.589   9.240  19.495  0.00  0.00    +0.000 NA
ATOM      8  C   UNL     1       1.608   8.850  18.083  0.00  0.00    +0.000 C 
ATOM      9  C   UNL     1       2.625   7.716  18.049  0.00  0.00    +0.000 C 
ATOM     10  C   UNL     1       2.535   7.072  19.434  0.00  0.00    +0.000 C 
ATOM     11  C   UNL     1       1.569   7.969  20.217  0.00  0.00    +0.000 C 
ENDBRANCH   5  10
ENDBRANCH   4   5
ENDBRANCH   1   4
BRANCH   1  12
ATOM     12  C   UNL     1       1.979   3.203  18.992  0.00  0.00    +0.000 C 
BRANCH  12  13
ATOM     13  N   UNL     1       3.294   2.946  18.378  0.00  0.00    +0.000 NA
ATOM     14  C   UNL     1       4.393   3.115  19.350  0.00  0.00    +0.000 C 
ATOM     15  C   UNL     1       5.256   4.376  19.177  0.00  0.00    +0.000 C 
ATOM     16  C   UNL     1       5.773   4.426  17.765  0.00  0.00    +0.000 A 
ATOM     17  C   UNL     1       7.055   4.867  17.436  0.00  0.00    +0.000 A 
ATOM     18  C   UNL     1       7.457   4.897  16.104  0.00  0.00    +0.000 A 
ATOM     19  C   UNL     1       6.578   4.502  15.094  0.00  0.00    +0.000 A 
ATOM     20  C   UNL     1       5.291   4.076  15.414  0.00  0.00    +0.000 A 
ATOM     21  C   UNL     1       4.889   4.029  16.752  0.00  0.00    +0.000 A 
ATOM     22  C   UNL     1       3.465   3.710  17.128  0.00  0.00    +0.000 C 
ENDBRANCH  12  13
ENDBRANCH   1  12
TORSDOF 6
ENDMDL
MODEL 3
REMARK VINA RESULT:      -7.0      4.079      6.184
REMARK  Name = 
REMARK  7 active torsions:
REMARK  status: ('A' for Active; 'I' for Inactive)
REMARK    1  A    between atoms: C_1  and  N_2
REMARK    2  A    between atoms: C_5  and  O_6
REMARK    3  A    between atoms: O_6  and  C_7
REMARK    4  A    between atoms: C_7  and  C_8
REMARK    5  A    between atoms: C_8  and  O_9
REMARK    6  A    between atoms: C_8  and  C_10
REMARK    7  A    between atoms: C_10  and  N_11
REMARK                            x       y       z     vdW  Elec       q    Type
REMARK                         _______ _______ _______ _____ _____    ______ ____
ROOT
ATOM      1  C   UNL     1       7.417   5.671  17.373  0.00  0.00    +0.000 C 
ENDROOT
BRANCH   1   2
ATOM      2  O   UNL     1       7.707   6.929  16.744  0.00  0.00    +0.000 OA
ATOM      3  H   UNL     1       8.613   6.895  16.398  0.00  0.00    +0.000 HD
ENDBRANCH   1   2
BRANCH   1   4
ATOM      4  C   UNL     1       6.830   4.723  16.319  0.00  0.00    +0.000 C 
BRANCH   4   5
ATOM      5  O   UNL     1       7.601   4.813  15.119  0.00  0.00    +0.000 OA
BRANCH   5  10
ATOM      6  C   UNL     1       5.607   2.298  11.776  0.00  0.00    +0.000 C 
ATOM      7  N   UNL     1       5.993   3.637  12.202  0.00  0.00    +0.000 NA
ATOM      8  C   UNL     1       7.387   3.947  11.874  0.00  0.00    +0.000 C 
ATOM      9  C   UNL     1       7.685   5.167  12.735  0.00  0.00    +0.000 C 
ATOM     10  C   UNL     1       6.788   5.004  13.963  0.00  0.00    +0.000 C 
ATOM     11  C   UNL     1       5.932   3.770  13.658  0.00  0.00    +0.000 C 
ENDBRANCH   5  10
ENDBRANCH   4   5
ENDBRANCH   1   4
BRANCH   1  12
ATOM     12  C   UNL     1       6.399   5.824  18.535  0.00  0.00    +0.000 C 
BRANCH  12  13
ATOM     13  N   UNL     1       5.097   5.154  18.362  0.00  0.00    +0.000 NA
ATOM     14  C   UNL     1       3.999   6.126  18.196  0.00  0.00    +0.000 C 
ATOM     15  C   UNL     1       3.054   6.285  19.397  0.00  0.00    +0.000 C 
ATOM     16  C   UNL     1       2.520   4.932  19.782  0.00  0.00    +0.000 A 
ATOM     17  C   UNL     1       1.208   4.720  20.208  0.00  0.00    +0.000 A 
ATOM     18  C   UNL     1       0.792   3.439  20.560  0.00  0.00    +0.000 A 
ATOM     19  C   UNL     1       1.686   2.368  20.505  0.00  0.00    +0.000 A 
ATOM     20  C   UNL     1       3.001   2.575  20.096  0.00  0.00    +0.000 A 
ATOM     21  C   UNL     1       3.419   3.856  19.726  0.00  0.00    +0.000 A 
ATOM     22  C   UNL     1       4.864   4.147  19.415  0.00  0.00    +0.000 C 
ENDBRANCH  12  13
ENDBRANCH   1  12
TORSDOF 6
ENDMDL
MODEL 4
REMARK VINA RESULT:      -6.9      4.546      8.095
REMARK  Name = 
REMARK  7 active torsions:
REMARK  status: ('A' for Active; 'I' for Inactive)
REMARK    1  A    between atoms: C_1  and  N_2
REMARK    2  A    between atoms: C_5  and  O_6
REMARK    3  A    between atoms: O_6  and  C_7
REMARK    4  A    between atoms: C_7  and  C_8
REMARK    5  A    between atoms: C_8  and  O_9
REMARK    6  A    between atoms: C_8  and  C_10
REMARK    7  A    between atoms: C_10  and  N_11
REMARK                            x       y       z     vdW  Elec       q    Type
REMARK                         _______ _______ _______ _____ _____    ______ ____
ROOT
ATOM      1  C   UNL     1       3.884   5.850  17.491  0.00  0.00    +0.000 C 
ENDROOT
BRANCH   1   2
ATOM      2  O   UNL     1       4.308   7.136  17.973  0.00  0.00    +0.000 OA
ATOM      3  H   UNL     1       5.278   7.139  18.016  0.00  0.00    +0.000 HD
ENDBRANCH   1   2
BRANCH   1   4
ATOM      4  C   UNL     1       2.487   5.557  18.055  0.00  0.00    +0.000 C 
BRANCH   4   5
ATOM      5  O   UNL     1       1.952   4.398  17.415  0.00  0.00    +0.000 OA
BRANCH   5  10
ATOM      6  C   UNL     1       2.151   3.118  21.865  0.00  0.00    +0.000 C 
ATOM      7  N   UNL     1       1.593   2.816  20.553  0.00  0.00    +0.000 NA
ATOM      8  C   UNL     1       2.505   2.017  19.730  0.00  0.00    +0.000 C 
ATOM      9  C   UNL     1       1.928   2.165  18.328  0.00  0.00    +0.000 C 
ATOM     10  C   UNL     1       1.263   3.542  18.325  0.00  0.00    +0.000 C 
ATOM     11  C   UNL     1       1.383   4.034  19.772  0.00  0.00    +0.000 C 
ENDBRANCH   5  10
ENDBRANCH   4   5
ENDBRANCH   1   4
BRANCH   1  12
ATOM     12  C   UNL     1       4.851   4.718  17.931  0.00  0.00    +0.000 C 
BRANCH  12  13
ATOM     13  N   UNL     1       5.667   4.101  16.870  0.00  0.00    +0.000 NA
ATOM     14  C   UNL     1       7.040   4.641  16.853  0.00  0.00    +0.000 C 
ATOM     15  C   UNL     1       7.374   5.592  15.692  0.00  0.00    +0.000 C 
ATOM     16  C   UNL     1       7.048   4.910  14.391  0.00  0.00    +0.000 A 
ATOM     17  C   UNL     1       7.829   5.041  13.242  0.00  0.00    +0.000 A 
ATOM     18  C   UNL     1       7.454   4.388  12.071  0.00  0.00    +0.000 A 
ATOM     19  C   UNL     1       6.291   3.616  12.036  0.00  0.00    +0.000 A 
ATOM     20  C   UNL     1       5.498   3.494  13.175  0.00  0.00    +0.000 A 
ATOM     21  C   UNL     1       5.880   4.134  14.357  0.00  0.00    +0.000 A 
ATOM     22  C   UNL     1       4.980   4.144  15.565  0.00  0.00    +0.000 C 
ENDBRANCH  12  13
ENDBRANCH   1  12
TORSDOF 6
ENDMDL
MODEL 5
REMARK VINA RESULT:      -6.8      1.401      1.972
REMARK  Name = 
REMARK  7 active torsions:
REMARK  status: ('A' for Active; 'I' for Inactive)
REMARK    1  A    between atoms: C_1  and  N_2
REMARK    2  A    between atoms: C_5  and  O_6
REMARK    3  A    between atoms: O_6  and  C_7
REMARK    4  A    between atoms: C_7  and  C_8
REMARK    5  A    between atoms: C_8  and  O_9
REMARK    6  A    between atoms: C_8  and  C_10
REMARK    7  A    between atoms: C_10  and  N_11
REMARK                            x       y       z     vdW  Elec       q    Type
REMARK                         _______ _______ _______ _____ _____    ______ ____
ROOT
ATOM      1  C   UNL     1       7.291   7.284  17.655  0.00  0.00    +0.000 C 
ENDROOT
BRANCH   1   2
ATOM      2  O   UNL     1       7.865   6.918  16.389  0.00  0.00    +0.000 OA
ATOM      3  H   UNL     1       7.147   6.845  15.740  0.00  0.00    +0.000 HD
ENDBRANCH   1   2
BRANCH   1   4
ATOM      4  C   UNL     1       8.319   8.118  18.432  0.00  0.00    +0.000 C 
BRANCH   4   5
ATOM      5  O   UNL     1       8.147   9.499  18.113  0.00  0.00    +0.000 OA
BRANCH   5  10
ATOM      6  C   UNL     1       9.642  12.375  21.425  0.00  0.00    +0.000 C 
ATOM      7  N   UNL     1       9.866  11.883  20.072  0.00  0.00    +0.000 NA
ATOM      8  C   UNL     1       9.054  12.593  19.080  0.00  0.00    +0.000 C 
ATOM      9  C   UNL     1       9.127  11.688  17.858  0.00  0.00    +0.000 C 
ATOM     10  C   UNL     1       9.299  10.279  18.427  0.00  0.00    +0.000 C 
ATOM     11  C   UNL     1       9.452  10.487  19.938  0.00  0.00    +0.000 C 
ENDBRANCH   5  10
ENDBRANCH   4   5
ENDBRANCH   1   4
BRANCH   1  12
ATOM     12  C   UNL     1       6.911   6.039  18.500  0.00  0.00    +0.000 C 
BRANCH  12  13
ATOM     13  N   UNL     1       5.888   5.144  17.930  0.00  0.00    +0.000 NA
ATOM     14  C   UNL     1       4.882   5.891  17.150  0.00  0.00    +0.000 C 
ATOM     15  C   UNL     1       3.497   6.035  17.801  0.00  0.00    +0.000 C 
ATOM     16  C   UNL     1       2.985   4.669  18.171  0.00  0.00    +0.000 A 
ATOM     17  C   UNL     1       1.647   4.295  18.047  0.00  0.00    +0.000 A 
ATOM     18  C   UNL     1       1.248   3.015  18.423  0.00  0.00    +0.000 A 
ATOM     19  C   UNL     1       2.177   2.110  18.939  0.00  0.00    +0.000 A 
ATOM     20  C   UNL     1       3.512   2.483  19.081  0.00  0.00    +0.000 A 
ATOM     21  C   UNL     1       3.920   3.761  18.689  0.00  0.00    +0.000 A 
ATOM     22  C   UNL     1       5.320   4.249  18.957  0.00  0.00    +0.000 C 
ENDBRANCH  12  13
ENDBRANCH   1  12
TORSDOF 6
ENDMDL
MODEL 6
REMARK VINA RESULT:      -6.8      4.491      6.122
REMARK  Name = 
REMARK  7 active torsions:
REMARK  status: ('A' for Active; 'I' for Inactive)
REMARK    1  A    between atoms: C_1  and  N_2
REMARK    2  A    between atoms: C_5  and  O_6
REMARK    3  A    between atoms: O_6  and  C_7
REMARK    4  A    between atoms: C_7  and  C_8
REMARK    5  A    between atoms: C_8  and  O_9
REMARK    6  A    between atoms: C_8  and  C_10
REMARK    7  A    between atoms: C_10  and  N_11
REMARK                            x       y       z     vdW  Elec       q    Type
REMARK                         _______ _______ _______ _____ _____    ______ ____
ROOT
ATOM      1  C   UNL     1       7.099   4.430  17.041  0.00  0.00    +0.000 C 
ENDROOT
BRANCH   1   2
ATOM      2  O   UNL     1       8.334   4.086  17.690  0.00  0.00    +0.000 OA
ATOM      3  H   UNL     1       8.965   3.801  17.009  0.00  0.00    +0.000 HD
ENDBRANCH   1   2
BRANCH   1   4
ATOM      4  C   UNL     1       7.369   5.574  16.055  0.00  0.00    +0.000 C 
BRANCH   4   5
ATOM      5  O   UNL     1       7.860   5.033  14.827  0.00  0.00    +0.000 OA
BRANCH   5  10
ATOM      6  C   UNL     1       5.730   2.216  11.825  0.00  0.00    +0.000 C 
ATOM      7  N   UNL     1       6.030   3.601  12.166  0.00  0.00    +0.000 NA
ATOM      8  C   UNL     1       7.334   4.030  11.656  0.00  0.00    +0.000 C 
ATOM      9  C   UNL     1       7.613   5.305  12.443  0.00  0.00    +0.000 C 
ATOM     10  C   UNL     1       6.895   5.102  13.778  0.00  0.00    +0.000 C 
ATOM     11  C   UNL     1       6.136   3.781  13.614  0.00  0.00    +0.000 C 
ENDBRANCH   5  10
ENDBRANCH   4   5
ENDBRANCH   1   4
BRANCH   1  12
ATOM     12  C   UNL     1       6.018   4.888  18.058  0.00  0.00    +0.000 C 
BRANCH  12  13
ATOM     13  N   UNL     1       5.084   3.853  18.536  0.00  0.00    +0.000 NA
ATOM     14  C   UNL     1       4.287   3.283  17.432  0.00  0.00    +0.000 C 
ATOM     15  C   UNL     1       2.811   3.706  17.380  0.00  0.00    +0.000 C 
ATOM     16  C   UNL     1       2.171   3.416  18.710  0.00  0.00    +0.000 A 
ATOM     17  C   UNL     1       0.866   2.939  18.843  0.00  0.00    +0.000 A 
ATOM     18  C   UNL     1       0.339   2.707  20.111  0.00  0.00    +0.000 A 
ATOM     19  C   UNL     1       1.105   2.962  21.250  0.00  0.00    +0.000 A 
ATOM     20  C   UNL     1       2.403   3.452  21.125  0.00  0.00    +0.000 A 
ATOM     21  C   UNL     1       2.941   3.672  19.854  0.00  0.00    +0.000 A 
ATOM     22  C   UNL     1       4.284   4.333  19.679  0.00  0.00    +0.000 C 
ENDBRANCH  12  13
ENDBRANCH   1  12
TORSDOF 6
ENDMDL
MODEL 7
REMARK VINA RESULT:      -6.8      0.993      1.313
REMARK  Name = 
REMARK  7 active torsions:
REMARK  status: ('A' for Active; 'I' for Inactive)
REMARK    1  A    between atoms: C_1  and  N_2
REMARK    2  A    between atoms: C_5  and  O_6
REMARK    3  A    between atoms: O_6  and  C_7
REMARK    4  A    between atoms: C_7  and  C_8
REMARK    5  A    between atoms: C_8  and  O_9
REMARK    6  A    between atoms: C_8  and  C_10
REMARK    7  A    between atoms: C_10  and  N_11
REMARK                            x       y       z     vdW  Elec       q    Type
REMARK                         _______ _______ _______ _____ _____    ______ ____
ROOT
ATOM      1  C   UNL     1       8.029   7.627  17.690  0.00  0.00    +0.000 C 
ENDROOT
BRANCH   1   2
ATOM      2  O   UNL     1       8.273   7.029  18.974  0.00  0.00    +0.000 OA
ATOM      3  H   UNL     1       8.023   6.092  18.925  0.00  0.00    +0.000 HD
ENDBRANCH   1   2
BRANCH   1   4
ATOM      4  C   UNL     1       7.913   9.146  17.876  0.00  0.00    +0.000 C 
BRANCH   4   5
ATOM      5  O   UNL     1       8.836   9.572  18.879  0.00  0.00    +0.000 OA
BRANCH   5  10
ATOM      6  C   UNL     1      10.551  13.549  20.530  0.00  0.00    +0.000 C 
ATOM      7  N   UNL     1      10.293  12.758  19.334  0.00  0.00    +0.000 NA
ATOM      8  C   UNL     1       8.928  12.937  18.831  0.00  0.00    +0.000 C 
ATOM      9  C   UNL     1       8.752  11.764  17.876  0.00  0.00    +0.000 C 
ATOM     10  C   UNL     1       9.647  10.662  18.444  0.00  0.00    +0.000 C 
ATOM     11  C   UNL     1      10.385  11.325  19.613  0.00  0.00    +0.000 C 
ENDBRANCH   5  10
ENDBRANCH   4   5
ENDBRANCH   1   4
BRANCH   1  12
ATOM     12  C   UNL     1       6.721   7.097  17.043  0.00  0.00    +0.000 C 
BRANCH  12  13
ATOM     13  N   UNL     1       6.007   6.036  17.776  0.00  0.00    +0.000 NA
ATOM     14  C   UNL     1       6.250   4.706  17.184  0.00  0.00    +0.000 C 
ATOM     15  C   UNL     1       5.076   4.092  16.404  0.00  0.00    +0.000 C 
ATOM     16  C   UNL     1       3.857   4.075  17.286  0.00  0.00    +0.000 A 
ATOM     17  C   UNL     1       2.935   3.028  17.293  0.00  0.00    +0.000 A 
ATOM     18  C   UNL     1       1.823   3.091  18.129  0.00  0.00    +0.000 A 
ATOM     19  C   UNL     1       1.619   4.204  18.948  0.00  0.00    +0.000 A 
ATOM     20  C   UNL     1       2.528   5.259  18.933  0.00  0.00    +0.000 A 
ATOM     21  C   UNL     1       3.654   5.193  18.108  0.00  0.00    +0.000 A 
ATOM     22  C   UNL     1       4.581   6.370  17.958  0.00  0.00    +0.000 C 
ENDBRANCH  12  13
ENDBRANCH   1  12
TORSDOF 6
ENDMDL
MODEL 8
REMARK VINA RESULT:      -6.7      1.281      1.615
REMARK  Name = 
REMARK  7 active torsions:
REMARK  status: ('A' for Active; 'I' for Inactive)
REMARK    1  A    between atoms: C_1  and  N_2
REMARK    2  A    between atoms: C_5  and  O_6
REMARK    3  A    between atoms: O_6  and  C_7
REMARK    4  A    between atoms: C_7  and  C_8
REMARK    5  A    between atoms: C_8  and  O_9
REMARK    6  A    between atoms: C_8  and  C_10
REMARK    7  A    between atoms: C_10  and  N_11
REMARK                            x       y       z     vdW  Elec       q    Type
REMARK                         _______ _______ _______ _____ _____    ______ ____
ROOT
ATOM      1  C   UNL     1       7.169   7.127  17.531  0.00  0.00    +0.000 C 
ENDROOT
BRANCH   1   2
ATOM      2  O   UNL     1       7.736   6.761  16.262  0.00  0.00    +0.000 OA
ATOM      3  H   UNL     1       7.457   5.854  16.056  0.00  0.00    +0.000 HD
ENDBRANCH   1   2
BRANCH   1   4
ATOM      4  C   UNL     1       8.199   7.965  18.300  0.00  0.00    +0.000 C 
BRANCH   4   5
ATOM      5  O   UNL     1       8.433   9.188  17.600  0.00  0.00    +0.000 OA
BRANCH   5  10
ATOM      6  C   UNL     1      10.367  13.380  17.998  0.00  0.00    +0.000 C 
ATOM      7  N   UNL     1       9.581  12.353  18.669  0.00  0.00    +0.000 NA
ATOM      8  C   UNL     1      10.420  11.321  19.283  0.00  0.00    +0.000 C 
ATOM      9  C   UNL     1       9.439  10.188  19.551  0.00  0.00    +0.000 C 
ATOM     10  C   UNL     1       8.378  10.326  18.458  0.00  0.00    +0.000 C 
ATOM     11  C   UNL     1       8.748  11.616  17.718  0.00  0.00    +0.000 C 
ENDBRANCH   5  10
ENDBRANCH   4   5
ENDBRANCH   1   4
BRANCH   1  12
ATOM     12  C   UNL     1       6.797   5.883  18.381  0.00  0.00    +0.000 C 
BRANCH  12  13
ATOM     13  N   UNL     1       5.738   5.011  17.843  0.00  0.00    +0.000 NA
ATOM     14  C   UNL     1       4.691   5.787  17.149  0.00  0.00    +0.000 C 
ATOM     15  C   UNL     1       3.348   5.913  17.885  0.00  0.00    +0.000 C 
ATOM     16  C   UNL     1       2.852   4.537  18.239  0.00  0.00    +0.000 A 
ATOM     17  C   UNL     1       1.506   4.172  18.181  0.00  0.00    +0.000 A 
ATOM     18  C   UNL     1       1.123   2.882  18.537  0.00  0.00    +0.000 A 
ATOM     19  C   UNL     1       2.077   1.957  18.967  0.00  0.00    +0.000 A 
ATOM     20  C   UNL     1       3.419   2.320  19.041  0.00  0.00    +0.000 A 
ATOM     21  C   UNL     1       3.810   3.609  18.669  0.00  0.00    +0.000 A 
ATOM     22  C   UNL     1       5.226   4.083  18.870  0.00  0.00    +0.000 C 
ENDBRANCH  12  13
ENDBRANCH   1  12
TORSDOF 6
ENDMDL
MODEL 9
REMARK VINA RESULT:      -6.6      3.647      5.619
REMARK  Name = 
REMARK  7 active torsions:
REMARK  status: ('A' for Active; 'I' for Inactive)
REMARK    1  A    between atoms: C_1  and  N_2
REMARK    2  A    between atoms: C_5  and  O_6
REMARK    3  A    between atoms: O_6  and  C_7
REMARK    4  A    between atoms: C_7  and  C_8
REMARK    5  A    between atoms: C_8  and  O_9
REMARK    6  A    between atoms: C_8  and  C_10
REMARK    7  A    between atoms: C_10  and  N_11
REMARK                            x       y       z     vdW  Elec       q    Type
REMARK                         _______ _______ _______ _____ _____    ______ ____
ROOT
ATOM      1  C   UNL     1       6.711   6.961  17.683  0.00  0.00    +0.000 C 
ENDROOT
BRANCH   1   2
ATOM      2  O   UNL     1       7.346   8.179  17.258  0.00  0.00    +0.000 OA
ATOM      3  H   UNL     1       8.102   7.946  16.695  0.00  0.00    +0.000 HD
ENDBRANCH   1   2
BRANCH   1   4
ATOM      4  C   UNL     1       7.467   5.777  17.065  0.00  0.00    +0.000 C 
BRANCH   4   5
ATOM      5  O   UNL     1       7.362   5.838  15.642  0.00  0.00    +0.000 OA
BRANCH   5  10
ATOM      6  C   UNL     1       5.298   3.759  12.051  0.00  0.00    +0.000 C 
ATOM      7  N   UNL     1       6.010   3.559  13.307  0.00  0.00    +0.000 NA
ATOM      8  C   UNL     1       5.119   3.619  14.468  0.00  0.00    +0.000 C 
ATOM      9  C   UNL     1       6.080   3.795  15.636  0.00  0.00    +0.000 C 
ATOM     10  C   UNL     1       7.275   4.545  15.046  0.00  0.00    +0.000 C 
ATOM     11  C   UNL     1       6.979   4.628  13.545  0.00  0.00    +0.000 C 
ENDBRANCH   5  10
ENDBRANCH   4   5
ENDBRANCH   1   4
BRANCH   1  12
ATOM     12  C   UNL     1       5.225   6.896  17.239  0.00  0.00    +0.000 C 
BRANCH  12  13
ATOM     13  N   UNL     1       4.287   6.246  18.171  0.00  0.00    +0.000 NA
ATOM     14  C   UNL     1       4.997   5.537  19.254  0.00  0.00    +0.000 C 
ATOM     15  C   UNL     1       4.997   4.002  19.167  0.00  0.00    +0.000 C 
ATOM     16  C   UNL     1       3.577   3.519  19.047  0.00  0.00    +0.000 A 
ATOM     17  C   UNL     1       3.108   2.363  19.673  0.00  0.00    +0.000 A 
ATOM     18  C   UNL     1       1.782   1.974  19.504  0.00  0.00    +0.000 A 
ATOM     19  C   UNL     1       0.924   2.725  18.698  0.00  0.00    +0.000 A 
ATOM     20  C   UNL     1       1.390   3.870  18.058  0.00  0.00    +0.000 A 
ATOM     21  C   UNL     1       2.716   4.274  18.238  0.00  0.00    +0.000 A 
ATOM     22  C   UNL     1       3.295   5.423  17.454  0.00  0.00    +0.000 C 
ENDBRANCH  12  13
ENDBRANCH   1  12
TORSDOF 6
ENDMDL
