MODEL 1
REMARK VINA RESULT:      -9.1      0.000      0.000
REMARK  Name = 
REMARK  8 active torsions:
REMARK  status: ('A' for Active; 'I' for Inactive)
REMARK    1  A    between atoms: C_1  and  C_2
REMARK    2  A    between atoms: C_8  and  N_9
REMARK    3  A    between atoms: C_10  and  C_12
REMARK    4  A    between atoms: C_12  and  C_13
REMARK    5  A    between atoms: C_13  and  N_14
REMARK    6  A    between atoms: C_16  and  C_17
REMARK    7  A    between atoms: C_19  and  C_20
REMARK    8  A    between atoms: N_21  and  C_22
REMARK                            x       y       z     vdW  Elec       q    Type
REMARK                         _______ _______ _______ _____ _____    ______ ____
ROOT
ATOM      1  N   UNL     1       3.738   3.172  19.313  0.00  0.00    +0.000 N 
ATOM      2  N   UNL     1       4.769   3.939  19.843  0.00  0.00    +0.000 NA
ATOM      3  C   UNL     1       5.624   4.543  19.083  0.00  0.00    +0.000 A 
ATOM      4  C   UNL     1       6.647   5.404  19.759  0.00  0.00    +0.000 C 
ATOM      5  C   UNL     1       5.551   4.370  17.662  0.00  0.00    +0.000 A 
ATOM      6  C   UNL     1       6.298   4.862  16.611  0.00  0.00    +0.000 A 
ATOM      7  C   UNL     1       7.414   5.841  16.619  0.00  0.00    +0.000 C 
ATOM      8  N   UNL     1       5.760   4.279  15.459  0.00  0.00    +0.000 N 
ATOM      9  N   UNL     1       4.612   3.592  15.745  0.00  0.00    +0.000 NA
ATOM     10  C   UNL     1       4.539   3.584  17.086  0.00  0.00    +0.000 A 
ATOM     11  C   UNL     1       3.549   2.902  17.933  0.00  0.00    +0.000 A 
ATOM     12  O   UNL     1       2.661   2.171  17.500  0.00  0.00    +0.000 OA
ENDROOT
BRANCH   8  13
ATOM     13  C   UNL     1       6.264   4.308  14.119  0.00  0.00    +0.000 A 
ATOM     14  C   UNL     1       7.325   5.151  13.756  0.00  0.00    +0.000 A 
ATOM     15  C   UNL     1       7.825   5.160  12.452  0.00  0.00    +0.000 A 
ATOM     16  C   UNL     1       7.278   4.314  11.494  0.00  0.00    +0.000 A 
ATOM     17  C   UNL     1       6.230   3.463  11.840  0.00  0.00    +0.000 A 
ATOM     18  C   UNL     1       5.728   3.450  13.148  0.00  0.00    +0.000 A 
ENDBRANCH   8  13
BRANCH   1  19
ATOM     19  C   UNL     1       2.847   2.595  20.329  0.00  0.00    +0.000 C 
BRANCH  19  20
ATOM     20  C   UNL     1       2.479   3.601  21.436  0.00  0.00    +0.000 C 
BRANCH  20  22
ATOM     21  N   UNL     1       2.330   6.018  20.960  0.00  0.00    +0.000 N 
ATOM     22  C   UNL     1       1.727   4.768  20.830  0.00  0.00    +0.000 C 
ATOM     23  O   UNL     1       0.648   4.538  20.286  0.00  0.00    +0.000 OA
ATOM     24  H   UNL     1       3.191   6.056  21.495  0.00  0.00    +0.000 HD
BRANCH  21  32
ATOM     25  C   UNL     1       3.060   6.761  18.145  0.00  0.00    +0.000 C 
ATOM     26  C   UNL     1       2.188   7.591  19.051  0.00  0.00    +0.000 A 
ATOM     27  C   UNL     1       1.690   8.803  18.512  0.00  0.00    +0.000 A 
ATOM     28  C   UNL     1       0.895   9.655  19.274  0.00  0.00    +0.000 A 
ATOM     29 CL   UNL     1       0.293  11.116  18.597  0.00  0.00    +0.000 Cl
ATOM     30  C   UNL     1       0.586   9.322  20.577  0.00  0.00    +0.000 A 
ATOM     31  C   UNL     1       1.071   8.129  21.122  0.00  0.00    +0.000 A 
ATOM     32  C   UNL     1       1.872   7.240  20.385  0.00  0.00    +0.000 A 
ENDBRANCH  21  32
ENDBRANCH  20  22
ENDBRANCH  19  20
ENDBRANCH   1  19
TORSDOF 5
ENDMDL
MODEL 2
REMARK VINA RESULT:      -8.5      3.826      5.453
REMARK  Name = 
REMARK  8 active torsions:
REMARK  status: ('A' for Active; 'I' for Inactive)
REMARK    1  A    between atoms: C_1  and  C_2
REMARK    2  A    between atoms: C_8  and  N_9
REMARK    3  A    between atoms: C_10  and  C_12
REMARK    4  A    between atoms: C_12  and  C_13
REMARK    5  A    between atoms: C_13  and  N_14
REMARK    6  A    between atoms: C_16  and  C_17
REMARK    7  A    between atoms: C_19  and  C_20
REMARK    8  A    between atoms: N_21  and  C_22
REMARK                            x       y       z     vdW  Elec       q    Type
REMARK                         _______ _______ _______ _____ _____    ______ ____
ROOT
ATOM      1  N   UNL     1       1.554   8.170  19.823  0.00  0.00    +0.000 N 
ATOM      2  N   UNL     1       1.519   6.976  20.532  0.00  0.00    +0.000 NA
ATOM      3  C   UNL     1       2.268   5.972  20.206  0.00  0.00    +0.000 A 
ATOM      4  C   UNL     1       2.204   4.761  21.086  0.00  0.00    +0.000 C 
ATOM      5  C   UNL     1       3.109   6.065  19.050  0.00  0.00    +0.000 A 
ATOM      6  C   UNL     1       3.996   5.192  18.454  0.00  0.00    +0.000 A 
ATOM      7  C   UNL     1       4.442   3.847  18.896  0.00  0.00    +0.000 C 
ATOM      8  N   UNL     1       4.469   5.851  17.314  0.00  0.00    +0.000 N 
ATOM      9  N   UNL     1       4.042   7.151  17.285  0.00  0.00    +0.000 NA
ATOM     10  C   UNL     1       3.157   7.247  18.291  0.00  0.00    +0.000 A 
ATOM     11  C   UNL     1       2.324   8.404  18.655  0.00  0.00    +0.000 A 
ATOM     12  O   UNL     1       2.288   9.452  18.016  0.00  0.00    +0.000 OA
ENDROOT
BRANCH   8  13
ATOM     13  C   UNL     1       5.273   5.337  16.247  0.00  0.00    +0.000 A 
ATOM     14  C   UNL     1       6.659   5.547  16.211  0.00  0.00    +0.000 A 
ATOM     15  C   UNL     1       7.442   5.026  15.178  0.00  0.00    +0.000 A 
ATOM     16  C   UNL     1       6.847   4.274  14.171  0.00  0.00    +0.000 A 
ATOM     17  C   UNL     1       5.473   4.046  14.198  0.00  0.00    +0.000 A 
ATOM     18  C   UNL     1       4.686   4.566  15.234  0.00  0.00    +0.000 A 
ENDBRANCH   8  13
BRANCH   1  19
ATOM     19  C   UNL     1       0.661   9.205  20.363  0.00  0.00    +0.000 C 
BRANCH  19  20
ATOM     20  C   UNL     1      -0.109   8.733  21.611  0.00  0.00    +0.000 C 
BRANCH  20  22
ATOM     21  N   UNL     1      -1.184  10.921  21.996  0.00  0.00    +0.000 N 
ATOM     22  C   UNL     1      -0.373   9.916  22.520  0.00  0.00    +0.000 C 
ATOM     23  O   UNL     1       0.148   9.914  23.634  0.00  0.00    +0.000 OA
ATOM     24  H   UNL     1      -1.485  10.809  21.034  0.00  0.00    +0.000 HD
BRANCH  21  32
ATOM     25  C   UNL     1       0.287  13.532  21.829  0.00  0.00    +0.000 C 
ATOM     26  C   UNL     1      -0.988  13.316  22.601  0.00  0.00    +0.000 A 
ATOM     27  C   UNL     1      -1.509  14.439  23.289  0.00  0.00    +0.000 A 
ATOM     28  C   UNL     1      -2.669  14.341  24.052  0.00  0.00    +0.000 A 
ATOM     29 CL   UNL     1      -3.290  15.719  24.871  0.00  0.00    +0.000 Cl
ATOM     30  C   UNL     1      -3.326  13.130  24.149  0.00  0.00    +0.000 A 
ATOM     31  C   UNL     1      -2.822  12.013  23.475  0.00  0.00    +0.000 A 
ATOM     32  C   UNL     1      -1.658  12.072  22.692  0.00  0.00    +0.000 A 
ENDBRANCH  21  32
ENDBRANCH  20  22
ENDBRANCH  19  20
ENDBRANCH   1  19
TORSDOF 5
ENDMDL
MODEL 3
REMARK VINA RESULT:      -8.4      0.457      1.280
REMARK  Name = 
REMARK  8 active torsions:
REMARK  status: ('A' for Active; 'I' for Inactive)
REMARK    1  A    between atoms: C_1  and  C_2
REMARK    2  A    between atoms: C_8  and  N_9
REMARK    3  A    between atoms: C_10  and  C_12
REMARK    4  A    between atoms: C_12  and  C_13
REMARK    5  A    between atoms: C_13  and  N_14
REMARK    6  A    between atoms: C_16  and  C_17
REMARK    7  A    between atoms: C_19  and  C_20
REMARK    8  A    between atoms: N_21  and  C_22
REMARK                            x       y       z     vdW  Elec       q    Type
REMARK                         _______ _______ _______ _____ _____    ______ ____
ROOT
ATOM      1  N   UNL     1       3.810   3.107  19.391  0.00  0.00    +0.000 N 
ATOM      2  N   UNL     1       4.805   3.939  19.889  0.00  0.00    +0.000 NA
ATOM      3  C   UNL     1       5.616   4.571  19.103  0.00  0.00    +0.000 A 
ATOM      4  C   UNL     1       6.600   5.500  19.745  0.00  0.00    +0.000 C 
ATOM      5  C   UNL     1       5.532   4.364  17.688  0.00  0.00    +0.000 A 
ATOM      6  C   UNL     1       6.236   4.872  16.615  0.00  0.00    +0.000 A 
ATOM      7  C   UNL     1       7.297   5.910  16.585  0.00  0.00    +0.000 C 
ATOM      8  N   UNL     1       5.713   4.236  15.484  0.00  0.00    +0.000 N 
ATOM      9  N   UNL     1       4.608   3.495  15.802  0.00  0.00    +0.000 NA
ATOM     10  C   UNL     1       4.555   3.512  17.144  0.00  0.00    +0.000 A 
ATOM     11  C   UNL     1       3.615   2.797  18.021  0.00  0.00    +0.000 A 
ATOM     12  O   UNL     1       2.762   2.010  17.617  0.00  0.00    +0.000 OA
ENDROOT
BRANCH   8  13
ATOM     13  C   UNL     1       6.195   4.262  14.136  0.00  0.00    +0.000 A 
ATOM     14  C   UNL     1       7.297   5.049  13.770  0.00  0.00    +0.000 A 
ATOM     15  C   UNL     1       7.776   5.055  12.457  0.00  0.00    +0.000 A 
ATOM     16  C   UNL     1       7.164   4.263  11.494  0.00  0.00    +0.000 A 
ATOM     17  C   UNL     1       6.074   3.467  11.842  0.00  0.00    +0.000 A 
ATOM     18  C   UNL     1       5.593   3.457  13.158  0.00  0.00    +0.000 A 
ENDBRANCH   8  13
BRANCH   1  19
ATOM     19  C   UNL     1       2.966   2.504  20.433  0.00  0.00    +0.000 C 
BRANCH  19  20
ATOM     20  C   UNL     1       2.420   3.545  21.429  0.00  0.00    +0.000 C 
BRANCH  20  22
ATOM     21  N   UNL     1       2.524   5.893  20.673  0.00  0.00    +0.000 N 
ATOM     22  C   UNL     1       1.802   4.700  20.667  0.00  0.00    +0.000 C 
ATOM     23  O   UNL     1       0.719   4.513  20.117  0.00  0.00    +0.000 OA
ATOM     24  H   UNL     1       3.372   5.910  21.229  0.00  0.00    +0.000 HD
BRANCH  21  32
ATOM     25  C   UNL     1       0.868   8.062  21.922  0.00  0.00    +0.000 C 
ATOM     26  C   UNL     1       1.445   8.119  20.531  0.00  0.00    +0.000 A 
ATOM     27  C   UNL     1       1.172   9.288  19.780  0.00  0.00    +0.000 A 
ATOM     28  C   UNL     1       1.638   9.430  18.476  0.00  0.00    +0.000 A 
ATOM     29 CL   UNL     1       1.304  10.863  17.586  0.00  0.00    +0.000 Cl
ATOM     30  C   UNL     1       2.375   8.417  17.897  0.00  0.00    +0.000 A 
ATOM     31  C   UNL     1       2.652   7.257  18.626  0.00  0.00    +0.000 A 
ATOM     32  C   UNL     1       2.204   7.077  19.946  0.00  0.00    +0.000 A 
ENDBRANCH  21  32
ENDBRANCH  20  22
ENDBRANCH  19  20
ENDBRANCH   1  19
TORSDOF 5
ENDMDL
MODEL 4
REMARK VINA RESULT:      -8.4      2.923      4.620
REMARK  Name = 
REMARK  8 active torsions:
REMARK  status: ('A' for Active; 'I' for Inactive)
REMARK    1  A    between atoms: C_1  and  C_2
REMARK    2  A    between atoms: C_8  and  N_9
REMARK    3  A    between atoms: C_10  and  C_12
REMARK    4  A    between atoms: C_12  and  C_13
REMARK    5  A    between atoms: C_13  and  N_14
REMARK    6  A    between atoms: C_16  and  C_17
REMARK    7  A    between atoms: C_19  and  C_20
REMARK    8  A    between atoms: N_21  and  C_22
REMARK                            x       y       z     vdW  Elec       q    Type
REMARK                         _______ _______ _______ _____ _____    ______ ____
ROOT
ATOM      1  N   UNL     1       1.385   7.068  20.507  0.00  0.00    +0.000 N 
ATOM      2  N   UNL     1       1.454   5.788  21.045  0.00  0.00    +0.000 NA
ATOM      3  C   UNL     1       2.279   4.904  20.585  0.00  0.00    +0.000 A 
ATOM      4  C   UNL     1       2.322   3.582  21.289  0.00  0.00    +0.000 C 
ATOM      5  C   UNL     1       3.099   5.224  19.454  0.00  0.00    +0.000 A 
ATOM      6  C   UNL     1       4.049   4.517  18.745  0.00  0.00    +0.000 A 
ATOM      7  C   UNL     1       4.607   3.165  18.998  0.00  0.00    +0.000 C 
ATOM      8  N   UNL     1       4.456   5.363  17.708  0.00  0.00    +0.000 N 
ATOM      9  N   UNL     1       3.924   6.616  17.858  0.00  0.00    +0.000 NA
ATOM     10  C   UNL     1       3.043   6.499  18.866  0.00  0.00    +0.000 A 
ATOM     11  C   UNL     1       2.123   7.522  19.384  0.00  0.00    +0.000 A 
ATOM     12  O   UNL     1       1.996   8.643  18.897  0.00  0.00    +0.000 OA
ENDROOT
BRANCH   8  13
ATOM     13  C   UNL     1       5.288   5.068  16.582  0.00  0.00    +0.000 A 
ATOM     14  C   UNL     1       6.643   5.433  16.560  0.00  0.00    +0.000 A 
ATOM     15  C   UNL     1       7.456   5.125  15.467  0.00  0.00    +0.000 A 
ATOM     16  C   UNL     1       6.926   4.435  14.383  0.00  0.00    +0.000 A 
ATOM     17  C   UNL     1       5.585   4.055  14.393  0.00  0.00    +0.000 A 
ATOM     18  C   UNL     1       4.768   4.361  15.489  0.00  0.00    +0.000 A 
ENDBRANCH   8  13
BRANCH   1  19
ATOM     19  C   UNL     1       0.416   7.942  21.183  0.00  0.00    +0.000 C 
BRANCH  19  20
ATOM     20  C   UNL     1       1.083   8.906  22.183  0.00  0.00    +0.000 C 
BRANCH  20  22
ATOM     21  N   UNL     1       1.084  10.819  20.623  0.00  0.00    +0.000 N 
ATOM     22  C   UNL     1       0.675  10.330  21.863  0.00  0.00    +0.000 C 
ATOM     23  O   UNL     1       0.035  10.950  22.710  0.00  0.00    +0.000 OA
ATOM     24  H   UNL     1       1.665  10.207  20.060  0.00  0.00    +0.000 HD
BRANCH  21  32
ATOM     25  C   UNL     1      -1.074  11.025  18.547  0.00  0.00    +0.000 C 
ATOM     26  C   UNL     1      -0.298  12.195  19.095  0.00  0.00    +0.000 A 
ATOM     27  C   UNL     1      -0.629  13.471  18.578  0.00  0.00    +0.000 A 
ATOM     28  C   UNL     1       0.044  14.615  18.999  0.00  0.00    +0.000 A 
ATOM     29 CL   UNL     1      -0.381  16.156  18.366  0.00  0.00    +0.000 Cl
ATOM     30  C   UNL     1       1.055  14.510  19.934  0.00  0.00    +0.000 A 
ATOM     31  C   UNL     1       1.392  13.256  20.452  0.00  0.00    +0.000 A 
ATOM     32  C   UNL     1       0.734  12.080  20.056  0.00  0.00    +0.000 A 
ENDBRANCH  21  32
ENDBRANCH  20  22
ENDBRANCH  19  20
ENDBRANCH   1  19
TORSDOF 5
ENDMDL
MODEL 5
REMARK VINA RESULT:      -8.0      3.182      4.950
REMARK  Name = 
REMARK  8 active torsions:
REMARK  status: ('A' for Active; 'I' for Inactive)
REMARK    1  A    between atoms: C_1  and  C_2
REMARK    2  A    between atoms: C_8  and  N_9
REMARK    3  A    between atoms: C_10  and  C_12
REMARK    4  A    between atoms: C_12  and  C_13
REMARK    5  A    between atoms: C_13  and  N_14
REMARK    6  A    between atoms: C_16  and  C_17
REMARK    7  A    between atoms: C_19  and  C_20
REMARK    8  A    between atoms: N_21  and  C_22
REMARK                            x       y       z     vdW  Elec       q    Type
REMARK                         _______ _______ _______ _____ _____    ______ ____
ROOT
ATOM      1  N   UNL     1       1.413   7.332  20.456  0.00  0.00    +0.000 N 
ATOM      2  N   UNL     1       1.446   6.068  21.033  0.00  0.00    +0.000 NA
ATOM      3  C   UNL     1       2.244   5.147  20.599  0.00  0.00    +0.000 A 
ATOM      4  C   UNL     1       2.251   3.846  21.343  0.00  0.00    +0.000 C 
ATOM      5  C   UNL     1       3.070   5.408  19.458  0.00  0.00    +0.000 A 
ATOM      6  C   UNL     1       3.997   4.652  18.769  0.00  0.00    +0.000 A 
ATOM      7  C   UNL     1       4.516   3.292  19.063  0.00  0.00    +0.000 C 
ATOM      8  N   UNL     1       4.426   5.454  17.706  0.00  0.00    +0.000 N 
ATOM      9  N   UNL     1       3.931   6.725  17.817  0.00  0.00    +0.000 NA
ATOM     10  C   UNL     1       3.050   6.665  18.830  0.00  0.00    +0.000 A 
ATOM     11  C   UNL     1       2.161   7.730  19.318  0.00  0.00    +0.000 A 
ATOM     12  O   UNL     1       2.065   8.839  18.797  0.00  0.00    +0.000 OA
ENDROOT
BRANCH   8  13
ATOM     13  C   UNL     1       5.247   5.100  16.588  0.00  0.00    +0.000 A 
ATOM     14  C   UNL     1       4.721   4.409  15.486  0.00  0.00    +0.000 A 
ATOM     15  C   UNL     1       5.522   4.084  14.388  0.00  0.00    +0.000 A 
ATOM     16  C   UNL     1       6.860   4.458  14.374  0.00  0.00    +0.000 A 
ATOM     17  C   UNL     1       7.397   5.154  15.456  0.00  0.00    +0.000 A 
ATOM     18  C   UNL     1       6.595   5.483  16.556  0.00  0.00    +0.000 A 
ENDBRANCH   8  13
BRANCH   1  19
ATOM     19  C   UNL     1       0.472   8.255  21.106  0.00  0.00    +0.000 C 
BRANCH  19  20
ATOM     20  C   UNL     1       1.170   9.232  22.072  0.00  0.00    +0.000 C 
BRANCH  20  22
ATOM     21  N   UNL     1       1.196  11.223  20.612  0.00  0.00    +0.000 N 
ATOM     22  C   UNL     1       0.707  10.646  21.784  0.00  0.00    +0.000 C 
ATOM     23  O   UNL     1      -0.045  11.183  22.595  0.00  0.00    +0.000 OA
ATOM     24  H   UNL     1       1.861  10.675  20.078  0.00  0.00    +0.000 HD
BRANCH  21  32
ATOM     25  C   UNL     1       2.951  13.628  20.994  0.00  0.00    +0.000 C 
ATOM     26  C   UNL     1       1.654  13.627  20.227  0.00  0.00    +0.000 A 
ATOM     27  C   UNL     1       1.255  14.861  19.656  0.00  0.00    +0.000 A 
ATOM     28  C   UNL     1       0.062  14.975  18.949  0.00  0.00    +0.000 A 
ATOM     29 CL   UNL     1      -0.397  16.479  18.256  0.00  0.00    +0.000 Cl
ATOM     30  C   UNL     1      -0.755  13.872  18.802  0.00  0.00    +0.000 A 
ATOM     31  C   UNL     1      -0.375  12.648  19.360  0.00  0.00    +0.000 A 
ATOM     32  C   UNL     1       0.823  12.491  20.077  0.00  0.00    +0.000 A 
ENDBRANCH  21  32
ENDBRANCH  20  22
ENDBRANCH  19  20
ENDBRANCH   1  19
TORSDOF 5
ENDMDL
MODEL 6
REMARK VINA RESULT:      -8.0      5.137     11.212
REMARK  Name = 
REMARK  8 active torsions:
REMARK  status: ('A' for Active; 'I' for Inactive)
REMARK    1  A    between atoms: C_1  and  C_2
REMARK    2  A    between atoms: C_8  and  N_9
REMARK    3  A    between atoms: C_10  and  C_12
REMARK    4  A    between atoms: C_12  and  C_13
REMARK    5  A    between atoms: C_13  and  N_14
REMARK    6  A    between atoms: C_16  and  C_17
REMARK    7  A    between atoms: C_19  and  C_20
REMARK    8  A    between atoms: N_21  and  C_22
REMARK                            x       y       z     vdW  Elec       q    Type
REMARK                         _______ _______ _______ _____ _____    ______ ____
ROOT
ATOM      1  N   UNL     1       0.464   9.685  21.621  0.00  0.00    +0.000 N 
ATOM      2  N   UNL     1       0.162  10.004  20.303  0.00  0.00    +0.000 NA
ATOM      3  C   UNL     1      -0.724  10.900  20.009  0.00  0.00    +0.000 A 
ATOM      4  C   UNL     1      -0.915  11.218  18.557  0.00  0.00    +0.000 C 
ATOM      5  C   UNL     1      -1.460  11.537  21.060  0.00  0.00    +0.000 A 
ATOM      6  C   UNL     1      -2.447  12.501  21.073  0.00  0.00    +0.000 A 
ATOM      7  C   UNL     1      -3.023  13.281  19.949  0.00  0.00    +0.000 C 
ATOM      8  N   UNL     1      -2.802  12.663  22.417  0.00  0.00    +0.000 N 
ATOM      9  N   UNL     1      -1.956  11.966  23.236  0.00  0.00    +0.000 NA
ATOM     10  C   UNL     1      -1.202  11.226  22.406  0.00  0.00    +0.000 A 
ATOM     11  C   UNL     1      -0.188  10.221  22.761  0.00  0.00    +0.000 A 
ATOM     12  O   UNL     1       0.063   9.875  23.912  0.00  0.00    +0.000 OA
ENDROOT
BRANCH   8  13
ATOM     13  C   UNL     1      -3.891  13.406  22.975  0.00  0.00    +0.000 A 
ATOM     14  C   UNL     1      -3.701  14.690  23.507  0.00  0.00    +0.000 A 
ATOM     15  C   UNL     1      -4.770  15.419  24.032  0.00  0.00    +0.000 A 
ATOM     16  C   UNL     1      -6.050  14.876  24.022  0.00  0.00    +0.000 A 
ATOM     17  C   UNL     1      -6.258  13.605  23.488  0.00  0.00    +0.000 A 
ATOM     18  C   UNL     1      -5.187  12.873  22.958  0.00  0.00    +0.000 A 
ENDBRANCH   8  13
BRANCH   1  19
ATOM     19  C   UNL     1       1.521   8.672  21.758  0.00  0.00    +0.000 C 
BRANCH  19  20
ATOM     20  C   UNL     1       1.146   7.331  21.098  0.00  0.00    +0.000 C 
BRANCH  20  22
ATOM     21  N   UNL     1       2.818   5.866  20.025  0.00  0.00    +0.000 N 
ATOM     22  C   UNL     1       2.090   7.053  19.946  0.00  0.00    +0.000 C 
ATOM     23  O   UNL     1       2.158   7.884  19.043  0.00  0.00    +0.000 OA
ATOM     24  H   UNL     1       2.700   5.314  20.868  0.00  0.00    +0.000 HD
BRANCH  21  32
ATOM     25  C   UNL     1       1.711   4.332  17.695  0.00  0.00    +0.000 C 
ATOM     26  C   UNL     1       3.171   4.634  17.904  0.00  0.00    +0.000 A 
ATOM     27  C   UNL     1       4.066   4.149  16.918  0.00  0.00    +0.000 A 
ATOM     28  C   UNL     1       5.438   4.354  17.029  0.00  0.00    +0.000 A 
ATOM     29 CL   UNL     1       6.504   3.765  15.816  0.00  0.00    +0.000 Cl
ATOM     30  C   UNL     1       5.944   5.035  18.118  0.00  0.00    +0.000 A 
ATOM     31  C   UNL     1       5.074   5.519  19.099  0.00  0.00    +0.000 A 
ATOM     32  C   UNL     1       3.683   5.338  19.021  0.00  0.00    +0.000 A 
ENDBRANCH  21  32
ENDBRANCH  20  22
ENDBRANCH  19  20
ENDBRANCH   1  19
TORSDOF 5
ENDMDL
MODEL 7
REMARK VINA RESULT:      -7.9      5.590     11.195
REMARK  Name = 
REMARK  8 active torsions:
REMARK  status: ('A' for Active; 'I' for Inactive)
REMARK    1  A    between atoms: C_1  and  C_2
REMARK    2  A    between atoms: C_8  and  N_9
REMARK    3  A    between atoms: C_10  and  C_12
REMARK    4  A    between atoms: C_12  and  C_13
REMARK    5  A    between atoms: C_13  and  N_14
REMARK    6  A    between atoms: C_16  and  C_17
REMARK    7  A    between atoms: C_19  and  C_20
REMARK    8  A    between atoms: N_21  and  C_22
REMARK                            x       y       z     vdW  Elec       q    Type
REMARK                         _______ _______ _______ _____ _____    ______ ____
ROOT
ATOM      1  N   UNL     1       0.099  10.713  19.270  0.00  0.00    +0.000 N 
ATOM      2  N   UNL     1      -0.546  10.084  18.212  0.00  0.00    +0.000 NA
ATOM      3  C   UNL     1      -1.781  10.341  17.923  0.00  0.00    +0.000 A 
ATOM      4  C   UNL     1      -2.353   9.663  16.716  0.00  0.00    +0.000 C 
ATOM      5  C   UNL     1      -2.525  11.247  18.746  0.00  0.00    +0.000 A 
ATOM      6  C   UNL     1      -3.824  11.711  18.706  0.00  0.00    +0.000 A 
ATOM      7  C   UNL     1      -4.884  11.471  17.695  0.00  0.00    +0.000 C 
ATOM      8  N   UNL     1      -3.967  12.537  19.826  0.00  0.00    +0.000 N 
ATOM      9  N   UNL     1      -2.764  12.733  20.450  0.00  0.00    +0.000 NA
ATOM     10  C   UNL     1      -1.917  11.886  19.840  0.00  0.00    +0.000 A 
ATOM     11  C   UNL     1      -0.510  11.618  20.176  0.00  0.00    +0.000 A 
ATOM     12  O   UNL     1       0.073  12.113  21.137  0.00  0.00    +0.000 OA
ENDROOT
BRANCH   8  13
ATOM     13  C   UNL     1      -5.155  13.132  20.358  0.00  0.00    +0.000 A 
ATOM     14  C   UNL     1      -5.936  12.470  21.317  0.00  0.00    +0.000 A 
ATOM     15  C   UNL     1      -7.084  13.063  21.848  0.00  0.00    +0.000 A 
ATOM     16  C   UNL     1      -7.459  14.336  21.435  0.00  0.00    +0.000 A 
ATOM     17  C   UNL     1      -6.688  15.013  20.491  0.00  0.00    +0.000 A 
ATOM     18  C   UNL     1      -5.536  14.421  19.959  0.00  0.00    +0.000 A 
ENDBRANCH   8  13
BRANCH   1  19
ATOM     19  C   UNL     1       1.508  10.320  19.421  0.00  0.00    +0.000 C 
BRANCH  19  20
ATOM     20  C   UNL     1       2.025   9.496  18.227  0.00  0.00    +0.000 C 
BRANCH  20  22
ATOM     21  N   UNL     1       2.434   7.138  17.624  0.00  0.00    +0.000 N 
ATOM     22  C   UNL     1       2.215   8.054  18.652  0.00  0.00    +0.000 C 
ATOM     23  O   UNL     1       2.151   7.793  19.851  0.00  0.00    +0.000 OA
ATOM     24  H   UNL     1       2.394   7.497  16.676  0.00  0.00    +0.000 HD
BRANCH  21  32
ATOM     25  C   UNL     1       5.283   6.196  17.678  0.00  0.00    +0.000 C 
ATOM     26  C   UNL     1       4.082   5.300  17.831  0.00  0.00    +0.000 A 
ATOM     27  C   UNL     1       4.342   3.919  18.011  0.00  0.00    +0.000 A 
ATOM     28  C   UNL     1       3.303   3.002  18.137  0.00  0.00    +0.000 A 
ATOM     29 CL   UNL     1       3.641   1.331  18.365  0.00  0.00    +0.000 Cl
ATOM     30  C   UNL     1       1.994   3.437  18.083  0.00  0.00    +0.000 A 
ATOM     31  C   UNL     1       1.722   4.797  17.905  0.00  0.00    +0.000 A 
ATOM     32  C   UNL     1       2.742   5.754  17.778  0.00  0.00    +0.000 A 
ENDBRANCH  21  32
ENDBRANCH  20  22
ENDBRANCH  19  20
ENDBRANCH   1  19
TORSDOF 5
ENDMDL
MODEL 8
REMARK VINA RESULT:      -7.9      4.579      7.460
REMARK  Name = 
REMARK  8 active torsions:
REMARK  status: ('A' for Active; 'I' for Inactive)
REMARK    1  A    between atoms: C_1  and  C_2
REMARK    2  A    between atoms: C_8  and  N_9
REMARK    3  A    between atoms: C_10  and  C_12
REMARK    4  A    between atoms: C_12  and  C_13
REMARK    5  A    between atoms: C_13  and  N_14
REMARK    6  A    between atoms: C_16  and  C_17
REMARK    7  A    between atoms: C_19  and  C_20
REMARK    8  A    between atoms: N_21  and  C_22
REMARK                            x       y       z     vdW  Elec       q    Type
REMARK                         _______ _______ _______ _____ _____    ______ ____
ROOT
ATOM      1  N   UNL     1       0.996  11.075  19.275  0.00  0.00    +0.000 N 
ATOM      2  N   UNL     1       0.417  10.462  20.380  0.00  0.00    +0.000 NA
ATOM      3  C   UNL     1       0.655   9.224  20.670  0.00  0.00    +0.000 A 
ATOM      4  C   UNL     1       0.038   8.688  21.925  0.00  0.00    +0.000 C 
ATOM      5  C   UNL     1       1.484   8.442  19.801  0.00  0.00    +0.000 A 
ATOM      6  C   UNL     1       1.910   7.130  19.830  0.00  0.00    +0.000 A 
ATOM      7  C   UNL     1       1.704   6.090  20.869  0.00  0.00    +0.000 C 
ATOM      8  N   UNL     1       2.658   6.949  18.662  0.00  0.00    +0.000 N 
ATOM      9  N   UNL     1       2.850   8.137  18.010  0.00  0.00    +0.000 NA
ATOM     10  C   UNL     1       2.069   9.017  18.660  0.00  0.00    +0.000 A 
ATOM     11  C   UNL     1       1.823  10.427  18.323  0.00  0.00    +0.000 A 
ATOM     12  O   UNL     1       2.272  10.983  17.323  0.00  0.00    +0.000 OA
ENDROOT
BRANCH   8  13
ATOM     13  C   UNL     1       3.182   5.737  18.110  0.00  0.00    +0.000 A 
ATOM     14  C   UNL     1       4.562   5.547  17.943  0.00  0.00    +0.000 A 
ATOM     15  C   UNL     1       5.070   4.354  17.422  0.00  0.00    +0.000 A 
ATOM     16  C   UNL     1       4.201   3.327  17.072  0.00  0.00    +0.000 A 
ATOM     17  C   UNL     1       2.828   3.494  17.242  0.00  0.00    +0.000 A 
ATOM     18  C   UNL     1       2.317   4.689  17.765  0.00  0.00    +0.000 A 
ENDBRANCH   8  13
BRANCH   1  19
ATOM     19  C   UNL     1       0.637  12.493  19.129  0.00  0.00    +0.000 C 
BRANCH  19  20
ATOM     20  C   UNL     1      -0.631  12.699  18.279  0.00  0.00    +0.000 C 
BRANCH  20  22
ATOM     21  N   UNL     1      -1.895  13.020  20.375  0.00  0.00    +0.000 N 
ATOM     22  C   UNL     1      -1.858  12.412  19.121  0.00  0.00    +0.000 C 
ATOM     23  O   UNL     1      -2.715  11.665  18.654  0.00  0.00    +0.000 OA
ATOM     24  H   UNL     1      -1.078  13.558  20.645  0.00  0.00    +0.000 HD
BRANCH  21  32
ATOM     25  C   UNL     1      -1.558  11.821  23.106  0.00  0.00    +0.000 C 
ATOM     26  C   UNL     1      -2.830  12.448  22.597  0.00  0.00    +0.000 A 
ATOM     27  C   UNL     1      -3.930  12.461  23.489  0.00  0.00    +0.000 A 
ATOM     28  C   UNL     1      -5.158  12.995  23.109  0.00  0.00    +0.000 A 
ATOM     29 CL   UNL     1      -6.478  13.009  24.211  0.00  0.00    +0.000 Cl
ATOM     30  C   UNL     1      -5.315  13.519  21.842  0.00  0.00    +0.000 A 
ATOM     31  C   UNL     1      -4.238  13.513  20.951  0.00  0.00    +0.000 A 
ATOM     32  C   UNL     1      -2.982  12.988  21.297  0.00  0.00    +0.000 A 
ENDBRANCH  21  32
ENDBRANCH  20  22
ENDBRANCH  19  20
ENDBRANCH   1  19
TORSDOF 5
ENDMDL
MODEL 9
REMARK VINA RESULT:      -7.9      4.756     10.847
REMARK  Name = 
REMARK  8 active torsions:
REMARK  status: ('A' for Active; 'I' for Inactive)
REMARK    1  A    between atoms: C_1  and  C_2
REMARK    2  A    between atoms: C_8  and  N_9
REMARK    3  A    between atoms: C_10  and  C_12
REMARK    4  A    between atoms: C_12  and  C_13
REMARK    5  A    between atoms: C_13  and  N_14
REMARK    6  A    between atoms: C_16  and  C_17
REMARK    7  A    between atoms: C_19  and  C_20
REMARK    8  A    between atoms: N_21  and  C_22
REMARK                            x       y       z     vdW  Elec       q    Type
REMARK                         _______ _______ _______ _____ _____    ______ ____
ROOT
ATOM      1  N   UNL     1       0.755   9.173  21.288  0.00  0.00    +0.000 N 
ATOM      2  N   UNL     1       0.281   9.435  20.008  0.00  0.00    +0.000 NA
ATOM      3  C   UNL     1      -0.530  10.415  19.774  0.00  0.00    +0.000 A 
ATOM      4  C   UNL     1      -0.917  10.654  18.347  0.00  0.00    +0.000 C 
ATOM      5  C   UNL     1      -1.006  11.214  20.865  0.00  0.00    +0.000 A 
ATOM      6  C   UNL     1      -1.859  12.296  20.943  0.00  0.00    +0.000 A 
ATOM      7  C   UNL     1      -2.515  13.064  19.855  0.00  0.00    +0.000 C 
ATOM      8  N   UNL     1      -1.969  12.595  22.305  0.00  0.00    +0.000 N 
ATOM      9  N   UNL     1      -1.088  11.853  23.044  0.00  0.00    +0.000 NA
ATOM     10  C   UNL     1      -0.571  10.966  22.178  0.00  0.00    +0.000 A 
ATOM     11  C   UNL     1       0.364   9.867  22.462  0.00  0.00    +0.000 A 
ATOM     12  O   UNL     1       0.757   9.572  23.588  0.00  0.00    +0.000 OA
ENDROOT
BRANCH   8  13
ATOM     13  C   UNL     1      -2.859  13.509  22.955  0.00  0.00    +0.000 A 
ATOM     14  C   UNL     1      -4.210  13.192  23.160  0.00  0.00    +0.000 A 
ATOM     15  C   UNL     1      -5.069  14.079  23.813  0.00  0.00    +0.000 A 
ATOM     16  C   UNL     1      -4.583  15.294  24.281  0.00  0.00    +0.000 A 
ATOM     17  C   UNL     1      -3.241  15.621  24.095  0.00  0.00    +0.000 A 
ATOM     18  C   UNL     1      -2.377  14.732  23.442  0.00  0.00    +0.000 A 
ENDBRANCH   8  13
BRANCH   1  19
ATOM     19  C   UNL     1       1.695   8.044  21.351  0.00  0.00    +0.000 C 
BRANCH  19  20
ATOM     20  C   UNL     1       1.108   6.750  20.755  0.00  0.00    +0.000 C 
BRANCH  20  22
ATOM     21  N   UNL     1       2.430   6.340  18.711  0.00  0.00    +0.000 N 
ATOM     22  C   UNL     1       2.201   5.982  20.039  0.00  0.00    +0.000 C 
ATOM     23  O   UNL     1       2.791   5.102  20.664  0.00  0.00    +0.000 OA
ATOM     24  H   UNL     1       1.815   7.042  18.316  0.00  0.00    +0.000 HD
BRANCH  21  32
ATOM     25  C   UNL     1       2.300   3.554  17.602  0.00  0.00    +0.000 C 
ATOM     26  C   UNL     1       3.405   4.537  17.319  0.00  0.00    +0.000 A 
ATOM     27  C   UNL     1       4.446   4.091  16.467  0.00  0.00    +0.000 A 
ATOM     28  C   UNL     1       5.527   4.913  16.162  0.00  0.00    +0.000 A 
ATOM     29 CL   UNL     1       6.774   4.355  15.117  0.00  0.00    +0.000 Cl
ATOM     30  C   UNL     1       5.596   6.183  16.698  0.00  0.00    +0.000 A 
ATOM     31  C   UNL     1       4.577   6.636  17.541  0.00  0.00    +0.000 A 
ATOM     32  C   UNL     1       3.467   5.840  17.870  0.00  0.00    +0.000 A 
ENDBRANCH  21  32
ENDBRANCH  20  22
ENDBRANCH  19  20
ENDBRANCH   1  19
TORSDOF 5
ENDMDL
