MODEL 1
REMARK VINA RESULT:      -7.3      0.000      0.000
REMARK  Name = 
REMARK  8 active torsions:
REMARK  status: ('A' for Active; 'I' for Inactive)
REMARK    1  A    between atoms: C_1  and  C_2
REMARK    2  A    between atoms: C_2  and  C_3
REMARK    3  A    between atoms: C_3  and  C_4
REMARK    4  A    between atoms: C_4  and  C_5
REMARK    5  A    between atoms: N_6  and  N_7
REMARK    6  A    between atoms: C_10  and  C_11
REMARK    7  A    between atoms: C_14  and  O_15
REMARK    8  A    between atoms: O_15  and  C_16
REMARK                            x       y       z     vdW  Elec       q    Type
REMARK                         _______ _______ _______ _____ _____    ______ ____
ROOT
ATOM      1  N   UNL     1       5.026   3.573  17.848  0.00  0.00    +0.000 N 
ATOM      2  C   UNL     1       4.153   4.307  18.583  0.00  0.00    +0.000 A 
ATOM      3  N   UNL     1       3.846   5.577  18.403  0.00  0.00    +0.000 NA
ATOM      4  C   UNL     1       2.889   5.975  19.325  0.00  0.00    +0.000 A 
ATOM      5  C   UNL     1       2.529   5.022  20.243  0.00  0.00    +0.000 A 
ATOM      6  S   UNL     1       3.332   3.551  19.904  0.00  0.00    +0.000 S 
ATOM      7  H   UNL     1       5.796   3.199  18.407  0.00  0.00    +0.000 HD
ENDROOT
BRANCH   4   8
ATOM      8  C   UNL     1       2.293   7.301  19.257  0.00  0.00    +0.000 A 
ATOM      9  C   UNL     1       1.667   7.871  20.382  0.00  0.00    +0.000 A 
ATOM     10  C   UNL     1       1.029   9.106  20.269  0.00  0.00    +0.000 A 
ATOM     11  C   UNL     1       1.023   9.801  19.061  0.00  0.00    +0.000 A 
ATOM     12  C   UNL     1       1.645   9.237  17.941  0.00  0.00    +0.000 A 
ATOM     13  C   UNL     1       2.279   7.998  18.052  0.00  0.00    +0.000 A 
BRANCH  11  14
ATOM     14  O   UNL     1       0.350  10.989  19.078  0.00  0.00    +0.000 OA
ATOM     15  C   UNL     1      -0.950  10.978  18.501  0.00  0.00    +0.000 C 
ENDBRANCH  11  14
ENDBRANCH   4   8
BRANCH   1  18
ATOM     16  C   UNL     1       6.456   4.313  16.221  0.00  0.00    +0.000 C 
ATOM     17  C   UNL     1       7.551   4.570  17.238  0.00  0.00    +0.000 C 
ATOM     18  N   UNL     1       5.286   3.835  16.535  0.00  0.00    +0.000 NA
BRANCH  16  19
ATOM     19  C   UNL     1       6.671   4.677  14.758  0.00  0.00    +0.000 C 
BRANCH  19  21
ATOM     20  C   UNL     1       6.503   3.642  12.443  0.00  0.00    +0.000 C 
ATOM     21  C   UNL     1       5.788   3.952  13.747  0.00  0.00    +0.000 C 
ENDBRANCH  19  21
ENDBRANCH  16  19
ENDBRANCH   1  18
TORSDOF 5
ENDMDL
MODEL 2
REMARK VINA RESULT:      -7.1      0.537      1.205
REMARK  Name = 
REMARK  8 active torsions:
REMARK  status: ('A' for Active; 'I' for Inactive)
REMARK    1  A    between atoms: C_1  and  C_2
REMARK    2  A    between atoms: C_2  and  C_3
REMARK    3  A    between atoms: C_3  and  C_4
REMARK    4  A    between atoms: C_4  and  C_5
REMARK    5  A    between atoms: N_6  and  N_7
REMARK    6  A    between atoms: C_10  and  C_11
REMARK    7  A    between atoms: C_14  and  O_15
REMARK    8  A    between atoms: O_15  and  C_16
REMARK                            x       y       z     vdW  Elec       q    Type
REMARK                         _______ _______ _______ _____ _____    ______ ____
ROOT
ATOM      1  N   UNL     1       5.046   3.549  17.996  0.00  0.00    +0.000 N 
ATOM      2  C   UNL     1       4.141   4.285  18.691  0.00  0.00    +0.000 A 
ATOM      3  N   UNL     1       3.822   5.546  18.476  0.00  0.00    +0.000 NA
ATOM      4  C   UNL     1       2.834   5.948  19.363  0.00  0.00    +0.000 A 
ATOM      5  C   UNL     1       2.461   5.009  20.289  0.00  0.00    +0.000 A 
ATOM      6  S   UNL     1       3.294   3.544  20.003  0.00  0.00    +0.000 S 
ATOM      7  H   UNL     1       5.804   3.197  18.584  0.00  0.00    +0.000 HD
ENDROOT
BRANCH   4   8
ATOM      8  C   UNL     1       2.221   7.264  19.251  0.00  0.00    +0.000 A 
ATOM      9  C   UNL     1       2.279   7.989  18.045  0.00  0.00    +0.000 A 
ATOM     10  C   UNL     1       1.760   9.282  17.988  0.00  0.00    +0.000 A 
ATOM     11  C   UNL     1       1.157   9.861  19.103  0.00  0.00    +0.000 A 
ATOM     12  C   UNL     1       1.097   9.144  20.302  0.00  0.00    +0.000 A 
ATOM     13  C   UNL     1       1.623   7.851  20.363  0.00  0.00    +0.000 A 
BRANCH  11  14
ATOM     14  O   UNL     1       0.705  11.137  18.920  0.00  0.00    +0.000 OA
ATOM     15  C   UNL     1       0.366  11.854  20.101  0.00  0.00    +0.000 C 
ENDBRANCH  11  14
ENDBRANCH   4   8
BRANCH   1  18
ATOM     16  C   UNL     1       6.506   4.288  16.397  0.00  0.00    +0.000 C 
ATOM     17  C   UNL     1       7.564   4.595  17.440  0.00  0.00    +0.000 C 
ATOM     18  N   UNL     1       5.339   3.790  16.685  0.00  0.00    +0.000 NA
BRANCH  16  19
ATOM     19  C   UNL     1       6.758   4.626  14.932  0.00  0.00    +0.000 C 
BRANCH  19  21
ATOM     20  C   UNL     1       6.221   3.546  12.696  0.00  0.00    +0.000 C 
ATOM     21  C   UNL     1       5.671   4.205  13.949  0.00  0.00    +0.000 C 
ENDBRANCH  19  21
ENDBRANCH  16  19
ENDBRANCH   1  18
TORSDOF 5
ENDMDL
MODEL 3
REMARK VINA RESULT:      -6.7      3.818      5.242
REMARK  Name = 
REMARK  8 active torsions:
REMARK  status: ('A' for Active; 'I' for Inactive)
REMARK    1  A    between atoms: C_1  and  C_2
REMARK    2  A    between atoms: C_2  and  C_3
REMARK    3  A    between atoms: C_3  and  C_4
REMARK    4  A    between atoms: C_4  and  C_5
REMARK    5  A    between atoms: N_6  and  N_7
REMARK    6  A    between atoms: C_10  and  C_11
REMARK    7  A    between atoms: C_14  and  O_15
REMARK    8  A    between atoms: O_15  and  C_16
REMARK                            x       y       z     vdW  Elec       q    Type
REMARK                         _______ _______ _______ _____ _____    ______ ____
ROOT
ATOM      1  N   UNL     1       6.051   4.499  13.885  0.00  0.00    +0.000 N 
ATOM      2  C   UNL     1       5.937   4.477  15.238  0.00  0.00    +0.000 A 
ATOM      3  N   UNL     1       4.826   4.318  15.930  0.00  0.00    +0.000 NA
ATOM      4  C   UNL     1       5.104   4.314  17.289  0.00  0.00    +0.000 A 
ATOM      5  C   UNL     1       6.416   4.539  17.618  0.00  0.00    +0.000 A 
ATOM      6  S   UNL     1       7.360   4.673  16.200  0.00  0.00    +0.000 S 
ATOM      7  H   UNL     1       6.440   5.378  13.537  0.00  0.00    +0.000 HD
ENDROOT
BRANCH   4   8
ATOM      8  C   UNL     1       4.061   4.031  18.263  0.00  0.00    +0.000 A 
ATOM      9  C   UNL     1       2.733   4.445  18.042  0.00  0.00    +0.000 A 
ATOM     10  C   UNL     1       1.768   4.238  19.028  0.00  0.00    +0.000 A 
ATOM     11  C   UNL     1       2.093   3.602  20.225  0.00  0.00    +0.000 A 
ATOM     12  C   UNL     1       3.411   3.188  20.447  0.00  0.00    +0.000 A 
ATOM     13  C   UNL     1       4.379   3.400  19.463  0.00  0.00    +0.000 A 
BRANCH  11  14
ATOM     14  O   UNL     1       1.063   3.476  21.112  0.00  0.00    +0.000 OA
ATOM     15  C   UNL     1       1.182   2.420  22.059  0.00  0.00    +0.000 C 
ENDBRANCH  11  14
ENDBRANCH   4   8
BRANCH   1  18
ATOM     16  C   UNL     1       5.689   3.185  12.048  0.00  0.00    +0.000 C 
ATOM     17  C   UNL     1       7.174   3.117  11.748  0.00  0.00    +0.000 C 
ATOM     18  N   UNL     1       5.192   3.833  13.062  0.00  0.00    +0.000 NA
BRANCH  16  19
ATOM     19  C   UNL     1       4.688   2.532  11.102  0.00  0.00    +0.000 C 
BRANCH  19  21
ATOM     20  C   UNL     1       3.184   4.000   9.674  0.00  0.00    +0.000 C 
ATOM     21  C   UNL     1       3.336   3.225  10.972  0.00  0.00    +0.000 C 
ENDBRANCH  19  21
ENDBRANCH  16  19
ENDBRANCH   1  18
TORSDOF 5
ENDMDL
MODEL 4
REMARK VINA RESULT:      -6.7      3.516      5.001
REMARK  Name = 
REMARK  8 active torsions:
REMARK  status: ('A' for Active; 'I' for Inactive)
REMARK    1  A    between atoms: C_1  and  C_2
REMARK    2  A    between atoms: C_2  and  C_3
REMARK    3  A    between atoms: C_3  and  C_4
REMARK    4  A    between atoms: C_4  and  C_5
REMARK    5  A    between atoms: N_6  and  N_7
REMARK    6  A    between atoms: C_10  and  C_11
REMARK    7  A    between atoms: C_14  and  O_15
REMARK    8  A    between atoms: O_15  and  C_16
REMARK                            x       y       z     vdW  Elec       q    Type
REMARK                         _______ _______ _______ _____ _____    ______ ____
ROOT
ATOM      1  N   UNL     1       6.516   4.660  14.396  0.00  0.00    +0.000 N 
ATOM      2  C   UNL     1       6.181   4.880  15.693  0.00  0.00    +0.000 A 
ATOM      3  N   UNL     1       5.057   4.527  16.285  0.00  0.00    +0.000 NA
ATOM      4  C   UNL     1       5.087   4.888  17.625  0.00  0.00    +0.000 A 
ATOM      5  C   UNL     1       6.206   5.575  18.020  0.00  0.00    +0.000 A 
ATOM      6  S   UNL     1       7.304   5.705  16.717  0.00  0.00    +0.000 S 
ATOM      7  H   UNL     1       6.696   5.525  13.882  0.00  0.00    +0.000 HD
ENDROOT
BRANCH   4   8
ATOM      8  C   UNL     1       4.014   4.499  18.527  0.00  0.00    +0.000 A 
ATOM      9  C   UNL     1       4.120   3.341  19.321  0.00  0.00    +0.000 A 
ATOM     10  C   UNL     1       3.044   2.943  20.114  0.00  0.00    +0.000 A 
ATOM     11  C   UNL     1       1.868   3.690  20.153  0.00  0.00    +0.000 A 
ATOM     12  C   UNL     1       1.760   4.842  19.366  0.00  0.00    +0.000 A 
ATOM     13  C   UNL     1       2.834   5.238  18.567  0.00  0.00    +0.000 A 
BRANCH  11  14
ATOM     14  O   UNL     1       0.886   3.184  20.955  0.00  0.00    +0.000 OA
ATOM     15  C   UNL     1       1.324   2.398  22.057  0.00  0.00    +0.000 C 
ENDBRANCH  11  14
ENDBRANCH   4   8
BRANCH   1  18
ATOM     16  C   UNL     1       6.361   3.511  12.423  0.00  0.00    +0.000 C 
ATOM     17  C   UNL     1       7.267   4.504  11.722  0.00  0.00    +0.000 C 
ATOM     18  N   UNL     1       6.034   3.604  13.680  0.00  0.00    +0.000 NA
BRANCH  16  19
ATOM     19  C   UNL     1       5.727   2.369  11.638  0.00  0.00    +0.000 C 
BRANCH  19  21
ATOM     20  C   UNL     1       6.108  -0.112  11.242  0.00  0.00    +0.000 C 
ATOM     21  C   UNL     1       6.680   1.291  11.132  0.00  0.00    +0.000 C 
ENDBRANCH  19  21
ENDBRANCH  16  19
ENDBRANCH   1  18
TORSDOF 5
ENDMDL
MODEL 5
REMARK VINA RESULT:      -6.6      3.817      5.211
REMARK  Name = 
REMARK  8 active torsions:
REMARK  status: ('A' for Active; 'I' for Inactive)
REMARK    1  A    between atoms: C_1  and  C_2
REMARK    2  A    between atoms: C_2  and  C_3
REMARK    3  A    between atoms: C_3  and  C_4
REMARK    4  A    between atoms: C_4  and  C_5
REMARK    5  A    between atoms: N_6  and  N_7
REMARK    6  A    between atoms: C_10  and  C_11
REMARK    7  A    between atoms: C_14  and  O_15
REMARK    8  A    between atoms: O_15  and  C_16
REMARK                            x       y       z     vdW  Elec       q    Type
REMARK                         _______ _______ _______ _____ _____    ______ ____
ROOT
ATOM      1  N   UNL     1       6.499   4.488  14.297  0.00  0.00    +0.000 N 
ATOM      2  C   UNL     1       6.142   4.638  15.598  0.00  0.00    +0.000 A 
ATOM      3  N   UNL     1       5.022   4.224  16.158  0.00  0.00    +0.000 NA
ATOM      4  C   UNL     1       5.024   4.524  17.513  0.00  0.00    +0.000 A 
ATOM      5  C   UNL     1       6.116   5.226  17.955  0.00  0.00    +0.000 A 
ATOM      6  S   UNL     1       7.226   5.449  16.674  0.00  0.00    +0.000 S 
ATOM      7  H   UNL     1       6.659   5.381  13.826  0.00  0.00    +0.000 HD
ENDROOT
BRANCH   4   8
ATOM      8  C   UNL     1       3.952   4.061  18.381  0.00  0.00    +0.000 A 
ATOM      9  C   UNL     1       2.646   4.573  18.254  0.00  0.00    +0.000 A 
ATOM     10  C   UNL     1       1.656   4.177  19.152  0.00  0.00    +0.000 A 
ATOM     11  C   UNL     1       1.932   3.259  20.164  0.00  0.00    +0.000 A 
ATOM     12  C   UNL     1       3.229   2.748  20.293  0.00  0.00    +0.000 A 
ATOM     13  C   UNL     1       4.223   3.148  19.397  0.00  0.00    +0.000 A 
BRANCH  11  14
ATOM     14  O   UNL     1       0.882   2.968  20.986  0.00  0.00    +0.000 OA
ATOM     15  C   UNL     1       1.211   2.352  22.226  0.00  0.00    +0.000 C 
ENDBRANCH  11  14
ENDBRANCH   4   8
BRANCH   1  18
ATOM     16  C   UNL     1       6.377   3.444  12.265  0.00  0.00    +0.000 C 
ATOM     17  C   UNL     1       7.230   4.516  11.613  0.00  0.00    +0.000 C 
ATOM     18  N   UNL     1       6.059   3.452  13.527  0.00  0.00    +0.000 NA
BRANCH  16  19
ATOM     19  C   UNL     1       5.789   2.319  11.422  0.00  0.00    +0.000 C 
BRANCH  19  21
ATOM     20  C   UNL     1       6.112  -0.201  11.349  0.00  0.00    +0.000 C 
ATOM     21  C   UNL     1       6.729   1.164  11.093  0.00  0.00    +0.000 C 
ENDBRANCH  19  21
ENDBRANCH  16  19
ENDBRANCH   1  18
TORSDOF 5
ENDMDL
MODEL 6
REMARK VINA RESULT:      -6.6      0.815      1.107
REMARK  Name = 
REMARK  8 active torsions:
REMARK  status: ('A' for Active; 'I' for Inactive)
REMARK    1  A    between atoms: C_1  and  C_2
REMARK    2  A    between atoms: C_2  and  C_3
REMARK    3  A    between atoms: C_3  and  C_4
REMARK    4  A    between atoms: C_4  and  C_5
REMARK    5  A    between atoms: N_6  and  N_7
REMARK    6  A    between atoms: C_10  and  C_11
REMARK    7  A    between atoms: C_14  and  O_15
REMARK    8  A    between atoms: O_15  and  C_16
REMARK                            x       y       z     vdW  Elec       q    Type
REMARK                         _______ _______ _______ _____ _____    ______ ____
ROOT
ATOM      1  N   UNL     1       5.464   3.854  19.179  0.00  0.00    +0.000 N 
ATOM      2  C   UNL     1       4.310   4.496  19.489  0.00  0.00    +0.000 A 
ATOM      3  N   UNL     1       4.059   5.781  19.332  0.00  0.00    +0.000 NA
ATOM      4  C   UNL     1       2.760   6.068  19.726  0.00  0.00    +0.000 A 
ATOM      5  C   UNL     1       2.059   5.010  20.245  0.00  0.00    +0.000 A 
ATOM      6  S   UNL     1       3.003   3.587  20.162  0.00  0.00    +0.000 S 
ATOM      7  H   UNL     1       5.896   3.405  19.990  0.00  0.00    +0.000 HD
ENDROOT
BRANCH   4   8
ATOM      8  C   UNL     1       2.198   7.397  19.536  0.00  0.00    +0.000 A 
ATOM      9  C   UNL     1       1.492   8.039  20.572  0.00  0.00    +0.000 A 
ATOM     10  C   UNL     1       0.890   9.275  20.338  0.00  0.00    +0.000 A 
ATOM     11  C   UNL     1       0.999   9.901  19.098  0.00  0.00    +0.000 A 
ATOM     12  C   UNL     1       1.700   9.267  18.067  0.00  0.00    +0.000 A 
ATOM     13  C   UNL     1       2.298   8.026  18.298  0.00  0.00    +0.000 A 
BRANCH  11  14
ATOM     14  O   UNL     1       0.351  11.099  18.994  0.00  0.00    +0.000 OA
ATOM     15  C   UNL     1      -0.984  11.045  18.505  0.00  0.00    +0.000 C 
ENDBRANCH  11  14
ENDBRANCH   4   8
BRANCH   1  18
ATOM     16  C   UNL     1       5.893   4.180  16.955  0.00  0.00    +0.000 C 
ATOM     17  C   UNL     1       4.530   3.640  16.567  0.00  0.00    +0.000 C 
ATOM     18  N   UNL     1       6.300   4.278  18.188  0.00  0.00    +0.000 NA
BRANCH  16  19
ATOM     19  C   UNL     1       6.893   4.579  15.876  0.00  0.00    +0.000 C 
BRANCH  19  21
ATOM     20  C   UNL     1       6.315   3.832  13.517  0.00  0.00    +0.000 C 
ATOM     21  C   UNL     1       6.302   4.969  14.525  0.00  0.00    +0.000 C 
ENDBRANCH  19  21
ENDBRANCH  16  19
ENDBRANCH   1  18
TORSDOF 5
ENDMDL
MODEL 7
REMARK VINA RESULT:      -6.6      3.515      4.842
REMARK  Name = 
REMARK  8 active torsions:
REMARK  status: ('A' for Active; 'I' for Inactive)
REMARK    1  A    between atoms: C_1  and  C_2
REMARK    2  A    between atoms: C_2  and  C_3
REMARK    3  A    between atoms: C_3  and  C_4
REMARK    4  A    between atoms: C_4  and  C_5
REMARK    5  A    between atoms: N_6  and  N_7
REMARK    6  A    between atoms: C_10  and  C_11
REMARK    7  A    between atoms: C_14  and  O_15
REMARK    8  A    between atoms: O_15  and  C_16
REMARK                            x       y       z     vdW  Elec       q    Type
REMARK                         _______ _______ _______ _____ _____    ______ ____
ROOT
ATOM      1  N   UNL     1       6.862   5.373  14.680  0.00  0.00    +0.000 N 
ATOM      2  C   UNL     1       6.369   5.477  15.941  0.00  0.00    +0.000 A 
ATOM      3  N   UNL     1       5.234   4.972  16.385  0.00  0.00    +0.000 NA
ATOM      4  C   UNL     1       5.082   5.251  17.735  0.00  0.00    +0.000 A 
ATOM      5  C   UNL     1       6.069   6.026  18.288  0.00  0.00    +0.000 A 
ATOM      6  S   UNL     1       7.278   6.350  17.124  0.00  0.00    +0.000 S 
ATOM      7  H   UNL     1       6.998   6.283  14.234  0.00  0.00    +0.000 HD
ENDROOT
BRANCH   4   8
ATOM      8  C   UNL     1       3.968   4.696  18.491  0.00  0.00    +0.000 A 
ATOM      9  C   UNL     1       3.154   5.522  19.290  0.00  0.00    +0.000 A 
ATOM     10  C   UNL     1       2.146   4.955  20.071  0.00  0.00    +0.000 A 
ATOM     11  C   UNL     1       1.914   3.581  20.052  0.00  0.00    +0.000 A 
ATOM     12  C   UNL     1       2.721   2.759  19.259  0.00  0.00    +0.000 A 
ATOM     13  C   UNL     1       3.733   3.324  18.481  0.00  0.00    +0.000 A 
BRANCH  11  14
ATOM     14  O   UNL     1       0.911   3.152  20.873  0.00  0.00    +0.000 OA
ATOM     15  C   UNL     1       1.315   2.403  22.013  0.00  0.00    +0.000 C 
ENDBRANCH  11  14
ENDBRANCH   4   8
BRANCH   1  18
ATOM     16  C   UNL     1       7.039   4.343  12.645  0.00  0.00    +0.000 C 
ATOM     17  C   UNL     1       7.891   5.472  12.097  0.00  0.00    +0.000 C 
ATOM     18  N   UNL     1       6.578   4.319  13.863  0.00  0.00    +0.000 NA
BRANCH  16  19
ATOM     19  C   UNL     1       6.622   3.191  11.739  0.00  0.00    +0.000 C 
BRANCH  19  21
ATOM     20  C   UNL     1       4.142   3.327  11.203  0.00  0.00    +0.000 C 
ATOM     21  C   UNL     1       5.232   2.612  11.983  0.00  0.00    +0.000 C 
ENDBRANCH  19  21
ENDBRANCH  16  19
ENDBRANCH   1  18
TORSDOF 5
ENDMDL
MODEL 8
REMARK VINA RESULT:      -6.5      3.797      5.143
REMARK  Name = 
REMARK  8 active torsions:
REMARK  status: ('A' for Active; 'I' for Inactive)
REMARK    1  A    between atoms: C_1  and  C_2
REMARK    2  A    between atoms: C_2  and  C_3
REMARK    3  A    between atoms: C_3  and  C_4
REMARK    4  A    between atoms: C_4  and  C_5
REMARK    5  A    between atoms: N_6  and  N_7
REMARK    6  A    between atoms: C_10  and  C_11
REMARK    7  A    between atoms: C_14  and  O_15
REMARK    8  A    between atoms: O_15  and  C_16
REMARK                            x       y       z     vdW  Elec       q    Type
REMARK                         _______ _______ _______ _____ _____    ______ ____
ROOT
ATOM      1  N   UNL     1       6.137   4.580  14.104  0.00  0.00    +0.000 N 
ATOM      2  C   UNL     1       5.986   4.518  15.451  0.00  0.00    +0.000 A 
ATOM      3  N   UNL     1       4.847   4.431  16.111  0.00  0.00    +0.000 NA
ATOM      4  C   UNL     1       5.088   4.352  17.475  0.00  0.00    +0.000 A 
ATOM      5  C   UNL     1       6.405   4.450  17.843  0.00  0.00    +0.000 A 
ATOM      6  S   UNL     1       7.394   4.553  16.453  0.00  0.00    +0.000 S 
ATOM      7  H   UNL     1       6.609   5.434  13.799  0.00  0.00    +0.000 HD
ENDROOT
BRANCH   4   8
ATOM      8  C   UNL     1       3.999   4.126  18.414  0.00  0.00    +0.000 A 
ATOM      9  C   UNL     1       4.220   3.448  19.628  0.00  0.00    +0.000 A 
ATOM     10  C   UNL     1       3.145   3.168  20.471  0.00  0.00    +0.000 A 
ATOM     11  C   UNL     1       1.853   3.575  20.143  0.00  0.00    +0.000 A 
ATOM     12  C   UNL     1       1.630   4.251  18.938  0.00  0.00    +0.000 A 
ATOM     13  C   UNL     1       2.705   4.525  18.090  0.00  0.00    +0.000 A 
BRANCH  11  14
ATOM     14  O   UNL     1       0.888   3.226  21.044  0.00  0.00    +0.000 OA
ATOM     15  C   UNL     1       1.310   2.392  22.117  0.00  0.00    +0.000 C 
ENDBRANCH  11  14
ENDBRANCH   4   8
BRANCH   1  18
ATOM     16  C   UNL     1       5.709   3.415  12.182  0.00  0.00    +0.000 C 
ATOM     17  C   UNL     1       7.190   3.279  11.882  0.00  0.00    +0.000 C 
ATOM     18  N   UNL     1       5.245   4.022  13.236  0.00  0.00    +0.000 NA
BRANCH  16  19
ATOM     19  C   UNL     1       4.678   2.887  11.192  0.00  0.00    +0.000 C 
BRANCH  19  21
ATOM     20  C   UNL     1       2.780   3.338   9.563  0.00  0.00    +0.000 C 
ATOM     21  C   UNL     1       3.712   3.917  10.615  0.00  0.00    +0.000 C 
ENDBRANCH  19  21
ENDBRANCH  16  19
ENDBRANCH   1  18
TORSDOF 5
ENDMDL
MODEL 9
REMARK VINA RESULT:      -6.4      1.110      1.365
REMARK  Name = 
REMARK  8 active torsions:
REMARK  status: ('A' for Active; 'I' for Inactive)
REMARK    1  A    between atoms: C_1  and  C_2
REMARK    2  A    between atoms: C_2  and  C_3
REMARK    3  A    between atoms: C_3  and  C_4
REMARK    4  A    between atoms: C_4  and  C_5
REMARK    5  A    between atoms: N_6  and  N_7
REMARK    6  A    between atoms: C_10  and  C_11
REMARK    7  A    between atoms: C_14  and  O_15
REMARK    8  A    between atoms: O_15  and  C_16
REMARK                            x       y       z     vdW  Elec       q    Type
REMARK                         _______ _______ _______ _____ _____    ______ ____
ROOT
ATOM      1  N   UNL     1       4.637   3.430  18.599  0.00  0.00    +0.000 N 
ATOM      2  C   UNL     1       3.761   4.273  19.203  0.00  0.00    +0.000 A 
ATOM      3  N   UNL     1       3.582   5.550  18.927  0.00  0.00    +0.000 NA
ATOM      4  C   UNL     1       2.577   6.077  19.725  0.00  0.00    +0.000 A 
ATOM      5  C   UNL     1       2.051   5.212  20.650  0.00  0.00    +0.000 A 
ATOM      6  S   UNL     1       2.756   3.665  20.471  0.00  0.00    +0.000 S 
ATOM      7  H   UNL     1       5.314   3.030  19.252  0.00  0.00    +0.000 HD
ENDROOT
BRANCH   4   8
ATOM      8  C   UNL     1       2.105   7.439  19.529  0.00  0.00    +0.000 A 
ATOM      9  C   UNL     1       1.430   8.126  20.557  0.00  0.00    +0.000 A 
ATOM     10  C   UNL     1       0.912   9.399  20.316  0.00  0.00    +0.000 A 
ATOM     11  C   UNL     1       1.075  10.015  19.077  0.00  0.00    +0.000 A 
ATOM     12  C   UNL     1       1.746   9.336  18.054  0.00  0.00    +0.000 A 
ATOM     13  C   UNL     1       2.260   8.059  18.292  0.00  0.00    +0.000 A 
BRANCH  11  14
ATOM     14  O   UNL     1       0.507  11.252  18.966  0.00  0.00    +0.000 OA
ATOM     15  C   UNL     1       0.424  12.010  20.167  0.00  0.00    +0.000 C 
ENDBRANCH  11  14
ENDBRANCH   4   8
BRANCH   1  18
ATOM     16  C   UNL     1       6.178   4.193  17.090  0.00  0.00    +0.000 C 
ATOM     17  C   UNL     1       7.079   4.702  18.199  0.00  0.00    +0.000 C 
ATOM     18  N   UNL     1       5.044   3.592  17.307  0.00  0.00    +0.000 NA
BRANCH  16  19
ATOM     19  C   UNL     1       6.550   4.435  15.632  0.00  0.00    +0.000 C 
BRANCH  19  21
ATOM     20  C   UNL     1       5.125   6.538  15.717  0.00  0.00    +0.000 C 
ATOM     21  C   UNL     1       5.654   5.399  14.861  0.00  0.00    +0.000 C 
ENDBRANCH  19  21
ENDBRANCH  16  19
ENDBRANCH   1  18
TORSDOF 5
ENDMDL
