MODEL 1
REMARK VINA RESULT:      -5.9      0.000      0.000
REMARK  Name = 
REMARK  6 active torsions:
REMARK  status: ('A' for Active; 'I' for Inactive)
REMARK    1  A    between atoms: C_1  and  O_2
REMARK    2  A    between atoms: O_2  and  C_3
REMARK    3  A    between atoms: C_6  and  C_7
REMARK    4  A    between atoms: C_7  and  C_8
REMARK    5  A    between atoms: C_8  and  N_9
REMARK    6  A    between atoms: C_10  and  C_11
REMARK                            x       y       z     vdW  Elec       q    Type
REMARK                         _______ _______ _______ _____ _____    ______ ____
ROOT
ATOM      1  C   UNL     1       1.449   4.143  19.898  0.00  0.00    +0.000 A 
ATOM      2  C   UNL     1       1.567   4.028  18.514  0.00  0.00    +0.000 A 
ATOM      3  C   UNL     1       2.209   5.021  17.771  0.00  0.00    +0.000 A 
ATOM      4  C   UNL     1       2.708   6.176  18.388  0.00  0.00    +0.000 A 
ATOM      5  C   UNL     1       2.591   6.278  19.784  0.00  0.00    +0.000 A 
ATOM      6  C   UNL     1       1.965   5.271  20.532  0.00  0.00    +0.000 A 
ENDROOT
BRANCH   1   8
ATOM      7  C   UNL     1       1.365   2.629  21.709  0.00  0.00    +0.000 C 
ATOM      8  O   UNL     1       0.787   3.114  20.505  0.00  0.00    +0.000 OA
ENDBRANCH   1   8
BRANCH   4   9
ATOM      9  C   UNL     1       3.409   7.267  17.604  0.00  0.00    +0.000 C 
BRANCH   9  10
ATOM     10  C   UNL     1       4.688   6.809  16.889  0.00  0.00    +0.000 C 
BRANCH  10  11
ATOM     11  N   UNL     1       5.683   6.257  17.789  0.00  0.00    +0.000 N 
ATOM     12  C   UNL     1       6.995   6.675  17.748  0.00  0.00    +0.000 C 
ATOM     13  C   UNL     1       7.862   6.113  18.843  0.00  0.00    +0.000 C 
ATOM     14  O   UNL     1       7.434   7.451  16.908  0.00  0.00    +0.000 OA
ATOM     15  H   UNL     1       5.380   5.618  18.511  0.00  0.00    +0.000 HD
ENDBRANCH  10  11
ENDBRANCH   9  10
ENDBRANCH   4   9
TORSDOF 4
ENDMDL
MODEL 2
REMARK VINA RESULT:      -5.9      1.557      1.803
REMARK  Name = 
REMARK  6 active torsions:
REMARK  status: ('A' for Active; 'I' for Inactive)
REMARK    1  A    between atoms: C_1  and  O_2
REMARK    2  A    between atoms: O_2  and  C_3
REMARK    3  A    between atoms: C_6  and  C_7
REMARK    4  A    between atoms: C_7  and  C_8
REMARK    5  A    between atoms: C_8  and  N_9
REMARK    6  A    between atoms: C_10  and  C_11
REMARK                            x       y       z     vdW  Elec       q    Type
REMARK                         _______ _______ _______ _____ _____    ______ ____
ROOT
ATOM      1  C   UNL     1       1.863   4.109  19.289  0.00  0.00    +0.000 A 
ATOM      2  C   UNL     1       1.969   3.166  18.270  0.00  0.00    +0.000 A 
ATOM      3  C   UNL     1       2.888   3.340  17.233  0.00  0.00    +0.000 A 
ATOM      4  C   UNL     1       3.691   4.486  17.166  0.00  0.00    +0.000 A 
ATOM      5  C   UNL     1       3.582   5.428  18.202  0.00  0.00    +0.000 A 
ATOM      6  C   UNL     1       2.673   5.242  19.253  0.00  0.00    +0.000 A 
ENDROOT
BRANCH   1   8
ATOM      7  C   UNL     1       1.319   2.950  21.274  0.00  0.00    +0.000 C 
ATOM      8  O   UNL     1       0.916   3.830  20.234  0.00  0.00    +0.000 OA
ENDBRANCH   1   8
BRANCH   4   9
ATOM      9  C   UNL     1       4.697   4.699  16.051  0.00  0.00    +0.000 C 
BRANCH   9  10
ATOM     10  C   UNL     1       6.045   4.002  16.277  0.00  0.00    +0.000 C 
BRANCH  10  11
ATOM     11  N   UNL     1       6.704   4.407  17.504  0.00  0.00    +0.000 N 
ATOM     12  C   UNL     1       7.366   5.610  17.598  0.00  0.00    +0.000 C 
ATOM     13  C   UNL     1       7.864   5.941  18.980  0.00  0.00    +0.000 C 
ATOM     14  O   UNL     1       7.531   6.369  16.651  0.00  0.00    +0.000 OA
ATOM     15  H   UNL     1       6.595   3.825  18.325  0.00  0.00    +0.000 HD
ENDBRANCH  10  11
ENDBRANCH   9  10
ENDBRANCH   4   9
TORSDOF 4
ENDMDL
MODEL 3
REMARK VINA RESULT:      -5.9      2.139      6.124
REMARK  Name = 
REMARK  6 active torsions:
REMARK  status: ('A' for Active; 'I' for Inactive)
REMARK    1  A    between atoms: C_1  and  O_2
REMARK    2  A    between atoms: O_2  and  C_3
REMARK    3  A    between atoms: C_6  and  C_7
REMARK    4  A    between atoms: C_7  and  C_8
REMARK    5  A    between atoms: C_8  and  N_9
REMARK    6  A    between atoms: C_10  and  C_11
REMARK                            x       y       z     vdW  Elec       q    Type
REMARK                         _______ _______ _______ _____ _____    ______ ____
ROOT
ATOM      1  C   UNL     1       6.420   6.087  16.793  0.00  0.00    +0.000 A 
ATOM      2  C   UNL     1       6.511   4.721  16.533  0.00  0.00    +0.000 A 
ATOM      3  C   UNL     1       5.383   3.904  16.627  0.00  0.00    +0.000 A 
ATOM      4  C   UNL     1       4.145   4.424  17.029  0.00  0.00    +0.000 A 
ATOM      5  C   UNL     1       4.062   5.803  17.282  0.00  0.00    +0.000 A 
ATOM      6  C   UNL     1       5.191   6.627  17.167  0.00  0.00    +0.000 A 
ENDROOT
BRANCH   1   8
ATOM      7  C   UNL     1       7.744   7.893  17.545  0.00  0.00    +0.000 C 
ATOM      8  O   UNL     1       7.596   6.772  16.683  0.00  0.00    +0.000 OA
ENDBRANCH   1   8
BRANCH   4   9
ATOM      9  C   UNL     1       2.906   3.557  17.138  0.00  0.00    +0.000 C 
BRANCH   9  10
ATOM     10  C   UNL     1       3.077   2.322  18.032  0.00  0.00    +0.000 C 
BRANCH  10  11
ATOM     11  N   UNL     1       2.918   2.608  19.445  0.00  0.00    +0.000 N 
ATOM     12  C   UNL     1       1.677   2.601  20.041  0.00  0.00    +0.000 C 
ATOM     13  C   UNL     1       1.703   2.772  21.537  0.00  0.00    +0.000 C 
ATOM     14  O   UNL     1       0.628   2.453  19.425  0.00  0.00    +0.000 OA
ATOM     15  H   UNL     1       3.748   2.730  20.010  0.00  0.00    +0.000 HD
ENDBRANCH  10  11
ENDBRANCH   9  10
ENDBRANCH   4   9
TORSDOF 4
ENDMDL
MODEL 4
REMARK VINA RESULT:      -5.9      1.765      2.234
REMARK  Name = 
REMARK  6 active torsions:
REMARK  status: ('A' for Active; 'I' for Inactive)
REMARK    1  A    between atoms: C_1  and  O_2
REMARK    2  A    between atoms: O_2  and  C_3
REMARK    3  A    between atoms: C_6  and  C_7
REMARK    4  A    between atoms: C_7  and  C_8
REMARK    5  A    between atoms: C_8  and  N_9
REMARK    6  A    between atoms: C_10  and  C_11
REMARK                            x       y       z     vdW  Elec       q    Type
REMARK                         _______ _______ _______ _____ _____    ______ ____
ROOT
ATOM      1  C   UNL     1       1.861   3.512  19.620  0.00  0.00    +0.000 A 
ATOM      2  C   UNL     1       3.104   2.895  19.748  0.00  0.00    +0.000 A 
ATOM      3  C   UNL     1       4.053   2.991  18.728  0.00  0.00    +0.000 A 
ATOM      4  C   UNL     1       3.764   3.666  17.534  0.00  0.00    +0.000 A 
ATOM      5  C   UNL     1       2.511   4.289  17.418  0.00  0.00    +0.000 A 
ATOM      6  C   UNL     1       1.566   4.211  18.451  0.00  0.00    +0.000 A 
ENDROOT
BRANCH   1   8
ATOM      7  C   UNL     1       1.546   2.587  21.771  0.00  0.00    +0.000 C 
ATOM      8  O   UNL     1       1.018   3.330  20.680  0.00  0.00    +0.000 OA
ENDBRANCH   1   8
BRANCH   4   9
ATOM      9  C   UNL     1       4.776   3.784  16.412  0.00  0.00    +0.000 C 
BRANCH   9  10
ATOM     10  C   UNL     1       5.461   5.154  16.322  0.00  0.00    +0.000 C 
BRANCH  10  11
ATOM     11  N   UNL     1       6.082   5.569  17.565  0.00  0.00    +0.000 N 
ATOM     12  C   UNL     1       7.361   5.177  17.892  0.00  0.00    +0.000 C 
ATOM     13  C   UNL     1       7.907   5.814  19.142  0.00  0.00    +0.000 C 
ATOM     14  O   UNL     1       8.021   4.390  17.224  0.00  0.00    +0.000 OA
ATOM     15  H   UNL     1       5.590   6.228  18.155  0.00  0.00    +0.000 HD
ENDBRANCH  10  11
ENDBRANCH   9  10
ENDBRANCH   4   9
TORSDOF 4
ENDMDL
MODEL 5
REMARK VINA RESULT:      -5.8      1.710      2.498
REMARK  Name = 
REMARK  6 active torsions:
REMARK  status: ('A' for Active; 'I' for Inactive)
REMARK    1  A    between atoms: C_1  and  O_2
REMARK    2  A    between atoms: O_2  and  C_3
REMARK    3  A    between atoms: C_6  and  C_7
REMARK    4  A    between atoms: C_7  and  C_8
REMARK    5  A    between atoms: C_8  and  N_9
REMARK    6  A    between atoms: C_10  and  C_11
REMARK                            x       y       z     vdW  Elec       q    Type
REMARK                         _______ _______ _______ _____ _____    ______ ____
ROOT
ATOM      1  C   UNL     1       2.372   4.576  18.766  0.00  0.00    +0.000 A 
ATOM      2  C   UNL     1       3.065   5.779  18.657  0.00  0.00    +0.000 A 
ATOM      3  C   UNL     1       4.061   5.940  17.692  0.00  0.00    +0.000 A 
ATOM      4  C   UNL     1       4.421   4.885  16.842  0.00  0.00    +0.000 A 
ATOM      5  C   UNL     1       3.711   3.679  16.955  0.00  0.00    +0.000 A 
ATOM      6  C   UNL     1       2.696   3.525  17.911  0.00  0.00    +0.000 A 
ENDROOT
BRANCH   1   8
ATOM      7  C   UNL     1       1.210   3.270  20.355  0.00  0.00    +0.000 C 
ATOM      8  O   UNL     1       1.435   4.541  19.760  0.00  0.00    +0.000 OA
ENDBRANCH   1   8
BRANCH   4   9
ATOM      9  C   UNL     1       5.498   5.035  15.786  0.00  0.00    +0.000 C 
BRANCH   9  10
ATOM     10  C   UNL     1       6.915   5.206  16.350  0.00  0.00    +0.000 C 
BRANCH  10  11
ATOM     11  N   UNL     1       7.280   6.592  16.577  0.00  0.00    +0.000 N 
ATOM     12  C   UNL     1       7.655   7.038  17.824  0.00  0.00    +0.000 C 
ATOM     13  C   UNL     1       8.143   8.462  17.855  0.00  0.00    +0.000 C 
ATOM     14  O   UNL     1       7.619   6.344  18.833  0.00  0.00    +0.000 OA
ATOM     15  H   UNL     1       7.337   7.212  15.780  0.00  0.00    +0.000 HD
ENDBRANCH  10  11
ENDBRANCH   9  10
ENDBRANCH   4   9
TORSDOF 4
ENDMDL
MODEL 6
REMARK VINA RESULT:      -5.8      2.487      6.016
REMARK  Name = 
REMARK  6 active torsions:
REMARK  status: ('A' for Active; 'I' for Inactive)
REMARK    1  A    between atoms: C_1  and  O_2
REMARK    2  A    between atoms: O_2  and  C_3
REMARK    3  A    between atoms: C_6  and  C_7
REMARK    4  A    between atoms: C_7  and  C_8
REMARK    5  A    between atoms: C_8  and  N_9
REMARK    6  A    between atoms: C_10  and  C_11
REMARK                            x       y       z     vdW  Elec       q    Type
REMARK                         _______ _______ _______ _____ _____    ______ ____
ROOT
ATOM      1  C   UNL     1       6.120   5.256  15.986  0.00  0.00    +0.000 A 
ATOM      2  C   UNL     1       5.604   6.475  16.420  0.00  0.00    +0.000 A 
ATOM      3  C   UNL     1       4.406   6.525  17.135  0.00  0.00    +0.000 A 
ATOM      4  C   UNL     1       3.670   5.361  17.393  0.00  0.00    +0.000 A 
ATOM      5  C   UNL     1       4.201   4.137  16.957  0.00  0.00    +0.000 A 
ATOM      6  C   UNL     1       5.416   4.085  16.257  0.00  0.00    +0.000 A 
ENDROOT
BRANCH   1   8
ATOM      7  C   UNL     1       7.243   4.871  13.944  0.00  0.00    +0.000 C 
ATOM      8  O   UNL     1       7.288   5.344  15.283  0.00  0.00    +0.000 OA
ENDBRANCH   1   8
BRANCH   4   9
ATOM      9  C   UNL     1       2.367   5.389  18.167  0.00  0.00    +0.000 C 
BRANCH   9  10
ATOM     10  C   UNL     1       1.607   4.055  18.171  0.00  0.00    +0.000 C 
BRANCH  10  11
ATOM     11  N   UNL     1       1.222   3.616  19.499  0.00  0.00    +0.000 N 
ATOM     12  C   UNL     1       2.076   2.872  20.283  0.00  0.00    +0.000 C 
ATOM     13  C   UNL     1       1.582   2.627  21.683  0.00  0.00    +0.000 C 
ATOM     14  O   UNL     1       3.160   2.451  19.895  0.00  0.00    +0.000 OA
ATOM     15  H   UNL     1       0.343   3.940  19.879  0.00  0.00    +0.000 HD
ENDBRANCH  10  11
ENDBRANCH   9  10
ENDBRANCH   4   9
TORSDOF 4
ENDMDL
MODEL 7
REMARK VINA RESULT:      -5.8      1.920      2.461
REMARK  Name = 
REMARK  6 active torsions:
REMARK  status: ('A' for Active; 'I' for Inactive)
REMARK    1  A    between atoms: C_1  and  O_2
REMARK    2  A    between atoms: O_2  and  C_3
REMARK    3  A    between atoms: C_6  and  C_7
REMARK    4  A    between atoms: C_7  and  C_8
REMARK    5  A    between atoms: C_8  and  N_9
REMARK    6  A    between atoms: C_10  and  C_11
REMARK                            x       y       z     vdW  Elec       q    Type
REMARK                         _______ _______ _______ _____ _____    ______ ____
ROOT
ATOM      1  C   UNL     1       2.533   3.422  19.459  0.00  0.00    +0.000 A 
ATOM      2  C   UNL     1       2.893   4.565  20.168  0.00  0.00    +0.000 A 
ATOM      3  C   UNL     1       3.419   5.676  19.506  0.00  0.00    +0.000 A 
ATOM      4  C   UNL     1       3.642   5.653  18.122  0.00  0.00    +0.000 A 
ATOM      5  C   UNL     1       3.270   4.498  17.415  0.00  0.00    +0.000 A 
ATOM      6  C   UNL     1       2.722   3.391  18.079  0.00  0.00    +0.000 A 
ENDROOT
BRANCH   1   8
ATOM      7  C   UNL     1       1.529   2.771  21.496  0.00  0.00    +0.000 C 
ATOM      8  O   UNL     1       2.047   2.400  20.225  0.00  0.00    +0.000 OA
ENDBRANCH   1   8
BRANCH   4   9
ATOM      9  C   UNL     1       4.211   6.846  17.379  0.00  0.00    +0.000 C 
BRANCH   9  10
ATOM     10  C   UNL     1       5.673   6.677  16.942  0.00  0.00    +0.000 C 
BRANCH  10  11
ATOM     11  N   UNL     1       5.815   6.058  15.638  0.00  0.00    +0.000 N 
ATOM     12  C   UNL     1       6.710   5.034  15.425  0.00  0.00    +0.000 C 
ATOM     13  C   UNL     1       6.626   4.406  14.059  0.00  0.00    +0.000 C 
ATOM     14  O   UNL     1       7.505   4.641  16.271  0.00  0.00    +0.000 OA
ATOM     15  H   UNL     1       5.179   6.333  14.901  0.00  0.00    +0.000 HD
ENDBRANCH  10  11
ENDBRANCH   9  10
ENDBRANCH   4   9
TORSDOF 4
ENDMDL
MODEL 8
REMARK VINA RESULT:      -5.7      2.103      6.128
REMARK  Name = 
REMARK  6 active torsions:
REMARK  status: ('A' for Active; 'I' for Inactive)
REMARK    1  A    between atoms: C_1  and  O_2
REMARK    2  A    between atoms: O_2  and  C_3
REMARK    3  A    between atoms: C_6  and  C_7
REMARK    4  A    between atoms: C_7  and  C_8
REMARK    5  A    between atoms: C_8  and  N_9
REMARK    6  A    between atoms: C_10  and  C_11
REMARK                            x       y       z     vdW  Elec       q    Type
REMARK                         _______ _______ _______ _____ _____    ______ ____
ROOT
ATOM      1  C   UNL     1       6.032   6.209  16.679  0.00  0.00    +0.000 A 
ATOM      2  C   UNL     1       4.957   6.529  17.506  0.00  0.00    +0.000 A 
ATOM      3  C   UNL     1       3.905   5.628  17.683  0.00  0.00    +0.000 A 
ATOM      4  C   UNL     1       3.878   4.405  16.999  0.00  0.00    +0.000 A 
ATOM      5  C   UNL     1       4.970   4.089  16.174  0.00  0.00    +0.000 A 
ATOM      6  C   UNL     1       6.037   4.986  16.013  0.00  0.00    +0.000 A 
ENDROOT
BRANCH   1   8
ATOM      7  C   UNL     1       7.676   7.500  17.779  0.00  0.00    +0.000 C 
ATOM      8  O   UNL     1       6.987   7.181  16.578  0.00  0.00    +0.000 OA
ENDBRANCH   1   8
BRANCH   4   9
ATOM      9  C   UNL     1       2.748   3.410  17.174  0.00  0.00    +0.000 C 
BRANCH   9  10
ATOM     10  C   UNL     1       3.079   2.237  18.108  0.00  0.00    +0.000 C 
BRANCH  10  11
ATOM     11  N   UNL     1       2.868   2.541  19.510  0.00  0.00    +0.000 N 
ATOM     12  C   UNL     1       1.602   2.601  20.047  0.00  0.00    +0.000 C 
ATOM     13  C   UNL     1       1.567   2.781  21.542  0.00  0.00    +0.000 C 
ATOM     14  O   UNL     1       0.577   2.501  19.383  0.00  0.00    +0.000 OA
ATOM     15  H   UNL     1       3.676   2.625  20.113  0.00  0.00    +0.000 HD
ENDBRANCH  10  11
ENDBRANCH   9  10
ENDBRANCH   4   9
TORSDOF 4
ENDMDL
MODEL 9
REMARK VINA RESULT:      -5.7      2.323      3.049
REMARK  Name = 
REMARK  6 active torsions:
REMARK  status: ('A' for Active; 'I' for Inactive)
REMARK    1  A    between atoms: C_1  and  O_2
REMARK    2  A    between atoms: O_2  and  C_3
REMARK    3  A    between atoms: C_6  and  C_7
REMARK    4  A    between atoms: C_7  and  C_8
REMARK    5  A    between atoms: C_8  and  N_9
REMARK    6  A    between atoms: C_10  and  C_11
REMARK                            x       y       z     vdW  Elec       q    Type
REMARK                         _______ _______ _______ _____ _____    ______ ____
ROOT
ATOM      1  C   UNL     1       2.548   3.955  18.043  0.00  0.00    +0.000 A 
ATOM      2  C   UNL     1       2.751   5.332  17.986  0.00  0.00    +0.000 A 
ATOM      3  C   UNL     1       4.021   5.873  18.201  0.00  0.00    +0.000 A 
ATOM      4  C   UNL     1       5.110   5.053  18.526  0.00  0.00    +0.000 A 
ATOM      5  C   UNL     1       4.896   3.665  18.574  0.00  0.00    +0.000 A 
ATOM      6  C   UNL     1       3.625   3.122  18.337  0.00  0.00    +0.000 A 
ENDROOT
BRANCH   1   8
ATOM      7  C   UNL     1       0.734   2.630  18.774  0.00  0.00    +0.000 C 
ATOM      8  O   UNL     1       1.259   3.556  17.831  0.00  0.00    +0.000 OA
ENDBRANCH   1   8
BRANCH   4   9
ATOM      9  C   UNL     1       6.497   5.614  18.764  0.00  0.00    +0.000 C 
BRANCH   9  10
ATOM     10  C   UNL     1       7.200   6.117  17.495  0.00  0.00    +0.000 C 
BRANCH  10  11
ATOM     11  N   UNL     1       7.210   5.144  16.419  0.00  0.00    +0.000 N 
ATOM     12  C   UNL     1       6.429   5.309  15.298  0.00  0.00    +0.000 C 
ATOM     13  C   UNL     1       6.668   4.289  14.217  0.00  0.00    +0.000 C 
ATOM     14  O   UNL     1       5.614   6.214  15.166  0.00  0.00    +0.000 OA
ATOM     15  H   UNL     1       7.870   4.378  16.467  0.00  0.00    +0.000 HD
ENDBRANCH  10  11
ENDBRANCH   9  10
ENDBRANCH   4   9
TORSDOF 4
ENDMDL
