MODEL 1
REMARK VINA RESULT:      -7.6      0.000      0.000
REMARK  Name = 
REMARK  7 active torsions:
REMARK  status: ('A' for Active; 'I' for Inactive)
REMARK    1  A    between atoms: N_4  and  C_5
REMARK    2  A    between atoms: C_5  and  N_7
REMARK    3  A    between atoms: N_7  and  C_8
REMARK    4  A    between atoms: C_8  and  C_9
REMARK    5  A    between atoms: C_18  and  O_19
REMARK    6  A    between atoms: N_26  and  C_27
REMARK    7  A    between atoms: C_27  and  C_28
REMARK                            x       y       z     vdW  Elec       q    Type
REMARK                         _______ _______ _______ _____ _____    ______ ____
ROOT
ATOM      1  C   UNL     1       0.726   9.657  18.504  0.00  0.00    +0.000 C 
ATOM      2  S   UNL     1      -0.809   9.856  17.838  0.00  0.00    +0.000 S 
ENDROOT
BRANCH   1   6
ATOM      3  O   UNL     1       1.589   7.769  20.853  0.00  0.00    +0.000 OA
ATOM      4  C   UNL     1       1.997   7.234  19.844  0.00  0.00    +0.000 C 
ATOM      5  C   UNL     1       2.332   7.942  18.524  0.00  0.00    +0.000 C 
ATOM      6  N   UNL     1       1.806   8.993  17.964  0.00  0.00    +0.000 NA
ATOM      7  C   UNL     1       3.343   7.075  17.902  0.00  0.00    +0.000 A 
ATOM      8  C   UNL     1       4.193   7.295  16.834  0.00  0.00    +0.000 A 
ATOM      9  C   UNL     1       5.072   6.260  16.491  0.00  0.00    +0.000 A 
ATOM     10  C   UNL     1       5.064   5.041  17.194  0.00  0.00    +0.000 A 
ATOM     11  C   UNL     1       4.179   4.828  18.254  0.00  0.00    +0.000 A 
ATOM     12  C   UNL     1       3.326   5.865  18.603  0.00  0.00    +0.000 A 
ATOM     13  N   UNL     1       2.412   5.921  19.671  0.00  0.00    +0.000 N 
BRANCH  13  14
ATOM     14  C   UNL     1       2.215   4.864  20.646  0.00  0.00    +0.000 C 
BRANCH  14  15
ATOM     15  C   UNL     1       0.931   4.071  20.408  0.00  0.00    +0.000 C 
ATOM     16 BR   UNL     1       1.280   2.613  19.162  0.00  0.00    +0.000 Br
ENDBRANCH  14  15
ENDBRANCH  13  14
ENDBRANCH   1   6
BRANCH   1  17
ATOM     17  N   UNL     1       1.133  10.370  19.610  0.00  0.00    +0.000 N 
ATOM     18  H   UNL     1       1.425   9.784  20.379  0.00  0.00    +0.000 HD
BRANCH  17  19
ATOM     19  C   UNL     1       0.777  11.747  19.952  0.00  0.00    +0.000 C 
BRANCH  19  20
ATOM     20  C   UNL     1      -0.322  11.947  20.976  0.00  0.00    +0.000 A 
ATOM     21  C   UNL     1      -1.425  12.787  20.755  0.00  0.00    +0.000 A 
ATOM     22  C   UNL     1      -2.483  12.887  21.685  0.00  0.00    +0.000 A 
ATOM     23  C   UNL     1      -3.591  13.718  21.450  0.00  0.00    +0.000 A 
ATOM     24  C   UNL     1      -4.630  13.811  22.379  0.00  0.00    +0.000 A 
ATOM     25  C   UNL     1      -4.580  13.071  23.557  0.00  0.00    +0.000 A 
ATOM     26  C   UNL     1      -3.493  12.233  23.803  0.00  0.00    +0.000 A 
ATOM     27  C   UNL     1      -2.439  12.127  22.874  0.00  0.00    +0.000 A 
ATOM     28  C   UNL     1      -1.350  11.276  23.098  0.00  0.00    +0.000 A 
ATOM     29  C   UNL     1      -0.320  11.185  22.155  0.00  0.00    +0.000 A 
BRANCH  29  30
ATOM     30  O   UNL     1       0.718  10.318  22.377  0.00  0.00    +0.000 OA
ATOM     31  H   UNL     1       1.075  10.030  21.517  0.00  0.00    +0.000 HD
ENDBRANCH  29  30
ENDBRANCH  19  20
ENDBRANCH  17  19
ENDBRANCH   1  17
TORSDOF 7
ENDMDL
MODEL 2
REMARK VINA RESULT:      -7.5      3.546      5.442
REMARK  Name = 
REMARK  7 active torsions:
REMARK  status: ('A' for Active; 'I' for Inactive)
REMARK    1  A    between atoms: N_4  and  C_5
REMARK    2  A    between atoms: C_5  and  N_7
REMARK    3  A    between atoms: N_7  and  C_8
REMARK    4  A    between atoms: C_8  and  C_9
REMARK    5  A    between atoms: C_18  and  O_19
REMARK    6  A    between atoms: N_26  and  C_27
REMARK    7  A    between atoms: C_27  and  C_28
REMARK                            x       y       z     vdW  Elec       q    Type
REMARK                         _______ _______ _______ _____ _____    ______ ____
ROOT
ATOM      1  C   UNL     1       2.594   3.526  18.758  0.00  0.00    +0.000 C 
ATOM      2  S   UNL     1       2.483   2.074  19.606  0.00  0.00    +0.000 S 
ENDROOT
BRANCH   1   6
ATOM      3  O   UNL     1       5.069   5.318  19.458  0.00  0.00    +0.000 OA
ATOM      4  C   UNL     1       5.349   4.781  18.407  0.00  0.00    +0.000 C 
ATOM      5  C   UNL     1       4.345   4.257  17.370  0.00  0.00    +0.000 C 
ATOM      6  N   UNL     1       3.157   3.744  17.518  0.00  0.00    +0.000 NA
ATOM      7  C   UNL     1       5.078   4.326  16.098  0.00  0.00    +0.000 A 
ATOM      8  C   UNL     1       4.640   4.220  14.792  0.00  0.00    +0.000 A 
ATOM      9  C   UNL     1       5.600   4.353  13.781  0.00  0.00    +0.000 A 
ATOM     10  C   UNL     1       6.956   4.560  14.094  0.00  0.00    +0.000 A 
ATOM     11  C   UNL     1       7.384   4.638  15.422  0.00  0.00    +0.000 A 
ATOM     12  C   UNL     1       6.425   4.527  16.419  0.00  0.00    +0.000 A 
ATOM     13  N   UNL     1       6.594   4.651  17.809  0.00  0.00    +0.000 N 
BRANCH  13  14
ATOM     14  C   UNL     1       7.853   4.952  18.465  0.00  0.00    +0.000 C 
BRANCH  14  15
ATOM     15  C   UNL     1       7.922   6.387  18.985  0.00  0.00    +0.000 C 
ATOM     16 BR   UNL     1       7.579   7.632  17.524  0.00  0.00    +0.000 Br
ENDBRANCH  14  15
ENDBRANCH  13  14
ENDBRANCH   1   6
BRANCH   1  17
ATOM     17  N   UNL     1       1.896   4.648  19.148  0.00  0.00    +0.000 N 
ATOM     18  H   UNL     1       1.477   5.146  18.377  0.00  0.00    +0.000 HD
BRANCH  17  19
ATOM     19  C   UNL     1       2.070   5.407  20.386  0.00  0.00    +0.000 C 
BRANCH  19  20
ATOM     20  C   UNL     1       1.594   6.846  20.390  0.00  0.00    +0.000 A 
ATOM     21  C   UNL     1       0.841   7.396  21.439  0.00  0.00    +0.000 A 
ATOM     22  C   UNL     1       0.487   8.763  21.465  0.00  0.00    +0.000 A 
ATOM     23  C   UNL     1      -0.254   9.311  22.526  0.00  0.00    +0.000 A 
ATOM     24  C   UNL     1      -0.602  10.663  22.538  0.00  0.00    +0.000 A 
ATOM     25  C   UNL     1      -0.209  11.493  21.491  0.00  0.00    +0.000 A 
ATOM     26  C   UNL     1       0.535  10.970  20.435  0.00  0.00    +0.000 A 
ATOM     27  C   UNL     1       0.894   9.608  20.410  0.00  0.00    +0.000 A 
ATOM     28  C   UNL     1       1.657   9.072  19.364  0.00  0.00    +0.000 A 
ATOM     29  C   UNL     1       2.006   7.717  19.369  0.00  0.00    +0.000 A 
BRANCH  29  30
ATOM     30  O   UNL     1       2.784   7.222  18.355  0.00  0.00    +0.000 OA
ATOM     31  H   UNL     1       2.227   6.675  17.771  0.00  0.00    +0.000 HD
ENDBRANCH  29  30
ENDBRANCH  19  20
ENDBRANCH  17  19
ENDBRANCH   1  17
TORSDOF 7
ENDMDL
MODEL 3
REMARK VINA RESULT:      -7.4      3.379      9.558
REMARK  Name = 
REMARK  7 active torsions:
REMARK  status: ('A' for Active; 'I' for Inactive)
REMARK    1  A    between atoms: N_4  and  C_5
REMARK    2  A    between atoms: C_5  and  N_7
REMARK    3  A    between atoms: N_7  and  C_8
REMARK    4  A    between atoms: C_8  and  C_9
REMARK    5  A    between atoms: C_18  and  O_19
REMARK    6  A    between atoms: N_26  and  C_27
REMARK    7  A    between atoms: C_27  and  C_28
REMARK                            x       y       z     vdW  Elec       q    Type
REMARK                         _______ _______ _______ _____ _____    ______ ____
ROOT
ATOM      1  C   UNL     1       2.048   5.193  20.207  0.00  0.00    +0.000 C 
ATOM      2  S   UNL     1       1.182   3.891  19.579  0.00  0.00    +0.000 S 
ENDROOT
BRANCH   1   6
ATOM      3  O   UNL     1       2.921   7.723  18.573  0.00  0.00    +0.000 OA
ATOM      4  C   UNL     1       1.978   8.084  19.245  0.00  0.00    +0.000 C 
ATOM      5  C   UNL     1       1.526   7.456  20.571  0.00  0.00    +0.000 C 
ATOM      6  N   UNL     1       1.580   6.225  20.992  0.00  0.00    +0.000 NA
ATOM      7  C   UNL     1       0.856   8.557  21.277  0.00  0.00    +0.000 A 
ATOM      8  C   UNL     1       0.455   8.680  22.594  0.00  0.00    +0.000 A 
ATOM      9  C   UNL     1      -0.149   9.886  22.970  0.00  0.00    +0.000 A 
ATOM     10  C   UNL     1      -0.361  10.913  22.031  0.00  0.00    +0.000 A 
ATOM     11  C   UNL     1       0.027  10.759  20.698  0.00  0.00    +0.000 A 
ATOM     12  C   UNL     1       0.646   9.571  20.336  0.00  0.00    +0.000 A 
ATOM     13  N   UNL     1       1.191   9.216  19.089  0.00  0.00    +0.000 N 
BRANCH  13  14
ATOM     14  C   UNL     1       1.220  10.080  17.924  0.00  0.00    +0.000 C 
BRANCH  14  15
ATOM     15  C   UNL     1       2.428  11.016  17.910  0.00  0.00    +0.000 C 
ATOM     16 BR   UNL     1       1.860  12.828  18.352  0.00  0.00    +0.000 Br
ENDBRANCH  14  15
ENDBRANCH  13  14
ENDBRANCH   1   6
BRANCH   1  17
ATOM     17  N   UNL     1       3.424   5.229  20.176  0.00  0.00    +0.000 N 
ATOM     18  H   UNL     1       3.799   6.162  20.084  0.00  0.00    +0.000 HD
BRANCH  17  19
ATOM     19  C   UNL     1       4.327   4.136  19.814  0.00  0.00    +0.000 C 
BRANCH  19  20
ATOM     20  C   UNL     1       5.176   4.320  18.572  0.00  0.00    +0.000 A 
ATOM     21  C   UNL     1       4.744   3.942  17.291  0.00  0.00    +0.000 A 
ATOM     22  C   UNL     1       5.513   4.206  16.137  0.00  0.00    +0.000 A 
ATOM     23  C   UNL     1       5.068   3.838  14.856  0.00  0.00    +0.000 A 
ATOM     24  C   UNL     1       5.840   4.101  13.723  0.00  0.00    +0.000 A 
ATOM     25  C   UNL     1       7.069   4.742  13.850  0.00  0.00    +0.000 A 
ATOM     26  C   UNL     1       7.524   5.124  15.112  0.00  0.00    +0.000 A 
ATOM     27  C   UNL     1       6.755   4.866  16.264  0.00  0.00    +0.000 A 
ATOM     28  C   UNL     1       7.190   5.259  17.536  0.00  0.00    +0.000 A 
ATOM     29  C   UNL     1       6.402   4.997  18.663  0.00  0.00    +0.000 A 
BRANCH  29  30
ATOM     30  O   UNL     1       6.829   5.424  19.893  0.00  0.00    +0.000 OA
ATOM     31  H   UNL     1       6.431   6.295  20.079  0.00  0.00    +0.000 HD
ENDBRANCH  29  30
ENDBRANCH  19  20
ENDBRANCH  17  19
ENDBRANCH   1  17
TORSDOF 7
ENDMDL
MODEL 4
REMARK VINA RESULT:      -7.1      3.489      8.596
REMARK  Name = 
REMARK  7 active torsions:
REMARK  status: ('A' for Active; 'I' for Inactive)
REMARK    1  A    between atoms: N_4  and  C_5
REMARK    2  A    between atoms: C_5  and  N_7
REMARK    3  A    between atoms: N_7  and  C_8
REMARK    4  A    between atoms: C_8  and  C_9
REMARK    5  A    between atoms: C_18  and  O_19
REMARK    6  A    between atoms: N_26  and  C_27
REMARK    7  A    between atoms: C_27  and  C_28
REMARK                            x       y       z     vdW  Elec       q    Type
REMARK                         _______ _______ _______ _____ _____    ______ ____
ROOT
ATOM      1  C   UNL     1       1.226  10.813  18.478  0.00  0.00    +0.000 C 
ATOM      2  S   UNL     1       2.308  12.100  18.369  0.00  0.00    +0.000 S 
ENDROOT
BRANCH   1   6
ATOM      3  O   UNL     1      -0.717  11.089  20.924  0.00  0.00    +0.000 OA
ATOM      4  C   UNL     1      -1.369  11.421  19.956  0.00  0.00    +0.000 C 
ATOM      5  C   UNL     1      -1.119  10.976  18.508  0.00  0.00    +0.000 C 
ATOM      6  N   UNL     1      -0.013  10.691  17.884  0.00  0.00    +0.000 NA
ATOM      7  C   UNL     1      -2.443  11.064  17.875  0.00  0.00    +0.000 A 
ATOM      8  C   UNL     1      -2.905  10.575  16.668  0.00  0.00    +0.000 A 
ATOM      9  C   UNL     1      -4.249  10.810  16.354  0.00  0.00    +0.000 A 
ATOM     10  C   UNL     1      -5.079  11.538  17.226  0.00  0.00    +0.000 A 
ATOM     11  C   UNL     1      -4.587  12.047  18.431  0.00  0.00    +0.000 A 
ATOM     12  C   UNL     1      -3.260  11.792  18.747  0.00  0.00    +0.000 A 
ATOM     13  N   UNL     1      -2.564  12.126  19.922  0.00  0.00    +0.000 N 
BRANCH  13  14
ATOM     14  C   UNL     1      -3.148  12.804  21.064  0.00  0.00    +0.000 C 
BRANCH  14  15
ATOM     15  C   UNL     1      -3.045  14.325  20.966  0.00  0.00    +0.000 C 
ATOM     16 BR   UNL     1      -1.223  14.889  21.369  0.00  0.00    +0.000 Br
ENDBRANCH  14  15
ENDBRANCH  13  14
ENDBRANCH   1   6
BRANCH   1  17
ATOM     17  N   UNL     1       1.594   9.602  19.020  0.00  0.00    +0.000 N 
ATOM     18  H   UNL     1       1.553   9.586  20.029  0.00  0.00    +0.000 HD
BRANCH  17  19
ATOM     19  C   UNL     1       2.421   8.570  18.394  0.00  0.00    +0.000 C 
BRANCH  19  20
ATOM     20  C   UNL     1       2.186   7.136  18.825  0.00  0.00    +0.000 A 
ATOM     21  C   UNL     1       2.286   6.050  17.941  0.00  0.00    +0.000 A 
ATOM     22  C   UNL     1       2.154   4.715  18.383  0.00  0.00    +0.000 A 
ATOM     23  C   UNL     1       2.270   3.632  17.496  0.00  0.00    +0.000 A 
ATOM     24  C   UNL     1       2.134   2.316  17.945  0.00  0.00    +0.000 A 
ATOM     25  C   UNL     1       1.883   2.062  19.291  0.00  0.00    +0.000 A 
ATOM     26  C   UNL     1       1.774   3.123  20.188  0.00  0.00    +0.000 A 
ATOM     27  C   UNL     1       1.911   4.455  19.750  0.00  0.00    +0.000 A 
ATOM     28  C   UNL     1       1.823   5.531  20.642  0.00  0.00    +0.000 A 
ATOM     29  C   UNL     1       1.971   6.845  20.181  0.00  0.00    +0.000 A 
BRANCH  29  30
ATOM     30  O   UNL     1       1.918   7.880  21.077  0.00  0.00    +0.000 OA
ATOM     31  H   UNL     1       0.990   8.166  21.170  0.00  0.00    +0.000 HD
ENDBRANCH  29  30
ENDBRANCH  19  20
ENDBRANCH  17  19
ENDBRANCH   1  17
TORSDOF 7
ENDMDL
MODEL 5
REMARK VINA RESULT:      -7.1      2.990      8.653
REMARK  Name = 
REMARK  7 active torsions:
REMARK  status: ('A' for Active; 'I' for Inactive)
REMARK    1  A    between atoms: N_4  and  C_5
REMARK    2  A    between atoms: C_5  and  N_7
REMARK    3  A    between atoms: N_7  and  C_8
REMARK    4  A    between atoms: C_8  and  C_9
REMARK    5  A    between atoms: C_18  and  O_19
REMARK    6  A    between atoms: N_26  and  C_27
REMARK    7  A    between atoms: C_27  and  C_28
REMARK                            x       y       z     vdW  Elec       q    Type
REMARK                         _______ _______ _______ _____ _____    ______ ____
ROOT
ATOM      1  C   UNL     1       1.116  10.610  18.173  0.00  0.00    +0.000 C 
ATOM      2  S   UNL     1       2.374  11.731  18.191  0.00  0.00    +0.000 S 
ENDROOT
BRANCH   1   6
ATOM      3  O   UNL     1       0.647  10.811  21.266  0.00  0.00    +0.000 OA
ATOM      4  C   UNL     1      -0.259  11.441  20.762  0.00  0.00    +0.000 C 
ATOM      5  C   UNL     1      -0.821  11.234  19.349  0.00  0.00    +0.000 C 
ATOM      6  N   UNL     1      -0.239  10.853  18.248  0.00  0.00    +0.000 NA
ATOM      7  C   UNL     1      -2.211  11.702  19.447  0.00  0.00    +0.000 A 
ATOM      8  C   UNL     1      -3.281  11.550  18.586  0.00  0.00    +0.000 A 
ATOM      9  C   UNL     1      -4.505  12.104  18.981  0.00  0.00    +0.000 A 
ATOM     10  C   UNL     1      -4.622  12.810  20.194  0.00  0.00    +0.000 A 
ATOM     11  C   UNL     1      -3.521  12.975  21.038  0.00  0.00    +0.000 A 
ATOM     12  C   UNL     1      -2.317  12.404  20.652  0.00  0.00    +0.000 A 
ATOM     13  N   UNL     1      -1.103  12.366  21.360  0.00  0.00    +0.000 N 
BRANCH  13  14
ATOM     14  C   UNL     1      -0.901  12.923  22.685  0.00  0.00    +0.000 C 
BRANCH  14  15
ATOM     15  C   UNL     1      -0.646  14.429  22.662  0.00  0.00    +0.000 C 
ATOM     16 BR   UNL     1       1.110  14.787  21.894  0.00  0.00    +0.000 Br
ENDBRANCH  14  15
ENDBRANCH  13  14
ENDBRANCH   1   6
BRANCH   1  17
ATOM     17  N   UNL     1       1.327   9.291  17.839  0.00  0.00    +0.000 N 
ATOM     18  H   UNL     1       0.475   8.789  17.634  0.00  0.00    +0.000 HD
BRANCH  17  19
ATOM     19  C   UNL     1       2.491   8.471  18.176  0.00  0.00    +0.000 C 
BRANCH  19  20
ATOM     20  C   UNL     1       2.227   7.080  18.718  0.00  0.00    +0.000 A 
ATOM     21  C   UNL     1       2.378   5.920  17.943  0.00  0.00    +0.000 A 
ATOM     22  C   UNL     1       2.216   4.630  18.493  0.00  0.00    +0.000 A 
ATOM     23  C   UNL     1       2.384   3.472  17.716  0.00  0.00    +0.000 A 
ATOM     24  C   UNL     1       2.217   2.201  18.271  0.00  0.00    +0.000 A 
ATOM     25  C   UNL     1       1.883   2.067  19.616  0.00  0.00    +0.000 A 
ATOM     26  C   UNL     1       1.722   3.204  20.406  0.00  0.00    +0.000 A 
ATOM     27  C   UNL     1       1.889   4.492  19.860  0.00  0.00    +0.000 A 
ATOM     28  C   UNL     1       1.748   5.643  20.646  0.00  0.00    +0.000 A 
ATOM     29  C   UNL     1       1.928   6.911  20.079  0.00  0.00    +0.000 A 
BRANCH  29  30
ATOM     30  O   UNL     1       1.822   8.021  20.874  0.00  0.00    +0.000 OA
ATOM     31  H   UNL     1       0.901   8.340  20.846  0.00  0.00    +0.000 HD
ENDBRANCH  29  30
ENDBRANCH  19  20
ENDBRANCH  17  19
ENDBRANCH   1  17
TORSDOF 7
ENDMDL
MODEL 6
REMARK VINA RESULT:      -7.1      3.063      8.976
REMARK  Name = 
REMARK  7 active torsions:
REMARK  status: ('A' for Active; 'I' for Inactive)
REMARK    1  A    between atoms: N_4  and  C_5
REMARK    2  A    between atoms: C_5  and  N_7
REMARK    3  A    between atoms: N_7  and  C_8
REMARK    4  A    between atoms: C_8  and  C_9
REMARK    5  A    between atoms: C_18  and  O_19
REMARK    6  A    between atoms: N_26  and  C_27
REMARK    7  A    between atoms: C_27  and  C_28
REMARK                            x       y       z     vdW  Elec       q    Type
REMARK                         _______ _______ _______ _____ _____    ______ ____
ROOT
ATOM      1  C   UNL     1       1.099  11.426  18.617  0.00  0.00    +0.000 C 
ATOM      2  S   UNL     1       2.075  12.769  18.910  0.00  0.00    +0.000 S 
ENDROOT
BRANCH   1   6
ATOM      3  O   UNL     1      -0.113  11.396  21.508  0.00  0.00    +0.000 OA
ATOM      4  C   UNL     1      -0.982  11.862  20.801  0.00  0.00    +0.000 C 
ATOM      5  C   UNL     1      -1.144  11.613  19.294  0.00  0.00    +0.000 C 
ATOM      6  N   UNL     1      -0.257  11.401  18.365  0.00  0.00    +0.000 NA
ATOM      7  C   UNL     1      -2.582  11.800  19.056  0.00  0.00    +0.000 A 
ATOM      8  C   UNL     1      -3.369  11.483  17.965  0.00  0.00    +0.000 A 
ATOM      9  C   UNL     1      -4.736  11.774  18.055  0.00  0.00    +0.000 A 
ATOM     10  C   UNL     1      -5.271  12.389  19.202  0.00  0.00    +0.000 A 
ATOM     11  C   UNL     1      -4.454  12.725  20.285  0.00  0.00    +0.000 A 
ATOM     12  C   UNL     1      -3.105  12.414  20.199  0.00  0.00    +0.000 A 
ATOM     13  N   UNL     1      -2.108  12.579  21.177  0.00  0.00    +0.000 N 
BRANCH  13  14
ATOM     14  C   UNL     1      -2.337  13.105  22.510  0.00  0.00    +0.000 C 
BRANCH  14  15
ATOM     15  C   UNL     1      -2.805  12.037  23.496  0.00  0.00    +0.000 C 
ATOM     16 BR   UNL     1      -4.411  12.650  24.416  0.00  0.00    +0.000 Br
ENDBRANCH  14  15
ENDBRANCH  13  14
ENDBRANCH   1   6
BRANCH   1  17
ATOM     17  N   UNL     1       1.634  10.183  18.367  0.00  0.00    +0.000 N 
ATOM     18  H   UNL     1       1.877  10.038  17.398  0.00  0.00    +0.000 HD
BRANCH  17  19
ATOM     19  C   UNL     1       1.471   8.974  19.175  0.00  0.00    +0.000 C 
BRANCH  19  20
ATOM     20  C   UNL     1       2.344   7.784  18.829  0.00  0.00    +0.000 A 
ATOM     21  C   UNL     1       3.150   7.740  17.680  0.00  0.00    +0.000 A 
ATOM     22  C   UNL     1       4.024   6.661  17.425  0.00  0.00    +0.000 A 
ATOM     23  C   UNL     1       4.839   6.630  16.281  0.00  0.00    +0.000 A 
ATOM     24  C   UNL     1       5.698   5.555  16.038  0.00  0.00    +0.000 A 
ATOM     25  C   UNL     1       5.759   4.495  16.938  0.00  0.00    +0.000 A 
ATOM     26  C   UNL     1       4.966   4.513  18.084  0.00  0.00    +0.000 A 
ATOM     27  C   UNL     1       4.096   5.591  18.343  0.00  0.00    +0.000 A 
ATOM     28  C   UNL     1       3.306   5.631  19.499  0.00  0.00    +0.000 A 
ATOM     29  C   UNL     1       2.457   6.719  19.735  0.00  0.00    +0.000 A 
BRANCH  29  30
ATOM     30  O   UNL     1       1.721   6.756  20.891  0.00  0.00    +0.000 OA
ATOM     31  H   UNL     1       1.412   7.669  21.036  0.00  0.00    +0.000 HD
ENDBRANCH  29  30
ENDBRANCH  19  20
ENDBRANCH  17  19
ENDBRANCH   1  17
TORSDOF 7
ENDMDL
MODEL 7
REMARK VINA RESULT:      -7.1      3.466      8.938
REMARK  Name = 
REMARK  7 active torsions:
REMARK  status: ('A' for Active; 'I' for Inactive)
REMARK    1  A    between atoms: N_4  and  C_5
REMARK    2  A    between atoms: C_5  and  N_7
REMARK    3  A    between atoms: N_7  and  C_8
REMARK    4  A    between atoms: C_8  and  C_9
REMARK    5  A    between atoms: C_18  and  O_19
REMARK    6  A    between atoms: N_26  and  C_27
REMARK    7  A    between atoms: C_27  and  C_28
REMARK                            x       y       z     vdW  Elec       q    Type
REMARK                         _______ _______ _______ _____ _____    ______ ____
ROOT
ATOM      1  C   UNL     1       1.270  10.149  18.362  0.00  0.00    +0.000 C 
ATOM      2  S   UNL     1       2.209  11.537  18.539  0.00  0.00    +0.000 S 
ENDROOT
BRANCH   1   6
ATOM      3  O   UNL     1      -0.504  11.157  20.742  0.00  0.00    +0.000 OA
ATOM      4  C   UNL     1      -1.167  11.347  19.744  0.00  0.00    +0.000 C 
ATOM      5  C   UNL     1      -1.039  10.580  18.420  0.00  0.00    +0.000 C 
ATOM      6  N   UNL     1      -0.003  10.045  17.842  0.00  0.00    +0.000 NA
ATOM      7  C   UNL     1      -2.378  10.680  17.821  0.00  0.00    +0.000 A 
ATOM      8  C   UNL     1      -2.950  10.001  16.761  0.00  0.00    +0.000 A 
ATOM      9  C   UNL     1      -4.276  10.315  16.441  0.00  0.00    +0.000 A 
ATOM     10  C   UNL     1      -4.980  11.302  17.158  0.00  0.00    +0.000 A 
ATOM     11  C   UNL     1      -4.375  11.995  18.209  0.00  0.00    +0.000 A 
ATOM     12  C   UNL     1      -3.068  11.664  18.536  0.00  0.00    +0.000 A 
ATOM     13  N   UNL     1      -2.281  12.159  19.591  0.00  0.00    +0.000 N 
BRANCH  13  14
ATOM     14  C   UNL     1      -2.731  13.127  20.575  0.00  0.00    +0.000 C 
BRANCH  14  15
ATOM     15  C   UNL     1      -3.762  12.551  21.543  0.00  0.00    +0.000 C 
ATOM     16 BR   UNL     1      -2.964  12.349  23.310  0.00  0.00    +0.000 Br
ENDBRANCH  14  15
ENDBRANCH  13  14
ENDBRANCH   1   6
BRANCH   1  17
ATOM     17  N   UNL     1       1.803   8.889  18.522  0.00  0.00    +0.000 N 
ATOM     18  H   UNL     1       1.571   8.466  19.409  0.00  0.00    +0.000 HD
BRANCH  17  19
ATOM     19  C   UNL     1       2.960   8.326  17.825  0.00  0.00    +0.000 C 
BRANCH  19  20
ATOM     20  C   UNL     1       3.152   6.824  17.901  0.00  0.00    +0.000 A 
ATOM     21  C   UNL     1       2.134   5.945  18.302  0.00  0.00    +0.000 A 
ATOM     22  C   UNL     1       2.306   4.544  18.277  0.00  0.00    +0.000 A 
ATOM     23  C   UNL     1       1.277   3.670  18.665  0.00  0.00    +0.000 A 
ATOM     24  C   UNL     1       1.462   2.285  18.640  0.00  0.00    +0.000 A 
ATOM     25  C   UNL     1       2.678   1.752  18.222  0.00  0.00    +0.000 A 
ATOM     26  C   UNL     1       3.707   2.603  17.824  0.00  0.00    +0.000 A 
ATOM     27  C   UNL     1       3.535   4.002  17.843  0.00  0.00    +0.000 A 
ATOM     28  C   UNL     1       4.554   4.869  17.428  0.00  0.00    +0.000 A 
ATOM     29  C   UNL     1       4.353   6.255  17.449  0.00  0.00    +0.000 A 
BRANCH  29  30
ATOM     30  O   UNL     1       5.349   7.083  17.005  0.00  0.00    +0.000 OA
ATOM     31  H   UNL     1       6.077   7.073  17.653  0.00  0.00    +0.000 HD
ENDBRANCH  29  30
ENDBRANCH  19  20
ENDBRANCH  17  19
ENDBRANCH   1  17
TORSDOF 7
ENDMDL
MODEL 8
REMARK VINA RESULT:      -7.0      2.846      4.272
REMARK  Name = 
REMARK  7 active torsions:
REMARK  status: ('A' for Active; 'I' for Inactive)
REMARK    1  A    between atoms: N_4  and  C_5
REMARK    2  A    between atoms: C_5  and  N_7
REMARK    3  A    between atoms: N_7  and  C_8
REMARK    4  A    between atoms: C_8  and  C_9
REMARK    5  A    between atoms: C_18  and  O_19
REMARK    6  A    between atoms: N_26  and  C_27
REMARK    7  A    between atoms: C_27  and  C_28
REMARK                            x       y       z     vdW  Elec       q    Type
REMARK                         _______ _______ _______ _____ _____    ______ ____
ROOT
ATOM      1  C   UNL     1       1.338   8.340  20.951  0.00  0.00    +0.000 C 
ATOM      2  S   UNL     1       1.459   9.239  22.371  0.00  0.00    +0.000 S 
ENDROOT
BRANCH   1   6
ATOM      3  O   UNL     1       3.213   7.709  18.519  0.00  0.00    +0.000 OA
ATOM      4  C   UNL     1       3.140   6.673  19.146  0.00  0.00    +0.000 C 
ATOM      5  C   UNL     1       1.985   6.260  20.068  0.00  0.00    +0.000 C 
ATOM      6  N   UNL     1       1.198   6.975  20.820  0.00  0.00    +0.000 NA
ATOM      7  C   UNL     1       2.018   4.791  20.044  0.00  0.00    +0.000 A 
ATOM      8  C   UNL     1       1.097   3.856  20.477  0.00  0.00    +0.000 A 
ATOM      9  C   UNL     1       1.419   2.506  20.291  0.00  0.00    +0.000 A 
ATOM     10  C   UNL     1       2.644   2.127  19.711  0.00  0.00    +0.000 A 
ATOM     11  C   UNL     1       3.574   3.087  19.304  0.00  0.00    +0.000 A 
ATOM     12  C   UNL     1       3.239   4.424  19.470  0.00  0.00    +0.000 A 
ATOM     13  N   UNL     1       3.965   5.560  19.071  0.00  0.00    +0.000 N 
BRANCH  13  14
ATOM     14  C   UNL     1       5.233   5.526  18.365  0.00  0.00    +0.000 C 
BRANCH  14  15
ATOM     15  C   UNL     1       5.077   5.717  16.858  0.00  0.00    +0.000 C 
ATOM     16 BR   UNL     1       5.307   4.006  15.951  0.00  0.00    +0.000 Br
ENDBRANCH  14  15
ENDBRANCH  13  14
ENDBRANCH   1   6
BRANCH   1  17
ATOM     17  N   UNL     1       1.133   8.941  19.729  0.00  0.00    +0.000 N 
ATOM     18  H   UNL     1       1.465   8.390  18.951  0.00  0.00    +0.000 HD
BRANCH  17  19
ATOM     19  C   UNL     1       0.940  10.368  19.469  0.00  0.00    +0.000 C 
BRANCH  19  20
ATOM     20  C   UNL     1      -0.436  10.810  19.013  0.00  0.00    +0.000 A 
ATOM     21  C   UNL     1      -0.982  10.441  17.774  0.00  0.00    +0.000 A 
ATOM     22  C   UNL     1      -2.301  10.788  17.408  0.00  0.00    +0.000 A 
ATOM     23  C   UNL     1      -2.847  10.401  16.172  0.00  0.00    +0.000 A 
ATOM     24  C   UNL     1      -4.152  10.754  15.820  0.00  0.00    +0.000 A 
ATOM     25  C   UNL     1      -4.934  11.497  16.700  0.00  0.00    +0.000 A 
ATOM     26  C   UNL     1      -4.414  11.881  17.935  0.00  0.00    +0.000 A 
ATOM     27  C   UNL     1      -3.100  11.530  18.304  0.00  0.00    +0.000 A 
ATOM     28  C   UNL     1      -2.569  11.894  19.548  0.00  0.00    +0.000 A 
ATOM     29  C   UNL     1      -1.263  11.525  19.893  0.00  0.00    +0.000 A 
BRANCH  29  30
ATOM     30  O   UNL     1      -0.776  11.859  21.130  0.00  0.00    +0.000 OA
ATOM     31  H   UNL     1       0.197  11.889  21.086  0.00  0.00    +0.000 HD
ENDBRANCH  29  30
ENDBRANCH  19  20
ENDBRANCH  17  19
ENDBRANCH   1  17
TORSDOF 7
ENDMDL
MODEL 9
REMARK VINA RESULT:      -7.0      2.885      8.856
REMARK  Name = 
REMARK  7 active torsions:
REMARK  status: ('A' for Active; 'I' for Inactive)
REMARK    1  A    between atoms: N_4  and  C_5
REMARK    2  A    between atoms: C_5  and  N_7
REMARK    3  A    between atoms: N_7  and  C_8
REMARK    4  A    between atoms: C_8  and  C_9
REMARK    5  A    between atoms: C_18  and  O_19
REMARK    6  A    between atoms: N_26  and  C_27
REMARK    7  A    between atoms: C_27  and  C_28
REMARK                            x       y       z     vdW  Elec       q    Type
REMARK                         _______ _______ _______ _____ _____    ______ ____
ROOT
ATOM      1  C   UNL     1       1.005  11.033  19.832  0.00  0.00    +0.000 C 
ATOM      2  S   UNL     1       1.836  11.889  18.642  0.00  0.00    +0.000 S 
ENDROOT
BRANCH   1   6
ATOM      3  O   UNL     1      -1.280  12.403  18.180  0.00  0.00    +0.000 OA
ATOM      4  C   UNL     1      -1.773  12.146  19.258  0.00  0.00    +0.000 C 
ATOM      5  C   UNL     1      -1.010  11.985  20.580  0.00  0.00    +0.000 C 
ATOM      6  N   UNL     1       0.187  11.534  20.823  0.00  0.00    +0.000 NA
ATOM      7  C   UNL     1      -1.999  12.339  21.608  0.00  0.00    +0.000 A 
ATOM      8  C   UNL     1      -1.850  12.613  22.954  0.00  0.00    +0.000 A 
ATOM      9  C   UNL     1      -3.005  12.944  23.672  0.00  0.00    +0.000 A 
ATOM     10  C   UNL     1      -4.266  12.968  23.045  0.00  0.00    +0.000 A 
ATOM     11  C   UNL     1      -4.399  12.662  21.689  0.00  0.00    +0.000 A 
ATOM     12  C   UNL     1      -3.248  12.356  20.977  0.00  0.00    +0.000 A 
ATOM     13  N   UNL     1      -3.117  12.095  19.602  0.00  0.00    +0.000 N 
BRANCH  13  14
ATOM     14  C   UNL     1      -4.209  12.124  18.646  0.00  0.00    +0.000 C 
BRANCH  14  15
ATOM     15  C   UNL     1      -4.409  10.788  17.934  0.00  0.00    +0.000 C 
ATOM     16 BR   UNL     1      -3.721  10.904  16.114  0.00  0.00    +0.000 Br
ENDBRANCH  14  15
ENDBRANCH  13  14
ENDBRANCH   1   6
BRANCH   1  17
ATOM     17  N   UNL     1       0.883   9.663  19.786  0.00  0.00    +0.000 N 
ATOM     18  H   UNL     1       0.001   9.352  19.405  0.00  0.00    +0.000 HD
BRANCH  17  19
ATOM     19  C   UNL     1       1.615   8.684  20.590  0.00  0.00    +0.000 C 
BRANCH  19  20
ATOM     20  C   UNL     1       1.907   7.341  19.952  0.00  0.00    +0.000 A 
ATOM     21  C   UNL     1       1.536   6.122  20.540  0.00  0.00    +0.000 A 
ATOM     22  C   UNL     1       1.736   4.887  19.885  0.00  0.00    +0.000 A 
ATOM     23  C   UNL     1       1.348   3.671  20.473  0.00  0.00    +0.000 A 
ATOM     24  C   UNL     1       1.555   2.456  19.817  0.00  0.00    +0.000 A 
ATOM     25  C   UNL     1       2.151   2.436  18.558  0.00  0.00    +0.000 A 
ATOM     26  C   UNL     1       2.533   3.633  17.954  0.00  0.00    +0.000 A 
ATOM     27  C   UNL     1       2.329   4.866  18.604  0.00  0.00    +0.000 A 
ATOM     28  C   UNL     1       2.692   6.078  18.002  0.00  0.00    +0.000 A 
ATOM     29  C   UNL     1       2.470   7.290  18.667  0.00  0.00    +0.000 A 
BRANCH  29  30
ATOM     30  O   UNL     1       2.798   8.466  18.044  0.00  0.00    +0.000 OA
ATOM     31  H   UNL     1       3.062   9.116  18.721  0.00  0.00    +0.000 HD
ENDBRANCH  29  30
ENDBRANCH  19  20
ENDBRANCH  17  19
ENDBRANCH   1  17
TORSDOF 7
ENDMDL
