MODEL 1
REMARK VINA RESULT:      -9.1      0.000      0.000
REMARK  Name = 
REMARK  6 active torsions:
REMARK  status: ('A' for Active; 'I' for Inactive)
REMARK    1  A    between atoms: C_2  and  C_3
REMARK    2  A    between atoms: C_6  and  C_7
REMARK    3  A    between atoms: C_7  and  C_8
REMARK    4  A    between atoms: C_7  and  N_14
REMARK    5  A    between atoms: C_17  and  N_18
REMARK    6  A    between atoms: C_19  and  C_21
REMARK                            x       y       z     vdW  Elec       q    Type
REMARK                         _______ _______ _______ _____ _____    ______ ____
ROOT
ATOM      1  N   UNL     1       5.198   5.911  18.770  0.00  0.00    +0.000 NA
ATOM      2  C   UNL     1       6.008   4.698  18.621  0.00  0.00    +0.000 C 
ATOM      3  C   UNL     1       7.405   4.949  18.059  0.00  0.00    +0.000 C 
ATOM      4  C   UNL     1       7.340   5.716  16.741  0.00  0.00    +0.000 C 
ATOM      5  C   UNL     1       6.590   7.024  16.984  0.00  0.00    +0.000 C 
ATOM      6  C   UNL     1       5.203   6.792  17.592  0.00  0.00    +0.000 C 
ENDROOT
BRANCH   4   7
ATOM      7  N   UNL     1       6.725   4.918  15.676  0.00  0.00    +0.000 N 
ATOM      8  C   UNL     1       7.170   4.965  14.373  0.00  0.00    +0.000 C 
ATOM      9  O   UNL     1       8.129   5.637  14.013  0.00  0.00    +0.000 OA
ATOM     10  H   UNL     1       5.928   4.344  15.906  0.00  0.00    +0.000 HD
BRANCH   8  11
ATOM     11  C   UNL     1       6.446   4.114  13.383  0.00  0.00    +0.000 A 
ATOM     12  C   UNL     1       5.048   4.120  13.250  0.00  0.00    +0.000 A 
ATOM     13  C   UNL     1       4.430   3.308  12.292  0.00  0.00    +0.000 A 
ATOM     14  C   UNL     1       5.203   2.496  11.462  0.00  0.00    +0.000 A 
ATOM     15  C   UNL     1       6.587   2.502  11.594  0.00  0.00    +0.000 A 
ATOM     16  F   UNL     1       7.326   1.724  10.792  0.00  0.00    +0.000 F 
ATOM     17  C   UNL     1       7.214   3.302  12.540  0.00  0.00    +0.000 A 
ENDBRANCH   8  11
ENDBRANCH   4   7
BRANCH   1  18
ATOM     18  C   UNL     1       3.816   5.681  19.304  0.00  0.00    +0.000 C 
BRANCH  18  22
ATOM     19  C   UNL     1       1.225   9.177  18.859  0.00  0.00    +0.000 A 
ATOM     20  C   UNL     1       1.980   8.710  17.777  0.00  0.00    +0.000 A 
ATOM     21  C   UNL     1       2.783   7.570  17.914  0.00  0.00    +0.000 A 
ATOM     22  C   UNL     1       2.860   6.886  19.140  0.00  0.00    +0.000 A 
ATOM     23  C   UNL     1       2.115   7.392  20.224  0.00  0.00    +0.000 A 
ATOM     24  C   UNL     1       1.293   8.513  20.083  0.00  0.00    +0.000 A 
BRANCH  19  26
ATOM     25  N   UNL     1      -0.271  11.280  18.591  0.00  0.00    +0.000 NA
ATOM     26  C   UNL     1       0.399  10.338  18.717  0.00  0.00    +0.000 C 
ENDBRANCH  19  26
ENDBRANCH  18  22
BRANCH  18  27
ATOM     27  C   UNL     1       3.185   4.362  18.842  0.00  0.00    +0.000 A 
ATOM     28  C   UNL     1       2.954   4.078  17.485  0.00  0.00    +0.000 A 
ATOM     29  C   UNL     1       2.420   2.852  17.098  0.00  0.00    +0.000 A 
ATOM     30  C   UNL     1       2.087   1.948  18.088  0.00  0.00    +0.000 A 
ATOM     31  N   UNL     1       2.220   2.199  19.404  0.00  0.00    +0.000 NA
ATOM     32  C   UNL     1       2.746   3.400  19.750  0.00  0.00    +0.000 A 
ENDBRANCH  18  27
ENDBRANCH   1  18
TORSDOF 6
ENDMDL
MODEL 2
REMARK VINA RESULT:      -8.7      4.025      8.319
REMARK  Name = 
REMARK  6 active torsions:
REMARK  status: ('A' for Active; 'I' for Inactive)
REMARK    1  A    between atoms: C_2  and  C_3
REMARK    2  A    between atoms: C_6  and  C_7
REMARK    3  A    between atoms: C_7  and  C_8
REMARK    4  A    between atoms: C_7  and  N_14
REMARK    5  A    between atoms: C_17  and  N_18
REMARK    6  A    between atoms: C_19  and  C_21
REMARK                            x       y       z     vdW  Elec       q    Type
REMARK                         _______ _______ _______ _____ _____    ______ ____
ROOT
ATOM      1  N   UNL     1       2.143   7.327  19.482  0.00  0.00    +0.000 NA
ATOM      2  C   UNL     1       2.220   8.478  18.577  0.00  0.00    +0.000 C 
ATOM      3  C   UNL     1       2.174   9.829  19.285  0.00  0.00    +0.000 C 
ATOM      4  C   UNL     1       0.949   9.939  20.187  0.00  0.00    +0.000 C 
ATOM      5  C   UNL     1       0.984   8.784  21.186  0.00  0.00    +0.000 C 
ATOM      6  C   UNL     1       1.077   7.420  20.491  0.00  0.00    +0.000 C 
ENDROOT
BRANCH   4   7
ATOM      7  N   UNL     1      -0.296   9.961  19.414  0.00  0.00    +0.000 N 
ATOM      8  C   UNL     1      -0.828  11.127  18.908  0.00  0.00    +0.000 C 
ATOM      9  O   UNL     1      -0.287  12.220  19.029  0.00  0.00    +0.000 OA
ATOM     10  H   UNL     1      -0.794   9.093  19.281  0.00  0.00    +0.000 HD
BRANCH   8  11
ATOM     11  C   UNL     1      -2.109  11.012  18.152  0.00  0.00    +0.000 A 
ATOM     12  C   UNL     1      -3.294  11.648  18.557  0.00  0.00    +0.000 A 
ATOM     13  C   UNL     1      -4.460  11.513  17.795  0.00  0.00    +0.000 A 
ATOM     14  C   UNL     1      -4.446  10.750  16.628  0.00  0.00    +0.000 A 
ATOM     15  C   UNL     1      -3.267  10.130  16.228  0.00  0.00    +0.000 A 
ATOM     16  F   UNL     1      -3.256   9.402  15.104  0.00  0.00    +0.000 F 
ATOM     17  C   UNL     1      -2.102  10.256  16.974  0.00  0.00    +0.000 A 
ENDBRANCH   8  11
ENDBRANCH   4   7
BRANCH   1  18
ATOM     18  C   UNL     1       2.168   5.991  18.802  0.00  0.00    +0.000 C 
BRANCH  18  22
ATOM     19  C   UNL     1       5.560   5.393  16.105  0.00  0.00    +0.000 A 
ATOM     20  C   UNL     1       5.254   6.669  16.590  0.00  0.00    +0.000 A 
ATOM     21  C   UNL     1       4.188   6.852  17.480  0.00  0.00    +0.000 A 
ATOM     22  C   UNL     1       3.395   5.765  17.888  0.00  0.00    +0.000 A 
ATOM     23  C   UNL     1       3.702   4.493  17.363  0.00  0.00    +0.000 A 
ATOM     24  C   UNL     1       4.782   4.304  16.497  0.00  0.00    +0.000 A 
BRANCH  19  26
ATOM     25  N   UNL     1       7.536   5.058  14.458  0.00  0.00    +0.000 NA
ATOM     26  C   UNL     1       6.653   5.205  15.201  0.00  0.00    +0.000 C 
ENDBRANCH  19  26
ENDBRANCH  18  22
BRANCH  18  27
ATOM     27  C   UNL     1       1.910   4.811  19.747  0.00  0.00    +0.000 A 
ATOM     28  C   UNL     1       1.010   3.780  19.426  0.00  0.00    +0.000 A 
ATOM     29  C   UNL     1       0.833   2.700  20.287  0.00  0.00    +0.000 A 
ATOM     30  C   UNL     1       1.533   2.698  21.477  0.00  0.00    +0.000 A 
ATOM     31  N   UNL     1       2.351   3.695  21.865  0.00  0.00    +0.000 NA
ATOM     32  C   UNL     1       2.506   4.731  21.004  0.00  0.00    +0.000 A 
ENDBRANCH  18  27
ENDBRANCH   1  18
TORSDOF 6
ENDMDL
MODEL 3
REMARK VINA RESULT:      -8.5      4.520      8.587
REMARK  Name = 
REMARK  6 active torsions:
REMARK  status: ('A' for Active; 'I' for Inactive)
REMARK    1  A    between atoms: C_2  and  C_3
REMARK    2  A    between atoms: C_6  and  C_7
REMARK    3  A    between atoms: C_7  and  C_8
REMARK    4  A    between atoms: C_7  and  N_14
REMARK    5  A    between atoms: C_17  and  N_18
REMARK    6  A    between atoms: C_19  and  C_21
REMARK                            x       y       z     vdW  Elec       q    Type
REMARK                         _______ _______ _______ _____ _____    ______ ____
ROOT
ATOM      1  N   UNL     1       2.153   7.282  19.466  0.00  0.00    +0.000 NA
ATOM      2  C   UNL     1       2.232   8.434  18.562  0.00  0.00    +0.000 C 
ATOM      3  C   UNL     1       2.184   9.785  19.271  0.00  0.00    +0.000 C 
ATOM      4  C   UNL     1       0.957   9.893  20.171  0.00  0.00    +0.000 C 
ATOM      5  C   UNL     1       0.991   8.737  21.169  0.00  0.00    +0.000 C 
ATOM      6  C   UNL     1       1.086   7.374  20.474  0.00  0.00    +0.000 C 
ENDROOT
BRANCH   4   7
ATOM      7  N   UNL     1      -0.287   9.915  19.396  0.00  0.00    +0.000 N 
ATOM      8  C   UNL     1      -0.731  11.048  18.749  0.00  0.00    +0.000 C 
ATOM      9  O   UNL     1      -0.107  12.103  18.737  0.00  0.00    +0.000 OA
ATOM     10  H   UNL     1      -0.850   9.078  19.367  0.00  0.00    +0.000 HD
BRANCH   8  11
ATOM     11  C   UNL     1      -2.020  10.940  18.007  0.00  0.00    +0.000 A 
ATOM     12  C   UNL     1      -2.177  10.142  16.862  0.00  0.00    +0.000 A 
ATOM     13  C   UNL     1      -3.417  10.071  16.218  0.00  0.00    +0.000 A 
ATOM     14  C   UNL     1      -4.503  10.790  16.717  0.00  0.00    +0.000 A 
ATOM     15  C   UNL     1      -4.344  11.572  17.855  0.00  0.00    +0.000 A 
ATOM     16  F   UNL     1      -5.390  12.257  18.334  0.00  0.00    +0.000 F 
ATOM     17  C   UNL     1      -3.118  11.651  18.504  0.00  0.00    +0.000 A 
ENDBRANCH   8  11
ENDBRANCH   4   7
BRANCH   1  18
ATOM     18  C   UNL     1       2.180   5.947  18.786  0.00  0.00    +0.000 C 
BRANCH  18  22
ATOM     19  C   UNL     1       5.561   5.361  16.072  0.00  0.00    +0.000 A 
ATOM     20  C   UNL     1       5.252   6.637  16.558  0.00  0.00    +0.000 A 
ATOM     21  C   UNL     1       4.189   6.816  17.453  0.00  0.00    +0.000 A 
ATOM     22  C   UNL     1       3.404   5.725  17.865  0.00  0.00    +0.000 A 
ATOM     23  C   UNL     1       3.714   4.454  17.340  0.00  0.00    +0.000 A 
ATOM     24  C   UNL     1       4.791   4.270  16.469  0.00  0.00    +0.000 A 
BRANCH  19  26
ATOM     25  N   UNL     1       7.544   5.036  14.430  0.00  0.00    +0.000 NA
ATOM     26  C   UNL     1       6.652   5.179  15.163  0.00  0.00    +0.000 C 
ENDBRANCH  19  26
ENDBRANCH  18  22
BRANCH  18  27
ATOM     27  C   UNL     1       1.931   4.765  19.730  0.00  0.00    +0.000 A 
ATOM     28  C   UNL     1       1.053   3.718  19.401  0.00  0.00    +0.000 A 
ATOM     29  C   UNL     1       0.884   2.638  20.263  0.00  0.00    +0.000 A 
ATOM     30  C   UNL     1       1.568   2.651  21.463  0.00  0.00    +0.000 A 
ATOM     31  N   UNL     1       2.363   3.663  21.857  0.00  0.00    +0.000 NA
ATOM     32  C   UNL     1       2.512   4.699  20.995  0.00  0.00    +0.000 A 
ENDBRANCH  18  27
ENDBRANCH   1  18
TORSDOF 6
ENDMDL
MODEL 4
REMARK VINA RESULT:      -8.1      6.519     12.072
REMARK  Name = 
REMARK  6 active torsions:
REMARK  status: ('A' for Active; 'I' for Inactive)
REMARK    1  A    between atoms: C_2  and  C_3
REMARK    2  A    between atoms: C_6  and  C_7
REMARK    3  A    between atoms: C_7  and  C_8
REMARK    4  A    between atoms: C_7  and  N_14
REMARK    5  A    between atoms: C_17  and  N_18
REMARK    6  A    between atoms: C_19  and  C_21
REMARK                            x       y       z     vdW  Elec       q    Type
REMARK                         _______ _______ _______ _____ _____    ______ ____
ROOT
ATOM      1  N   UNL     1      -0.025  11.508  20.727  0.00  0.00    +0.000 NA
ATOM      2  C   UNL     1      -0.264  12.947  20.876  0.00  0.00    +0.000 C 
ATOM      3  C   UNL     1      -0.411  13.404  22.325  0.00  0.00    +0.000 C 
ATOM      4  C   UNL     1      -1.489  12.604  23.050  0.00  0.00    +0.000 C 
ATOM      5  C   UNL     1      -1.125  11.123  22.965  0.00  0.00    +0.000 C 
ATOM      6  C   UNL     1      -0.928  10.658  21.518  0.00  0.00    +0.000 C 
ENDROOT
BRANCH   4   7
ATOM      7  N   UNL     1      -2.824  12.876  22.510  0.00  0.00    +0.000 N 
ATOM      8  C   UNL     1      -3.974  12.583  23.211  0.00  0.00    +0.000 C 
ATOM      9  O   UNL     1      -3.971  12.116  24.344  0.00  0.00    +0.000 OA
ATOM     10  H   UNL     1      -2.897  13.258  21.579  0.00  0.00    +0.000 HD
BRANCH   8  11
ATOM     11  C   UNL     1      -5.270  12.895  22.541  0.00  0.00    +0.000 A 
ATOM     12  C   UNL     1      -6.404  13.340  23.241  0.00  0.00    +0.000 A 
ATOM     13  C   UNL     1      -7.587  13.631  22.553  0.00  0.00    +0.000 A 
ATOM     14  C   UNL     1      -7.641  13.484  21.167  0.00  0.00    +0.000 A 
ATOM     15  C   UNL     1      -6.513  13.051  20.479  0.00  0.00    +0.000 A 
ATOM     16  F   UNL     1      -6.567  12.915  19.147  0.00  0.00    +0.000 F 
ATOM     17  C   UNL     1      -5.332  12.759  21.149  0.00  0.00    +0.000 A 
ENDBRANCH   8  11
ENDBRANCH   4   7
BRANCH   1  18
ATOM     18  C   UNL     1       0.104  11.037  19.309  0.00  0.00    +0.000 C 
BRANCH  18  22
ATOM     19  C   UNL     1       2.572   7.472  18.729  0.00  0.00    +0.000 A 
ATOM     20  C   UNL     1       2.437   8.418  17.706  0.00  0.00    +0.000 A 
ATOM     21  C   UNL     1       1.673   9.575  17.907  0.00  0.00    +0.000 A 
ATOM     22  C   UNL     1       1.014   9.799  19.129  0.00  0.00    +0.000 A 
ATOM     23  C   UNL     1       1.140   8.819  20.134  0.00  0.00    +0.000 A 
ATOM     24  C   UNL     1       1.923   7.678  19.945  0.00  0.00    +0.000 A 
BRANCH  19  26
ATOM     25  N   UNL     1       4.000   5.339  18.350  0.00  0.00    +0.000 NA
ATOM     26  C   UNL     1       3.358   6.293  18.525  0.00  0.00    +0.000 C 
ENDBRANCH  19  26
ENDBRANCH  18  22
BRANCH  18  27
ATOM     27  C   UNL     1      -1.237  10.894  18.579  0.00  0.00    +0.000 A 
ATOM     28  C   UNL     1      -1.480   9.861  17.658  0.00  0.00    +0.000 A 
ATOM     29  C   UNL     1      -2.725   9.735  17.047  0.00  0.00    +0.000 A 
ATOM     30  C   UNL     1      -3.690  10.679  17.339  0.00  0.00    +0.000 A 
ATOM     31  N   UNL     1      -3.484  11.729  18.156  0.00  0.00    +0.000 NA
ATOM     32  C   UNL     1      -2.264  11.822  18.740  0.00  0.00    +0.000 A 
ENDBRANCH  18  27
ENDBRANCH   1  18
TORSDOF 6
ENDMDL
MODEL 5
REMARK VINA RESULT:      -8.1      0.862      1.221
REMARK  Name = 
REMARK  6 active torsions:
REMARK  status: ('A' for Active; 'I' for Inactive)
REMARK    1  A    between atoms: C_2  and  C_3
REMARK    2  A    between atoms: C_6  and  C_7
REMARK    3  A    between atoms: C_7  and  C_8
REMARK    4  A    between atoms: C_7  and  N_14
REMARK    5  A    between atoms: C_17  and  N_18
REMARK    6  A    between atoms: C_19  and  C_21
REMARK                            x       y       z     vdW  Elec       q    Type
REMARK                         _______ _______ _______ _____ _____    ______ ____
ROOT
ATOM      1  N   UNL     1       5.316   5.858  18.633  0.00  0.00    +0.000 NA
ATOM      2  C   UNL     1       6.160   4.667  18.496  0.00  0.00    +0.000 C 
ATOM      3  C   UNL     1       7.555   4.954  17.948  0.00  0.00    +0.000 C 
ATOM      4  C   UNL     1       7.485   5.717  16.629  0.00  0.00    +0.000 C 
ATOM      5  C   UNL     1       6.698   7.005  16.861  0.00  0.00    +0.000 C 
ATOM      6  C   UNL     1       5.310   6.737  17.454  0.00  0.00    +0.000 C 
ENDROOT
BRANCH   4   7
ATOM      7  N   UNL     1       6.903   4.901  15.559  0.00  0.00    +0.000 N 
ATOM      8  C   UNL     1       7.335   4.985  14.253  0.00  0.00    +0.000 C 
ATOM      9  O   UNL     1       8.256   5.709  13.894  0.00  0.00    +0.000 OA
ATOM     10  H   UNL     1       6.138   4.285  15.787  0.00  0.00    +0.000 HD
BRANCH   8  11
ATOM     11  C   UNL     1       6.648   4.110  13.258  0.00  0.00    +0.000 A 
ATOM     12  C   UNL     1       7.344   3.322  12.326  0.00  0.00    +0.000 A 
ATOM     13  C   UNL     1       6.641   2.510  11.428  0.00  0.00    +0.000 A 
ATOM     14  C   UNL     1       5.247   2.479  11.461  0.00  0.00    +0.000 A 
ATOM     15  C   UNL     1       4.566   3.255  12.391  0.00  0.00    +0.000 A 
ATOM     16  F   UNL     1       3.227   3.219  12.422  0.00  0.00    +0.000 F 
ATOM     17  C   UNL     1       5.249   4.065  13.288  0.00  0.00    +0.000 A 
ENDBRANCH   8  11
ENDBRANCH   4   7
BRANCH   1  18
ATOM     18  C   UNL     1       3.935   5.592  19.153  0.00  0.00    +0.000 C 
BRANCH  18  22
ATOM     19  C   UNL     1       1.299   9.066  18.812  0.00  0.00    +0.000 A 
ATOM     20  C   UNL     1       2.057   8.638  17.716  0.00  0.00    +0.000 A 
ATOM     21  C   UNL     1       2.875   7.506  17.819  0.00  0.00    +0.000 A 
ATOM     22  C   UNL     1       2.964   6.789  19.025  0.00  0.00    +0.000 A 
ATOM     23  C   UNL     1       2.215   7.255  20.125  0.00  0.00    +0.000 A 
ATOM     24  C   UNL     1       1.379   8.369  20.016  0.00  0.00    +0.000 A 
BRANCH  19  26
ATOM     25  N   UNL     1      -0.231  11.152  18.622  0.00  0.00    +0.000 NA
ATOM     26  C   UNL     1       0.459  10.220  18.704  0.00  0.00    +0.000 C 
ENDBRANCH  19  26
ENDBRANCH  18  22
BRANCH  18  27
ATOM     27  C   UNL     1       3.324   4.280  18.644  0.00  0.00    +0.000 A 
ATOM     28  C   UNL     1       3.132   4.026  17.275  0.00  0.00    +0.000 A 
ATOM     29  C   UNL     1       2.616   2.806  16.846  0.00  0.00    +0.000 A 
ATOM     30  C   UNL     1       2.259   1.879  17.806  0.00  0.00    +0.000 A 
ATOM     31  N   UNL     1       2.354   2.101  19.130  0.00  0.00    +0.000 NA
ATOM     32  C   UNL     1       2.865   3.296  19.517  0.00  0.00    +0.000 A 
ENDBRANCH  18  27
ENDBRANCH   1  18
TORSDOF 6
ENDMDL
MODEL 6
REMARK VINA RESULT:      -8.0      3.486      5.354
REMARK  Name = 
REMARK  6 active torsions:
REMARK  status: ('A' for Active; 'I' for Inactive)
REMARK    1  A    between atoms: C_2  and  C_3
REMARK    2  A    between atoms: C_6  and  C_7
REMARK    3  A    between atoms: C_7  and  C_8
REMARK    4  A    between atoms: C_7  and  N_14
REMARK    5  A    between atoms: C_17  and  N_18
REMARK    6  A    between atoms: C_19  and  C_21
REMARK                            x       y       z     vdW  Elec       q    Type
REMARK                         _______ _______ _______ _____ _____    ______ ____
ROOT
ATOM      1  N   UNL     1       4.240   5.700  18.458  0.00  0.00    +0.000 NA
ATOM      2  C   UNL     1       4.101   6.556  17.275  0.00  0.00    +0.000 C 
ATOM      3  C   UNL     1       5.054   6.200  16.137  0.00  0.00    +0.000 C 
ATOM      4  C   UNL     1       6.503   6.178  16.616  0.00  0.00    +0.000 C 
ATOM      5  C   UNL     1       6.612   5.182  17.769  0.00  0.00    +0.000 C 
ATOM      6  C   UNL     1       5.628   5.498  18.901  0.00  0.00    +0.000 C 
ENDROOT
BRANCH   4   7
ATOM      7  N   UNL     1       6.971   7.514  16.996  0.00  0.00    +0.000 N 
ATOM      8  C   UNL     1       7.927   7.709  17.969  0.00  0.00    +0.000 C 
ATOM      9  O   UNL     1       8.485   6.790  18.557  0.00  0.00    +0.000 OA
ATOM     10  H   UNL     1       6.549   8.316  16.551  0.00  0.00    +0.000 HD
BRANCH   8  11
ATOM     11  C   UNL     1       8.304   9.121  18.271  0.00  0.00    +0.000 A 
ATOM     12  C   UNL     1       9.161   9.473  19.327  0.00  0.00    +0.000 A 
ATOM     13  C   UNL     1       9.488  10.815  19.550  0.00  0.00    +0.000 A 
ATOM     14  C   UNL     1       8.967  11.807  18.718  0.00  0.00    +0.000 A 
ATOM     15  C   UNL     1       8.126  11.451  17.670  0.00  0.00    +0.000 A 
ATOM     16  F   UNL     1       7.632  12.405  16.871  0.00  0.00    +0.000 F 
ATOM     17  C   UNL     1       7.793  10.123  17.437  0.00  0.00    +0.000 A 
ENDBRANCH   8  11
ENDBRANCH   4   7
BRANCH   1  18
ATOM     18  C   UNL     1       3.324   6.046  19.593  0.00  0.00    +0.000 C 
BRANCH  18  22
ATOM     19  C   UNL     1       0.970   9.669  18.913  0.00  0.00    +0.000 A 
ATOM     20  C   UNL     1       1.685   9.078  17.864  0.00  0.00    +0.000 A 
ATOM     21  C   UNL     1       2.410   7.900  18.078  0.00  0.00    +0.000 A 
ATOM     22  C   UNL     1       2.450   7.299  19.349  0.00  0.00    +0.000 A 
ATOM     23  C   UNL     1       1.747   7.927  20.396  0.00  0.00    +0.000 A 
ATOM     24  C   UNL     1       1.001   9.088  20.179  0.00  0.00    +0.000 A 
BRANCH  19  26
ATOM     25  N   UNL     1      -0.375  11.852  18.514  0.00  0.00    +0.000 NA
ATOM     26  C   UNL     1       0.223  10.871  18.692  0.00  0.00    +0.000 C 
ENDBRANCH  19  26
ENDBRANCH  18  22
BRANCH  18  27
ATOM     27  C   UNL     1       2.514   4.855  20.120  0.00  0.00    +0.000 A 
ATOM     28  C   UNL     1       1.551   4.199  19.334  0.00  0.00    +0.000 A 
ATOM     29  C   UNL     1       0.866   3.094  19.829  0.00  0.00    +0.000 A 
ATOM     30  C   UNL     1       1.128   2.694  21.125  0.00  0.00    +0.000 A 
ATOM     31  N   UNL     1       1.985   3.332  21.944  0.00  0.00    +0.000 NA
ATOM     32  C   UNL     1       2.641   4.402  21.432  0.00  0.00    +0.000 A 
ENDBRANCH  18  27
ENDBRANCH   1  18
TORSDOF 6
ENDMDL
MODEL 7
REMARK VINA RESULT:      -7.9      6.954     12.398
REMARK  Name = 
REMARK  6 active torsions:
REMARK  status: ('A' for Active; 'I' for Inactive)
REMARK    1  A    between atoms: C_2  and  C_3
REMARK    2  A    between atoms: C_6  and  C_7
REMARK    3  A    between atoms: C_7  and  C_8
REMARK    4  A    between atoms: C_7  and  N_14
REMARK    5  A    between atoms: C_17  and  N_18
REMARK    6  A    between atoms: C_19  and  C_21
REMARK                            x       y       z     vdW  Elec       q    Type
REMARK                         _______ _______ _______ _____ _____    ______ ____
ROOT
ATOM      1  N   UNL     1      -0.022  11.494  20.662  0.00  0.00    +0.000 NA
ATOM      2  C   UNL     1      -0.168  12.948  20.793  0.00  0.00    +0.000 C 
ATOM      3  C   UNL     1      -0.250  13.435  22.237  0.00  0.00    +0.000 C 
ATOM      4  C   UNL     1      -1.356  12.714  23.002  0.00  0.00    +0.000 C 
ATOM      5  C   UNL     1      -1.086  11.212  22.932  0.00  0.00    +0.000 C 
ATOM      6  C   UNL     1      -0.955  10.714  21.489  0.00  0.00    +0.000 C 
ENDROOT
BRANCH   4   7
ATOM      7  N   UNL     1      -2.686  13.059  22.491  0.00  0.00    +0.000 N 
ATOM      8  C   UNL     1      -3.843  12.662  23.125  0.00  0.00    +0.000 C 
ATOM      9  O   UNL     1      -3.852  12.032  24.176  0.00  0.00    +0.000 OA
ATOM     10  H   UNL     1      -2.749  13.575  21.626  0.00  0.00    +0.000 HD
BRANCH   8  11
ATOM     11  C   UNL     1      -5.132  13.068  22.491  0.00  0.00    +0.000 A 
ATOM     12  C   UNL     1      -5.573  12.552  21.262  0.00  0.00    +0.000 A 
ATOM     13  C   UNL     1      -6.800  12.962  20.727  0.00  0.00    +0.000 A 
ATOM     14  C   UNL     1      -7.590  13.880  21.418  0.00  0.00    +0.000 A 
ATOM     15  C   UNL     1      -7.150  14.381  22.638  0.00  0.00    +0.000 A 
ATOM     16  F   UNL     1      -7.914  15.260  23.301  0.00  0.00    +0.000 F 
ATOM     17  C   UNL     1      -5.935  13.983  23.181  0.00  0.00    +0.000 A 
ENDBRANCH   8  11
ENDBRANCH   4   7
BRANCH   1  18
ATOM     18  C   UNL     1       0.042  10.995  19.250  0.00  0.00    +0.000 C 
BRANCH  18  22
ATOM     19  C   UNL     1       2.592   7.473  18.780  0.00  0.00    +0.000 A 
ATOM     20  C   UNL     1       1.919   7.708  19.985  0.00  0.00    +0.000 A 
ATOM     21  C   UNL     1       1.077   8.819  20.120  0.00  0.00    +0.000 A 
ATOM     22  C   UNL     1       0.906   9.726  19.060  0.00  0.00    +0.000 A 
ATOM     23  C   UNL     1       1.617   9.486  17.867  0.00  0.00    +0.000 A 
ATOM     24  C   UNL     1       2.436   8.364  17.720  0.00  0.00    +0.000 A 
BRANCH  19  26
ATOM     25  N   UNL     1       4.148   5.410  18.536  0.00  0.00    +0.000 NA
ATOM     26  C   UNL     1       3.448   6.334  18.641  0.00  0.00    +0.000 C 
ENDBRANCH  19  26
ENDBRANCH  18  22
BRANCH  18  27
ATOM     27  C   UNL     1      -1.328  10.883  18.570  0.00  0.00    +0.000 A 
ATOM     28  C   UNL     1      -1.653   9.816  17.714  0.00  0.00    +0.000 A 
ATOM     29  C   UNL     1      -2.922   9.722  17.149  0.00  0.00    +0.000 A 
ATOM     30  C   UNL     1      -3.829  10.728  17.419  0.00  0.00    +0.000 A 
ATOM     31  N   UNL     1      -3.545  11.807  18.171  0.00  0.00    +0.000 NA
ATOM     32  C   UNL     1      -2.303  11.869  18.711  0.00  0.00    +0.000 A 
ENDBRANCH  18  27
ENDBRANCH   1  18
TORSDOF 6
ENDMDL
MODEL 8
REMARK VINA RESULT:      -7.9      1.414      4.262
REMARK  Name = 
REMARK  6 active torsions:
REMARK  status: ('A' for Active; 'I' for Inactive)
REMARK    1  A    between atoms: C_2  and  C_3
REMARK    2  A    between atoms: C_6  and  C_7
REMARK    3  A    between atoms: C_7  and  C_8
REMARK    4  A    between atoms: C_7  and  N_14
REMARK    5  A    between atoms: C_17  and  N_18
REMARK    6  A    between atoms: C_19  and  C_21
REMARK                            x       y       z     vdW  Elec       q    Type
REMARK                         _______ _______ _______ _____ _____    ______ ____
ROOT
ATOM      1  N   UNL     1       4.308   6.239  18.090  0.00  0.00    +0.000 NA
ATOM      2  C   UNL     1       4.937   4.920  18.204  0.00  0.00    +0.000 C 
ATOM      3  C   UNL     1       6.444   4.927  17.959  0.00  0.00    +0.000 C 
ATOM      4  C   UNL     1       6.782   5.568  16.616  0.00  0.00    +0.000 C 
ATOM      5  C   UNL     1       6.205   6.982  16.601  0.00  0.00    +0.000 C 
ATOM      6  C   UNL     1       4.700   6.997  16.892  0.00  0.00    +0.000 C 
ENDROOT
BRANCH   4   7
ATOM      7  N   UNL     1       6.296   4.763  15.491  0.00  0.00    +0.000 N 
ATOM      8  C   UNL     1       6.894   4.799  14.250  0.00  0.00    +0.000 C 
ATOM      9  O   UNL     1       7.891   5.466  14.003  0.00  0.00    +0.000 OA
ATOM     10  H   UNL     1       5.475   4.193  15.627  0.00  0.00    +0.000 HD
BRANCH   8  11
ATOM     11  C   UNL     1       6.291   3.942  13.187  0.00  0.00    +0.000 A 
ATOM     12  C   UNL     1       4.920   3.955  12.883  0.00  0.00    +0.000 A 
ATOM     13  C   UNL     1       4.419   3.137  11.863  0.00  0.00    +0.000 A 
ATOM     14  C   UNL     1       5.282   2.312  11.143  0.00  0.00    +0.000 A 
ATOM     15  C   UNL     1       6.639   2.311  11.444  0.00  0.00    +0.000 A 
ATOM     16  F   UNL     1       7.466   1.520  10.747  0.00  0.00    +0.000 F 
ATOM     17  C   UNL     1       7.151   3.116  12.453  0.00  0.00    +0.000 A 
ENDBRANCH   8  11
ENDBRANCH   4   7
BRANCH   1  18
ATOM     18  C   UNL     1       2.825   6.249  18.310  0.00  0.00    +0.000 C 
BRANCH  18  22
ATOM     19  C   UNL     1       1.536   3.212  21.183  0.00  0.00    +0.000 A 
ATOM     20  C   UNL     1       2.358   4.270  21.588  0.00  0.00    +0.000 A 
ATOM     21  C   UNL     1       2.741   5.259  20.673  0.00  0.00    +0.000 A 
ATOM     22  C   UNL     1       2.325   5.199  19.331  0.00  0.00    +0.000 A 
ATOM     23  C   UNL     1       1.523   4.109  18.939  0.00  0.00    +0.000 A 
ATOM     24  C   UNL     1       1.118   3.136  19.856  0.00  0.00    +0.000 A 
BRANCH  19  26
ATOM     25  N   UNL     1       0.816   1.395  22.889  0.00  0.00    +0.000 NA
ATOM     26  C   UNL     1       1.140   2.205  22.120  0.00  0.00    +0.000 C 
ENDBRANCH  19  26
ENDBRANCH  18  22
BRANCH  18  27
ATOM     27  C   UNL     1       2.246   7.645  18.569  0.00  0.00    +0.000 A 
ATOM     28  C   UNL     1       2.233   8.644  17.580  0.00  0.00    +0.000 A 
ATOM     29  C   UNL     1       1.659   9.886  17.835  0.00  0.00    +0.000 A 
ATOM     30  C   UNL     1       1.147  10.118  19.097  0.00  0.00    +0.000 A 
ATOM     31  N   UNL     1       1.200   9.222  20.100  0.00  0.00    +0.000 NA
ATOM     32  C   UNL     1       1.761   8.020  19.821  0.00  0.00    +0.000 A 
ENDBRANCH  18  27
ENDBRANCH   1  18
TORSDOF 6
ENDMDL
MODEL 9
REMARK VINA RESULT:      -7.9      3.662      5.544
REMARK  Name = 
REMARK  6 active torsions:
REMARK  status: ('A' for Active; 'I' for Inactive)
REMARK    1  A    between atoms: C_2  and  C_3
REMARK    2  A    between atoms: C_6  and  C_7
REMARK    3  A    between atoms: C_7  and  C_8
REMARK    4  A    between atoms: C_7  and  N_14
REMARK    5  A    between atoms: C_17  and  N_18
REMARK    6  A    between atoms: C_19  and  C_21
REMARK                            x       y       z     vdW  Elec       q    Type
REMARK                         _______ _______ _______ _____ _____    ______ ____
ROOT
ATOM      1  N   UNL     1       4.326   5.671  18.468  0.00  0.00    +0.000 NA
ATOM      2  C   UNL     1       4.187   6.498  17.265  0.00  0.00    +0.000 C 
ATOM      3  C   UNL     1       5.158   6.133  16.145  0.00  0.00    +0.000 C 
ATOM      4  C   UNL     1       6.601   6.144  16.639  0.00  0.00    +0.000 C 
ATOM      5  C   UNL     1       6.713   5.176  17.816  0.00  0.00    +0.000 C 
ATOM      6  C   UNL     1       5.712   5.501  18.930  0.00  0.00    +0.000 C 
ENDROOT
BRANCH   4   7
ATOM      7  N   UNL     1       7.045   7.495  16.995  0.00  0.00    +0.000 N 
ATOM      8  C   UNL     1       7.968   7.728  17.991  0.00  0.00    +0.000 C 
ATOM      9  O   UNL     1       8.515   6.832  18.623  0.00  0.00    +0.000 OA
ATOM     10  H   UNL     1       6.630   8.279  16.513  0.00  0.00    +0.000 HD
BRANCH   8  11
ATOM     11  C   UNL     1       8.322   9.152  18.263  0.00  0.00    +0.000 A 
ATOM     12  C   UNL     1       7.905  10.212  17.441  0.00  0.00    +0.000 A 
ATOM     13  C   UNL     1       8.258  11.529  17.759  0.00  0.00    +0.000 A 
ATOM     14  C   UNL     1       9.022  11.790  18.896  0.00  0.00    +0.000 A 
ATOM     15  C   UNL     1       9.424  10.737  19.709  0.00  0.00    +0.000 A 
ATOM     16  F   UNL     1      10.154  10.993  20.803  0.00  0.00    +0.000 F 
ATOM     17  C   UNL     1       9.081   9.426  19.407  0.00  0.00    +0.000 A 
ENDBRANCH   8  11
ENDBRANCH   4   7
BRANCH   1  18
ATOM     18  C   UNL     1       3.393   6.028  19.585  0.00  0.00    +0.000 C 
BRANCH  18  22
ATOM     19  C   UNL     1       0.886   9.538  18.858  0.00  0.00    +0.000 A 
ATOM     20  C   UNL     1       1.006   9.005  20.146  0.00  0.00    +0.000 A 
ATOM     21  C   UNL     1       1.836   7.902  20.382  0.00  0.00    +0.000 A 
ATOM     22  C   UNL     1       2.547   7.298  19.329  0.00  0.00    +0.000 A 
ATOM     23  C   UNL     1       2.388   7.833  18.035  0.00  0.00    +0.000 A 
ATOM     24  C   UNL     1       1.581   8.950  17.803  0.00  0.00    +0.000 A 
BRANCH  19  26
ATOM     25  N   UNL     1      -0.641  11.588  18.415  0.00  0.00    +0.000 NA
ATOM     26  C   UNL     1       0.042  10.670  18.619  0.00  0.00    +0.000 C 
ENDBRANCH  19  26
ENDBRANCH  18  22
BRANCH  18  27
ATOM     27  C   UNL     1       2.549   4.850  20.088  0.00  0.00    +0.000 A 
ATOM     28  C   UNL     1       1.569   4.237  19.288  0.00  0.00    +0.000 A 
ATOM     29  C   UNL     1       0.853   3.141  19.760  0.00  0.00    +0.000 A 
ATOM     30  C   UNL     1       1.103   2.707  21.047  0.00  0.00    +0.000 A 
ATOM     31  N   UNL     1       1.977   3.304  21.879  0.00  0.00    +0.000 NA
ATOM     32  C   UNL     1       2.663   4.366  21.390  0.00  0.00    +0.000 A 
ENDBRANCH  18  27
ENDBRANCH   1  18
TORSDOF 6
ENDMDL
