MODEL 1
REMARK VINA RESULT:      -8.7      0.000      0.000
REMARK  Name = 
REMARK  9 active torsions:
REMARK  status: ('A' for Active; 'I' for Inactive)
REMARK    1  A    between atoms: C_1  and  N_2
REMARK    2  A    between atoms: C_3  and  C_4
REMARK    3  A    between atoms: N_6  and  C_7
REMARK    4  A    between atoms: C_12  and  C_13
REMARK    5  A    between atoms: C_13  and  O_14
REMARK    6  A    between atoms: O_14  and  C_15
REMARK    7  A    between atoms: C_18  and  O_19
REMARK    8  A    between atoms: O_19  and  C_20
REMARK    9  A    between atoms: C_20  and  C_21
REMARK                            x       y       z     vdW  Elec       q    Type
REMARK                         _______ _______ _______ _____ _____    ______ ____
ROOT
ATOM      1  C   UNL     1       3.466   3.786  19.357  0.00  0.00    +0.000 A 
ATOM      2  C   UNL     1       3.637   2.650  20.162  0.00  0.00    +0.000 A 
ATOM      3  C   UNL     1       2.924   2.471  21.344  0.00  0.00    +0.000 A 
ATOM      4  C   UNL     1       2.043   3.450  21.771  0.00  0.00    +0.000 A 
ATOM      5  C   UNL     1       1.885   4.610  21.013  0.00  0.00    +0.000 A 
ATOM      6  C   UNL     1       2.593   4.812  19.801  0.00  0.00    +0.000 A 
ENDROOT
BRANCH   1   9
ATOM      7  C   UNL     1       5.535   4.131  17.952  0.00  0.00    +0.000 C 
ATOM      8  O   UNL     1       6.339   4.195  18.870  0.00  0.00    +0.000 OA
ATOM      9  N   UNL     1       4.164   3.897  18.125  0.00  0.00    +0.000 N 
ATOM     10  H   UNL     1       3.594   3.736  17.303  0.00  0.00    +0.000 HD
BRANCH   7  13
ATOM     11  C   UNL     1       7.463   6.374  16.687  0.00  0.00    +0.000 C 
ATOM     12  N   UNL     1       6.802   5.258  16.047  0.00  0.00    +0.000 N 
ATOM     13  C   UNL     1       5.973   4.263  16.558  0.00  0.00    +0.000 A 
ATOM     14  C   UNL     1       5.644   3.422  15.497  0.00  0.00    +0.000 A 
ATOM     15  C   UNL     1       6.305   3.914  14.349  0.00  0.00    +0.000 A 
ATOM     16  S   UNL     1       6.500   3.512  12.679  0.00  0.00    +0.000 S 
ATOM     17  C   UNL     1       7.483   4.905  12.464  0.00  0.00    +0.000 A 
ATOM     18  C   UNL     1       7.667   5.650  13.609  0.00  0.00    +0.000 A 
ATOM     19  C   UNL     1       6.982   5.038  14.696  0.00  0.00    +0.000 A 
ENDBRANCH   7  13
ENDBRANCH   1   9
BRANCH   6  20
ATOM     20  C   UNL     1       2.219   6.061  19.010  0.00  0.00    +0.000 C 
BRANCH  20  21
ATOM     21  O   UNL     1       2.655   7.264  19.642  0.00  0.00    +0.000 OA
BRANCH  21  22
ATOM     22  C   UNL     1       1.727   8.276  19.728  0.00  0.00    +0.000 A 
ATOM     23  C   UNL     1       1.676   9.130  18.627  0.00  0.00    +0.000 A 
ATOM     24  C   UNL     1       0.742  10.170  18.568  0.00  0.00    +0.000 A 
ATOM     25  C   UNL     1      -0.179  10.350  19.603  0.00  0.00    +0.000 A 
ATOM     26  C   UNL     1      -0.114   9.512  20.725  0.00  0.00    +0.000 A 
ATOM     27  C   UNL     1       0.840   8.483  20.789  0.00  0.00    +0.000 A 
BRANCH  25  28
ATOM     28  O   UNL     1      -1.067  11.378  19.448  0.00  0.00    +0.000 OA
BRANCH  28  29
ATOM     29  C   UNL     1      -1.686  11.446  18.158  0.00  0.00    +0.000 C 
BRANCH  29  30
ATOM     30  C   UNL     1      -2.697  10.298  17.982  0.00  0.00    +0.000 C 
ATOM     31  C   UNL     1      -2.372   9.485  16.717  0.00  0.00    +0.000 C 
ATOM     32  C   UNL     1      -2.754  10.231  15.437  0.00  0.00    +0.000 C 
ATOM     33  N   UNL     1      -4.157  10.643  15.445  0.00  0.00    +0.000 NA
ATOM     34  C   UNL     1      -4.463  11.491  16.602  0.00  0.00    +0.000 C 
ATOM     35  C   UNL     1      -4.154  10.778  17.917  0.00  0.00    +0.000 C 
ATOM     36  H   UNL     1      -4.746   9.811  15.484  0.00  0.00    +0.000 HD
ENDBRANCH  29  30
ENDBRANCH  28  29
ENDBRANCH  25  28
ENDBRANCH  21  22
ENDBRANCH  20  21
ENDBRANCH   6  20
TORSDOF 8
ENDMDL
MODEL 2
REMARK VINA RESULT:      -8.6      4.924     11.838
REMARK  Name = 
REMARK  9 active torsions:
REMARK  status: ('A' for Active; 'I' for Inactive)
REMARK    1  A    between atoms: C_1  and  N_2
REMARK    2  A    between atoms: C_3  and  C_4
REMARK    3  A    between atoms: N_6  and  C_7
REMARK    4  A    between atoms: C_12  and  C_13
REMARK    5  A    between atoms: C_13  and  O_14
REMARK    6  A    between atoms: O_14  and  C_15
REMARK    7  A    between atoms: C_18  and  O_19
REMARK    8  A    between atoms: O_19  and  C_20
REMARK    9  A    between atoms: C_20  and  C_21
REMARK                            x       y       z     vdW  Elec       q    Type
REMARK                         _______ _______ _______ _____ _____    ______ ____
ROOT
ATOM      1  C   UNL     1      -3.595  11.527  17.749  0.00  0.00    +0.000 A 
ATOM      2  C   UNL     1      -4.327  11.451  16.555  0.00  0.00    +0.000 A 
ATOM      3  C   UNL     1      -3.922  10.649  15.491  0.00  0.00    +0.000 A 
ATOM      4  C   UNL     1      -2.744   9.927  15.585  0.00  0.00    +0.000 A 
ATOM      5  C   UNL     1      -1.974  10.016  16.744  0.00  0.00    +0.000 A 
ATOM      6  C   UNL     1      -2.370  10.818  17.844  0.00  0.00    +0.000 A 
ENDROOT
BRANCH   1   9
ATOM      7  C   UNL     1      -5.261  12.092  19.559  0.00  0.00    +0.000 C 
ATOM      8  O   UNL     1      -6.003  11.135  19.394  0.00  0.00    +0.000 OA
ATOM      9  N   UNL     1      -4.081  12.305  18.833  0.00  0.00    +0.000 N 
ATOM     10  H   UNL     1      -3.465  13.056  19.121  0.00  0.00    +0.000 HD
BRANCH   7  13
ATOM     11  C   UNL     1      -3.683  12.608  22.315  0.00  0.00    +0.000 C 
ATOM     12  N   UNL     1      -4.844  13.282  21.776  0.00  0.00    +0.000 N 
ATOM     13  C   UNL     1      -5.547  13.098  20.589  0.00  0.00    +0.000 A 
ATOM     14  C   UNL     1      -6.565  14.049  20.565  0.00  0.00    +0.000 A 
ATOM     15  C   UNL     1      -6.449  14.820  21.744  0.00  0.00    +0.000 A 
ATOM     16  S   UNL     1      -7.213  16.171  22.505  0.00  0.00    +0.000 S 
ATOM     17  C   UNL     1      -6.131  16.030  23.832  0.00  0.00    +0.000 A 
ATOM     18  C   UNL     1      -5.217  15.004  23.710  0.00  0.00    +0.000 A 
ATOM     19  C   UNL     1      -5.416  14.327  22.475  0.00  0.00    +0.000 A 
ENDBRANCH   7  13
ENDBRANCH   1   9
BRANCH   6  20
ATOM     20  C   UNL     1      -1.502  10.713  19.094  0.00  0.00    +0.000 C 
BRANCH  20  21
ATOM     21  O   UNL     1      -0.108  10.813  18.807  0.00  0.00    +0.000 OA
BRANCH  21  22
ATOM     22  C   UNL     1       0.651   9.701  19.087  0.00  0.00    +0.000 A 
ATOM     23  C   UNL     1       1.366   9.183  18.007  0.00  0.00    +0.000 A 
ATOM     24  C   UNL     1       2.214   8.083  18.170  0.00  0.00    +0.000 A 
ATOM     25  C   UNL     1       2.385   7.504  19.429  0.00  0.00    +0.000 A 
ATOM     26  C   UNL     1       1.649   8.003  20.513  0.00  0.00    +0.000 A 
ATOM     27  C   UNL     1       0.781   9.094  20.340  0.00  0.00    +0.000 A 
BRANCH  25  28
ATOM     28  O   UNL     1       3.251   6.449  19.496  0.00  0.00    +0.000 OA
BRANCH  28  29
ATOM     29  C   UNL     1       3.012   5.415  18.533  0.00  0.00    +0.000 C 
BRANCH  29  30
ATOM     30  C   UNL     1       1.863   4.500  18.995  0.00  0.00    +0.000 C 
ATOM     31  C   UNL     1       2.281   3.701  20.241  0.00  0.00    +0.000 C 
ATOM     32  C   UNL     1       3.257   2.572  19.903  0.00  0.00    +0.000 C 
ATOM     33  N   UNL     1       2.727   1.685  18.869  0.00  0.00    +0.000 NA
ATOM     34  C   UNL     1       2.402   2.420  17.642  0.00  0.00    +0.000 C 
ATOM     35  C   UNL     1       1.385   3.529  17.905  0.00  0.00    +0.000 C 
ATOM     36  H   UNL     1       1.877   1.241  19.218  0.00  0.00    +0.000 HD
ENDBRANCH  29  30
ENDBRANCH  28  29
ENDBRANCH  25  28
ENDBRANCH  21  22
ENDBRANCH  20  21
ENDBRANCH   6  20
TORSDOF 8
ENDMDL
MODEL 3
REMARK VINA RESULT:      -8.5      0.980      1.308
REMARK  Name = 
REMARK  9 active torsions:
REMARK  status: ('A' for Active; 'I' for Inactive)
REMARK    1  A    between atoms: C_1  and  N_2
REMARK    2  A    between atoms: C_3  and  C_4
REMARK    3  A    between atoms: N_6  and  C_7
REMARK    4  A    between atoms: C_12  and  C_13
REMARK    5  A    between atoms: C_13  and  O_14
REMARK    6  A    between atoms: O_14  and  C_15
REMARK    7  A    between atoms: C_18  and  O_19
REMARK    8  A    between atoms: O_19  and  C_20
REMARK    9  A    between atoms: C_20  and  C_21
REMARK                            x       y       z     vdW  Elec       q    Type
REMARK                         _______ _______ _______ _____ _____    ______ ____
ROOT
ATOM      1  C   UNL     1       2.656   3.687  18.481  0.00  0.00    +0.000 A 
ATOM      2  C   UNL     1       1.889   2.520  18.611  0.00  0.00    +0.000 A 
ATOM      3  C   UNL     1       0.958   2.361  19.634  0.00  0.00    +0.000 A 
ATOM      4  C   UNL     1       0.799   3.359  20.580  0.00  0.00    +0.000 A 
ATOM      5  C   UNL     1       1.580   4.511  20.501  0.00  0.00    +0.000 A 
ATOM      6  C   UNL     1       2.527   4.701  19.464  0.00  0.00    +0.000 A 
ENDROOT
BRANCH   1   9
ATOM      7  C   UNL     1       4.944   3.909  17.437  0.00  0.00    +0.000 C 
ATOM      8  O   UNL     1       5.598   3.774  18.460  0.00  0.00    +0.000 OA
ATOM      9  N   UNL     1       3.545   3.835  17.383  0.00  0.00    +0.000 N 
ATOM     10  H   UNL     1       3.096   3.835  16.475  0.00  0.00    +0.000 HD
BRANCH   7  13
ATOM     11  C   UNL     1       7.221   6.066  16.721  0.00  0.00    +0.000 C 
ATOM     12  N   UNL     1       6.581   5.083  15.873  0.00  0.00    +0.000 N 
ATOM     13  C   UNL     1       5.605   4.129  16.145  0.00  0.00    +0.000 A 
ATOM     14  C   UNL     1       5.381   3.427  14.963  0.00  0.00    +0.000 A 
ATOM     15  C   UNL     1       6.252   3.958  13.985  0.00  0.00    +0.000 A 
ATOM     16  S   UNL     1       6.675   3.698  12.329  0.00  0.00    +0.000 S 
ATOM     17  C   UNL     1       7.789   5.004  12.414  0.00  0.00    +0.000 A 
ATOM     18  C   UNL     1       7.849   5.617  13.647  0.00  0.00    +0.000 A 
ATOM     19  C   UNL     1       6.954   4.975  14.548  0.00  0.00    +0.000 A 
ENDBRANCH   7  13
ENDBRANCH   1   9
BRANCH   6  20
ATOM     20  C   UNL     1       3.210   6.065  19.424  0.00  0.00    +0.000 C 
BRANCH  20  21
ATOM     21  O   UNL     1       2.578   7.022  20.273  0.00  0.00    +0.000 OA
BRANCH  21  22
ATOM     22  C   UNL     1       1.867   8.017  19.644  0.00  0.00    +0.000 A 
ATOM     23  C   UNL     1       1.030   8.763  20.473  0.00  0.00    +0.000 A 
ATOM     24  C   UNL     1       0.289   9.836  19.967  0.00  0.00    +0.000 A 
ATOM     25  C   UNL     1       0.401  10.199  18.622  0.00  0.00    +0.000 A 
ATOM     26  C   UNL     1       1.220   9.435  17.778  0.00  0.00    +0.000 A 
ATOM     27  C   UNL     1       1.945   8.345  18.287  0.00  0.00    +0.000 A 
BRANCH  25  28
ATOM     28  O   UNL     1      -0.343  11.273  18.223  0.00  0.00    +0.000 OA
BRANCH  28  29
ATOM     29  C   UNL     1      -1.742  11.177  18.517  0.00  0.00    +0.000 C 
BRANCH  29  30
ATOM     30  C   UNL     1      -2.385  10.029  17.717  0.00  0.00    +0.000 C 
ATOM     31  C   UNL     1      -2.371  10.350  16.212  0.00  0.00    +0.000 C 
ATOM     32  C   UNL     1      -3.411  11.408  15.837  0.00  0.00    +0.000 C 
ATOM     33  N   UNL     1      -4.753  11.032  16.278  0.00  0.00    +0.000 NA
ATOM     34  C   UNL     1      -4.803  10.804  17.725  0.00  0.00    +0.000 C 
ATOM     35  C   UNL     1      -3.822   9.715  18.156  0.00  0.00    +0.000 C 
ATOM     36  H   UNL     1      -5.028  10.172  15.802  0.00  0.00    +0.000 HD
ENDBRANCH  29  30
ENDBRANCH  28  29
ENDBRANCH  25  28
ENDBRANCH  21  22
ENDBRANCH  20  21
ENDBRANCH   6  20
TORSDOF 8
ENDMDL
MODEL 4
REMARK VINA RESULT:      -8.1      4.894     11.920
REMARK  Name = 
REMARK  9 active torsions:
REMARK  status: ('A' for Active; 'I' for Inactive)
REMARK    1  A    between atoms: C_1  and  N_2
REMARK    2  A    between atoms: C_3  and  C_4
REMARK    3  A    between atoms: N_6  and  C_7
REMARK    4  A    between atoms: C_12  and  C_13
REMARK    5  A    between atoms: C_13  and  O_14
REMARK    6  A    between atoms: O_14  and  C_15
REMARK    7  A    between atoms: C_18  and  O_19
REMARK    8  A    between atoms: O_19  and  C_20
REMARK    9  A    between atoms: C_20  and  C_21
REMARK                            x       y       z     vdW  Elec       q    Type
REMARK                         _______ _______ _______ _____ _____    ______ ____
ROOT
ATOM      1  C   UNL     1      -3.561  11.532  17.708  0.00  0.00    +0.000 A 
ATOM      2  C   UNL     1      -4.278  11.452  16.505  0.00  0.00    +0.000 A 
ATOM      3  C   UNL     1      -3.912  10.575  15.487  0.00  0.00    +0.000 A 
ATOM      4  C   UNL     1      -2.789   9.779  15.636  0.00  0.00    +0.000 A 
ATOM      5  C   UNL     1      -2.033   9.869  16.804  0.00  0.00    +0.000 A 
ATOM      6  C   UNL     1      -2.390  10.747  17.858  0.00  0.00    +0.000 A 
ENDROOT
BRANCH   1   9
ATOM      7  C   UNL     1      -5.175  12.250  19.512  0.00  0.00    +0.000 C 
ATOM      8  O   UNL     1      -5.936  11.297  19.430  0.00  0.00    +0.000 OA
ATOM      9  N   UNL     1      -4.009  12.391  18.746  0.00  0.00    +0.000 N 
ATOM     10  H   UNL     1      -3.375  13.149  18.968  0.00  0.00    +0.000 HD
BRANCH   7  13
ATOM     11  C   UNL     1      -3.807  12.682  22.392  0.00  0.00    +0.000 C 
ATOM     12  N   UNL     1      -4.813  13.475  21.719  0.00  0.00    +0.000 N 
ATOM     13  C   UNL     1      -5.421  13.329  20.476  0.00  0.00    +0.000 A 
ATOM     14  C   UNL     1      -6.298  14.401  20.322  0.00  0.00    +0.000 A 
ATOM     15  C   UNL     1      -6.191  15.202  21.481  0.00  0.00    +0.000 A 
ATOM     16  S   UNL     1      -6.838  16.673  22.119  0.00  0.00    +0.000 S 
ATOM     17  C   UNL     1      -5.913  16.453  23.550  0.00  0.00    +0.000 A 
ATOM     18  C   UNL     1      -5.135  15.315  23.552  0.00  0.00    +0.000 A 
ATOM     19  C   UNL     1      -5.305  14.614  22.326  0.00  0.00    +0.000 A 
ENDBRANCH   7  13
ENDBRANCH   1   9
BRANCH   6  20
ATOM     20  C   UNL     1      -1.551  10.640  19.129  0.00  0.00    +0.000 C 
BRANCH  20  21
ATOM     21  O   UNL     1      -0.176  10.949  18.908  0.00  0.00    +0.000 OA
BRANCH  21  22
ATOM     22  C   UNL     1       0.698   9.887  18.938  0.00  0.00    +0.000 A 
ATOM     23  C   UNL     1       0.782   9.224  20.162  0.00  0.00    +0.000 A 
ATOM     24  C   UNL     1       1.597   8.097  20.313  0.00  0.00    +0.000 A 
ATOM     25  C   UNL     1       2.318   7.597  19.225  0.00  0.00    +0.000 A 
ATOM     26  C   UNL     1       2.258   8.276  18.000  0.00  0.00    +0.000 A 
ATOM     27  C   UNL     1       1.456   9.420  17.860  0.00  0.00    +0.000 A 
BRANCH  25  28
ATOM     28  O   UNL     1       3.069   6.480  19.461  0.00  0.00    +0.000 OA
BRANCH  28  29
ATOM     29  C   UNL     1       3.421   5.735  18.289  0.00  0.00    +0.000 C 
BRANCH  29  30
ATOM     30  C   UNL     1       4.949   5.563  18.197  0.00  0.00    +0.000 C 
ATOM     31  C   UNL     1       5.556   6.635  17.276  0.00  0.00    +0.000 C 
ATOM     32  C   UNL     1       5.274   6.354  15.798  0.00  0.00    +0.000 C 
ATOM     33  N   UNL     1       5.717   5.017  15.404  0.00  0.00    +0.000 NA
ATOM     34  C   UNL     1       5.081   3.977  16.218  0.00  0.00    +0.000 C 
ATOM     35  C   UNL     1       5.373   4.171  17.705  0.00  0.00    +0.000 C 
ATOM     36  H   UNL     1       6.728   4.955  15.525  0.00  0.00    +0.000 HD
ENDBRANCH  29  30
ENDBRANCH  28  29
ENDBRANCH  25  28
ENDBRANCH  21  22
ENDBRANCH  20  21
ENDBRANCH   6  20
TORSDOF 8
ENDMDL
MODEL 5
REMARK VINA RESULT:      -8.1      4.356     10.774
REMARK  Name = 
REMARK  9 active torsions:
REMARK  status: ('A' for Active; 'I' for Inactive)
REMARK    1  A    between atoms: C_1  and  N_2
REMARK    2  A    between atoms: C_3  and  C_4
REMARK    3  A    between atoms: N_6  and  C_7
REMARK    4  A    between atoms: C_12  and  C_13
REMARK    5  A    between atoms: C_13  and  O_14
REMARK    6  A    between atoms: O_14  and  C_15
REMARK    7  A    between atoms: C_18  and  O_19
REMARK    8  A    between atoms: O_19  and  C_20
REMARK    9  A    between atoms: C_20  and  C_21
REMARK                            x       y       z     vdW  Elec       q    Type
REMARK                         _______ _______ _______ _____ _____    ______ ____
ROOT
ATOM      1  C   UNL     1       0.158  13.366  19.647  0.00  0.00    +0.000 A 
ATOM      2  C   UNL     1       0.560  14.446  18.847  0.00  0.00    +0.000 A 
ATOM      3  C   UNL     1       1.904  14.753  18.646  0.00  0.00    +0.000 A 
ATOM      4  C   UNL     1       2.882  14.004  19.277  0.00  0.00    +0.000 A 
ATOM      5  C   UNL     1       2.510  12.951  20.112  0.00  0.00    +0.000 A 
ATOM      6  C   UNL     1       1.150  12.612  20.325  0.00  0.00    +0.000 A 
ENDROOT
BRANCH   1   9
ATOM      7  C   UNL     1      -2.005  12.335  18.850  0.00  0.00    +0.000 C 
ATOM      8  O   UNL     1      -1.568  11.820  17.832  0.00  0.00    +0.000 OA
ATOM      9  N   UNL     1      -1.220  13.047  19.769  0.00  0.00    +0.000 N 
ATOM     10  H   UNL     1      -1.642  13.333  20.644  0.00  0.00    +0.000 HD
BRANCH   7  13
ATOM     11  C   UNL     1      -4.381  11.044  17.107  0.00  0.00    +0.000 C 
ATOM     12  N   UNL     1      -4.424  11.653  18.419  0.00  0.00    +0.000 N 
ATOM     13  C   UNL     1      -3.423  12.211  19.208  0.00  0.00    +0.000 A 
ATOM     14  C   UNL     1      -4.022  12.621  20.398  0.00  0.00    +0.000 A 
ATOM     15  C   UNL     1      -5.391  12.282  20.319  0.00  0.00    +0.000 A 
ATOM     16  S   UNL     1      -6.819  12.370  21.289  0.00  0.00    +0.000 S 
ATOM     17  C   UNL     1      -7.724  11.661  20.012  0.00  0.00    +0.000 A 
ATOM     18  C   UNL     1      -6.981  11.360  18.891  0.00  0.00    +0.000 A 
ATOM     19  C   UNL     1      -5.621  11.718  19.105  0.00  0.00    +0.000 A 
ENDBRANCH   7  13
ENDBRANCH   1   9
BRANCH   6  20
ATOM     20  C   UNL     1       0.896  11.356  21.152  0.00  0.00    +0.000 C 
BRANCH  20  21
ATOM     21  O   UNL     1       0.227  10.335  20.412  0.00  0.00    +0.000 OA
BRANCH  21  22
ATOM     22  C   UNL     1       1.030   9.480  19.694  0.00  0.00    +0.000 A 
ATOM     23  C   UNL     1       1.432   8.331  20.376  0.00  0.00    +0.000 A 
ATOM     24  C   UNL     1       2.210   7.357  19.743  0.00  0.00    +0.000 A 
ATOM     25  C   UNL     1       2.573   7.505  18.402  0.00  0.00    +0.000 A 
ATOM     26  C   UNL     1       2.195   8.671  17.720  0.00  0.00    +0.000 A 
ATOM     27  C   UNL     1       1.433   9.656  18.367  0.00  0.00    +0.000 A 
BRANCH  25  28
ATOM     28  O   UNL     1       3.314   6.492  17.862  0.00  0.00    +0.000 OA
BRANCH  28  29
ATOM     29  C   UNL     1       3.166   5.226  18.515  0.00  0.00    +0.000 C 
BRANCH  29  30
ATOM     30  C   UNL     1       2.511   4.202  17.569  0.00  0.00    +0.000 C 
ATOM     31  C   UNL     1       1.149   3.752  18.125  0.00  0.00    +0.000 C 
ATOM     32  C   UNL     1       1.296   2.799  19.313  0.00  0.00    +0.000 C 
ATOM     33  N   UNL     1       2.132   1.645  18.985  0.00  0.00    +0.000 NA
ATOM     34  C   UNL     1       3.466   2.056  18.533  0.00  0.00    +0.000 C 
ATOM     35  C   UNL     1       3.387   2.968  17.310  0.00  0.00    +0.000 C 
ATOM     36  H   UNL     1       1.684   1.113  18.238  0.00  0.00    +0.000 HD
ENDBRANCH  29  30
ENDBRANCH  28  29
ENDBRANCH  25  28
ENDBRANCH  21  22
ENDBRANCH  20  21
ENDBRANCH   6  20
TORSDOF 8
ENDMDL
MODEL 6
REMARK VINA RESULT:      -8.0      2.290      2.821
REMARK  Name = 
REMARK  9 active torsions:
REMARK  status: ('A' for Active; 'I' for Inactive)
REMARK    1  A    between atoms: C_1  and  N_2
REMARK    2  A    between atoms: C_3  and  C_4
REMARK    3  A    between atoms: N_6  and  C_7
REMARK    4  A    between atoms: C_12  and  C_13
REMARK    5  A    between atoms: C_13  and  O_14
REMARK    6  A    between atoms: O_14  and  C_15
REMARK    7  A    between atoms: C_18  and  O_19
REMARK    8  A    between atoms: O_19  and  C_20
REMARK    9  A    between atoms: C_20  and  C_21
REMARK                            x       y       z     vdW  Elec       q    Type
REMARK                         _______ _______ _______ _____ _____    ______ ____
ROOT
ATOM      1  C   UNL     1       2.851   3.665  18.806  0.00  0.00    +0.000 A 
ATOM      2  C   UNL     1       2.132   2.478  19.013  0.00  0.00    +0.000 A 
ATOM      3  C   UNL     1       1.263   2.323  20.091  0.00  0.00    +0.000 A 
ATOM      4  C   UNL     1       1.122   3.346  21.013  0.00  0.00    +0.000 A 
ATOM      5  C   UNL     1       1.857   4.520  20.855  0.00  0.00    +0.000 A 
ATOM      6  C   UNL     1       2.741   4.706  19.762  0.00  0.00    +0.000 A 
ENDROOT
BRANCH   1   9
ATOM      7  C   UNL     1       5.072   3.910  17.630  0.00  0.00    +0.000 C 
ATOM      8  O   UNL     1       5.784   3.815  18.619  0.00  0.00    +0.000 OA
ATOM      9  N   UNL     1       3.674   3.805  17.657  0.00  0.00    +0.000 N 
ATOM     10  H   UNL     1       3.175   3.773  16.776  0.00  0.00    +0.000 HD
BRANCH   7  13
ATOM     11  C   UNL     1       7.278   6.078  16.745  0.00  0.00    +0.000 C 
ATOM     12  N   UNL     1       6.603   5.073  15.954  0.00  0.00    +0.000 N 
ATOM     13  C   UNL     1       5.655   4.113  16.299  0.00  0.00    +0.000 A 
ATOM     14  C   UNL     1       5.372   3.386  15.144  0.00  0.00    +0.000 A 
ATOM     15  C   UNL     1       6.179   3.909  14.109  0.00  0.00    +0.000 A 
ATOM     16  S   UNL     1       6.509   3.622  12.436  0.00  0.00    +0.000 S 
ATOM     17  C   UNL     1       7.610   4.941  12.433  0.00  0.00    +0.000 A 
ATOM     18  C   UNL     1       7.734   5.578  13.650  0.00  0.00    +0.000 A 
ATOM     19  C   UNL     1       6.900   4.943  14.611  0.00  0.00    +0.000 A 
ENDBRANCH   7  13
ENDBRANCH   1   9
BRANCH   6  20
ATOM     20  C   UNL     1       3.373   6.089  19.643  0.00  0.00    +0.000 C 
BRANCH  20  21
ATOM     21  O   UNL     1       2.866   6.833  18.536  0.00  0.00    +0.000 OA
BRANCH  21  22
ATOM     22  C   UNL     1       2.156   7.970  18.842  0.00  0.00    +0.000 A 
ATOM     23  C   UNL     1       1.967   8.856  17.781  0.00  0.00    +0.000 A 
ATOM     24  C   UNL     1       1.220  10.026  17.948  0.00  0.00    +0.000 A 
ATOM     25  C   UNL     1       0.622  10.312  19.178  0.00  0.00    +0.000 A 
ATOM     26  C   UNL     1       0.831   9.440  20.255  0.00  0.00    +0.000 A 
ATOM     27  C   UNL     1       1.600   8.277  20.088  0.00  0.00    +0.000 A 
BRANCH  25  28
ATOM     28  O   UNL     1      -0.107  11.467  19.240  0.00  0.00    +0.000 OA
BRANCH  28  29
ATOM     29  C   UNL     1      -1.263  11.402  20.084  0.00  0.00    +0.000 C 
BRANCH  29  30
ATOM     30  C   UNL     1      -1.845  12.809  20.313  0.00  0.00    +0.000 C 
ATOM     31  C   UNL     1      -0.786  13.735  20.935  0.00  0.00    +0.000 C 
ATOM     32  C   UNL     1      -0.542  13.422  22.413  0.00  0.00    +0.000 C 
ATOM     33  N   UNL     1      -1.781  13.453  23.188  0.00  0.00    +0.000 NA
ATOM     34  C   UNL     1      -2.773  12.513  22.657  0.00  0.00    +0.000 C 
ATOM     35  C   UNL     1      -3.102  12.809  21.195  0.00  0.00    +0.000 C 
ATOM     36  H   UNL     1      -2.171  14.396  23.150  0.00  0.00    +0.000 HD
ENDBRANCH  29  30
ENDBRANCH  28  29
ENDBRANCH  25  28
ENDBRANCH  21  22
ENDBRANCH  20  21
ENDBRANCH   6  20
TORSDOF 8
ENDMDL
MODEL 7
REMARK VINA RESULT:      -8.0      6.830     10.905
REMARK  Name = 
REMARK  9 active torsions:
REMARK  status: ('A' for Active; 'I' for Inactive)
REMARK    1  A    between atoms: C_1  and  N_2
REMARK    2  A    between atoms: C_3  and  C_4
REMARK    3  A    between atoms: N_6  and  C_7
REMARK    4  A    between atoms: C_12  and  C_13
REMARK    5  A    between atoms: C_13  and  O_14
REMARK    6  A    between atoms: O_14  and  C_15
REMARK    7  A    between atoms: C_18  and  O_19
REMARK    8  A    between atoms: O_19  and  C_20
REMARK    9  A    between atoms: C_20  and  C_21
REMARK                            x       y       z     vdW  Elec       q    Type
REMARK                         _______ _______ _______ _____ _____    ______ ____
ROOT
ATOM      1  C   UNL     1      10.017  12.317  19.916  0.00  0.00    +0.000 A 
ATOM      2  C   UNL     1      10.750  13.462  19.570  0.00  0.00    +0.000 A 
ATOM      3  C   UNL     1      11.398  13.578  18.342  0.00  0.00    +0.000 A 
ATOM      4  C   UNL     1      11.359  12.527  17.442  0.00  0.00    +0.000 A 
ATOM      5  C   UNL     1      10.675  11.360  17.778  0.00  0.00    +0.000 A 
ATOM      6  C   UNL     1       9.999  11.221  19.016  0.00  0.00    +0.000 A 
ENDROOT
BRANCH   1   9
ATOM      7  C   UNL     1       8.310  13.145  21.581  0.00  0.00    +0.000 C 
ATOM      8  O   UNL     1       7.845  14.044  20.896  0.00  0.00    +0.000 OA
ATOM      9  N   UNL     1       9.316  12.268  21.149  0.00  0.00    +0.000 N 
ATOM     10  H   UNL     1       9.552  11.479  21.738  0.00  0.00    +0.000 HD
BRANCH   7  13
ATOM     11  C   UNL     1       8.873  14.850  24.251  0.00  0.00    +0.000 C 
ATOM     12  N   UNL     1       8.082  13.652  24.070  0.00  0.00    +0.000 N 
ATOM     13  C   UNL     1       7.806  12.894  22.936  0.00  0.00    +0.000 A 
ATOM     14  C   UNL     1       6.960  11.860  23.333  0.00  0.00    +0.000 A 
ATOM     15  C   UNL     1       6.716  12.022  24.715  0.00  0.00    +0.000 A 
ATOM     16  S   UNL     1       5.806  11.273  25.980  0.00  0.00    +0.000 S 
ATOM     17  C   UNL     1       6.423  12.423  27.098  0.00  0.00    +0.000 A 
ATOM     18  C   UNL     1       7.283  13.347  26.543  0.00  0.00    +0.000 A 
ATOM     19  C   UNL     1       7.422  13.098  25.149  0.00  0.00    +0.000 A 
ENDBRANCH   7  13
ENDBRANCH   1   9
BRANCH   6  20
ATOM     20  C   UNL     1       9.179   9.946  19.191  0.00  0.00    +0.000 C 
BRANCH  20  21
ATOM     21  O   UNL     1       8.409   9.623  18.033  0.00  0.00    +0.000 OA
BRANCH  21  22
ATOM     22  C   UNL     1       7.905   8.345  17.976  0.00  0.00    +0.000 A 
ATOM     23  C   UNL     1       8.453   7.449  18.894  0.00  0.00    +0.000 A 
ATOM     24  C   UNL     1       7.992   6.131  18.972  0.00  0.00    +0.000 A 
ATOM     25  C   UNL     1       6.949   5.698  18.149  0.00  0.00    +0.000 A 
ATOM     26  C   UNL     1       6.414   6.586  17.206  0.00  0.00    +0.000 A 
ATOM     27  C   UNL     1       6.895   7.902  17.116  0.00  0.00    +0.000 A 
BRANCH  25  28
ATOM     28  O   UNL     1       6.551   4.401  18.312  0.00  0.00    +0.000 OA
BRANCH  28  29
ATOM     29  C   UNL     1       5.292   4.238  18.976  0.00  0.00    +0.000 C 
BRANCH  29  30
ATOM     30  C   UNL     1       4.303   3.471  18.079  0.00  0.00    +0.000 C 
ATOM     31  C   UNL     1       3.366   4.451  17.352  0.00  0.00    +0.000 C 
ATOM     32  C   UNL     1       2.308   5.040  18.287  0.00  0.00    +0.000 C 
ATOM     33  N   UNL     1       1.544   3.998  18.970  0.00  0.00    +0.000 NA
ATOM     34  C   UNL     1       2.417   3.104  19.738  0.00  0.00    +0.000 C 
ATOM     35  C   UNL     1       3.464   2.439  18.846  0.00  0.00    +0.000 C 
ATOM     36  H   UNL     1       1.042   3.446  18.274  0.00  0.00    +0.000 HD
ENDBRANCH  29  30
ENDBRANCH  28  29
ENDBRANCH  25  28
ENDBRANCH  21  22
ENDBRANCH  20  21
ENDBRANCH   6  20
TORSDOF 8
ENDMDL
MODEL 8
REMARK VINA RESULT:      -8.0      2.273      3.035
REMARK  Name = 
REMARK  9 active torsions:
REMARK  status: ('A' for Active; 'I' for Inactive)
REMARK    1  A    between atoms: C_1  and  N_2
REMARK    2  A    between atoms: C_3  and  C_4
REMARK    3  A    between atoms: N_6  and  C_7
REMARK    4  A    between atoms: C_12  and  C_13
REMARK    5  A    between atoms: C_13  and  O_14
REMARK    6  A    between atoms: O_14  and  C_15
REMARK    7  A    between atoms: C_18  and  O_19
REMARK    8  A    between atoms: O_19  and  C_20
REMARK    9  A    between atoms: C_20  and  C_21
REMARK                            x       y       z     vdW  Elec       q    Type
REMARK                         _______ _______ _______ _____ _____    ______ ____
ROOT
ATOM      1  C   UNL     1       2.789   3.672  18.683  0.00  0.00    +0.000 A 
ATOM      2  C   UNL     1       2.212   2.429  18.987  0.00  0.00    +0.000 A 
ATOM      3  C   UNL     1       1.325   2.270  20.049  0.00  0.00    +0.000 A 
ATOM      4  C   UNL     1       1.022   3.351  20.859  0.00  0.00    +0.000 A 
ATOM      5  C   UNL     1       1.614   4.587  20.606  0.00  0.00    +0.000 A 
ATOM      6  C   UNL     1       2.513   4.778  19.526  0.00  0.00    +0.000 A 
ENDROOT
BRANCH   1   9
ATOM      7  C   UNL     1       5.029   3.964  17.554  0.00  0.00    +0.000 C 
ATOM      8  O   UNL     1       5.718   3.933  18.562  0.00  0.00    +0.000 OA
ATOM      9  N   UNL     1       3.635   3.804  17.550  0.00  0.00    +0.000 N 
ATOM     10  H   UNL     1       3.162   3.720  16.659  0.00  0.00    +0.000 HD
BRANCH   7  13
ATOM     11  C   UNL     1       7.289   6.082  16.685  0.00  0.00    +0.000 C 
ATOM     12  N   UNL     1       6.609   5.081  15.893  0.00  0.00    +0.000 N 
ATOM     13  C   UNL     1       5.637   4.143  16.231  0.00  0.00    +0.000 A 
ATOM     14  C   UNL     1       5.361   3.409  15.079  0.00  0.00    +0.000 A 
ATOM     15  C   UNL     1       6.195   3.906  14.052  0.00  0.00    +0.000 A 
ATOM     16  S   UNL     1       6.548   3.595  12.389  0.00  0.00    +0.000 S 
ATOM     17  C   UNL     1       7.673   4.895  12.391  0.00  0.00    +0.000 A 
ATOM     18  C   UNL     1       7.788   5.541  13.603  0.00  0.00    +0.000 A 
ATOM     19  C   UNL     1       6.926   4.932  14.557  0.00  0.00    +0.000 A 
ENDBRANCH   7  13
ENDBRANCH   1   9
BRANCH   6  20
ATOM     20  C   UNL     1       2.975   6.211  19.287  0.00  0.00    +0.000 C 
BRANCH  20  21
ATOM     21  O   UNL     1       2.441   7.129  20.240  0.00  0.00    +0.000 OA
BRANCH  21  22
ATOM     22  C   UNL     1       1.719   8.183  19.731  0.00  0.00    +0.000 A 
ATOM     23  C   UNL     1       0.925   8.860  20.657  0.00  0.00    +0.000 A 
ATOM     24  C   UNL     1       0.179   9.981  20.277  0.00  0.00    +0.000 A 
ATOM     25  C   UNL     1       0.242  10.460  18.966  0.00  0.00    +0.000 A 
ATOM     26  C   UNL     1       1.017   9.766  18.025  0.00  0.00    +0.000 A 
ATOM     27  C   UNL     1       1.746   8.629  18.406  0.00  0.00    +0.000 A 
BRANCH  25  28
ATOM     28  O   UNL     1      -0.503  11.573  18.694  0.00  0.00    +0.000 OA
BRANCH  28  29
ATOM     29  C   UNL     1      -1.350  12.004  19.766  0.00  0.00    +0.000 C 
BRANCH  29  30
ATOM     30  C   UNL     1      -1.216  13.523  19.983  0.00  0.00    +0.000 C 
ATOM     31  C   UNL     1       0.245  13.965  19.795  0.00  0.00    +0.000 C 
ATOM     32  C   UNL     1       1.128  13.557  20.976  0.00  0.00    +0.000 C 
ATOM     33  N   UNL     1       0.596  14.043  22.248  0.00  0.00    +0.000 NA
ATOM     34  C   UNL     1      -0.768  13.559  22.482  0.00  0.00    +0.000 C 
ATOM     35  C   UNL     1      -1.714  13.984  21.361  0.00  0.00    +0.000 C 
ATOM     36  H   UNL     1       0.583  15.063  22.234  0.00  0.00    +0.000 HD
ENDBRANCH  29  30
ENDBRANCH  28  29
ENDBRANCH  25  28
ENDBRANCH  21  22
ENDBRANCH  20  21
ENDBRANCH   6  20
TORSDOF 8
ENDMDL
MODEL 9
REMARK VINA RESULT:      -8.0      5.453     11.800
REMARK  Name = 
REMARK  9 active torsions:
REMARK  status: ('A' for Active; 'I' for Inactive)
REMARK    1  A    between atoms: C_1  and  N_2
REMARK    2  A    between atoms: C_3  and  C_4
REMARK    3  A    between atoms: N_6  and  C_7
REMARK    4  A    between atoms: C_12  and  C_13
REMARK    5  A    between atoms: C_13  and  O_14
REMARK    6  A    between atoms: O_14  and  C_15
REMARK    7  A    between atoms: C_18  and  O_19
REMARK    8  A    between atoms: O_19  and  C_20
REMARK    9  A    between atoms: C_20  and  C_21
REMARK                            x       y       z     vdW  Elec       q    Type
REMARK                         _______ _______ _______ _____ _____    ______ ____
ROOT
ATOM      1  C   UNL     1      -3.266  12.141  19.215  0.00  0.00    +0.000 A 
ATOM      2  C   UNL     1      -4.393  11.935  18.405  0.00  0.00    +0.000 A 
ATOM      3  C   UNL     1      -4.423  10.948  17.423  0.00  0.00    +0.000 A 
ATOM      4  C   UNL     1      -3.304  10.163  17.203  0.00  0.00    +0.000 A 
ATOM      5  C   UNL     1      -2.155  10.374  17.964  0.00  0.00    +0.000 A 
ATOM      6  C   UNL     1      -2.102  11.366  18.975  0.00  0.00    +0.000 A 
ENDROOT
BRANCH   1   9
ATOM      7  C   UNL     1      -4.112  13.094  21.395  0.00  0.00    +0.000 C 
ATOM      8  O   UNL     1      -4.855  12.171  21.692  0.00  0.00    +0.000 OA
ATOM      9  N   UNL     1      -3.303  13.113  20.250  0.00  0.00    +0.000 N 
ATOM     10  H   UNL     1      -2.628  13.862  20.148  0.00  0.00    +0.000 HD
BRANCH   7  13
ATOM     11  C   UNL     1      -1.646  13.892  23.300  0.00  0.00    +0.000 C 
ATOM     12  N   UNL     1      -2.903  14.574  23.084  0.00  0.00    +0.000 N 
ATOM     13  C   UNL     1      -3.986  14.270  22.264  0.00  0.00    +0.000 A 
ATOM     14  C   UNL     1      -4.920  15.292  22.425  0.00  0.00    +0.000 A 
ATOM     15  C   UNL     1      -4.371  16.224  23.334  0.00  0.00    +0.000 A 
ATOM     16  S   UNL     1      -4.779  17.739  24.060  0.00  0.00    +0.000 S 
ATOM     17  C   UNL     1      -3.300  17.711  24.936  0.00  0.00    +0.000 A 
ATOM     18  C   UNL     1      -2.518  16.603  24.691  0.00  0.00    +0.000 A 
ATOM     19  C   UNL     1      -3.161  15.762  23.741  0.00  0.00    +0.000 A 
ENDBRANCH   7  13
ENDBRANCH   1   9
BRANCH   6  20
ATOM     20  C   UNL     1      -0.831  11.393  19.819  0.00  0.00    +0.000 C 
BRANCH  20  21
ATOM     21  O   UNL     1       0.350  11.204  19.041  0.00  0.00    +0.000 OA
BRANCH  21  22
ATOM     22  C   UNL     1       0.931   9.959  19.111  0.00  0.00    +0.000 A 
ATOM     23  C   UNL     1       1.491   9.498  17.920  0.00  0.00    +0.000 A 
ATOM     24  C   UNL     1       2.155   8.268  17.869  0.00  0.00    +0.000 A 
ATOM     25  C   UNL     1       2.297   7.494  19.023  0.00  0.00    +0.000 A 
ATOM     26  C   UNL     1       1.712   7.940  20.217  0.00  0.00    +0.000 A 
ATOM     27  C   UNL     1       1.026   9.165  20.258  0.00  0.00    +0.000 A 
BRANCH  25  28
ATOM     28  O   UNL     1       2.980   6.319  18.881  0.00  0.00    +0.000 OA
BRANCH  28  29
ATOM     29  C   UNL     1       2.593   5.286  19.795  0.00  0.00    +0.000 C 
BRANCH  29  30
ATOM     30  C   UNL     1       1.465   4.426  19.193  0.00  0.00    +0.000 C 
ATOM     31  C   UNL     1       1.411   3.052  19.883  0.00  0.00    +0.000 C 
ATOM     32  C   UNL     1       2.558   2.140  19.444  0.00  0.00    +0.000 C 
ATOM     33  N   UNL     1       2.611   1.992  17.990  0.00  0.00    +0.000 NA
ATOM     34  C   UNL     1       2.748   3.289  17.320  0.00  0.00    +0.000 C 
ATOM     35  C   UNL     1       1.598   4.229  17.676  0.00  0.00    +0.000 C 
ATOM     36  H   UNL     1       1.748   1.549  17.671  0.00  0.00    +0.000 HD
ENDBRANCH  29  30
ENDBRANCH  28  29
ENDBRANCH  25  28
ENDBRANCH  21  22
ENDBRANCH  20  21
ENDBRANCH   6  20
TORSDOF 8
ENDMDL
