MODEL 1
REMARK VINA RESULT:      -7.4      0.000      0.000
REMARK  Name = 
REMARK  5 active torsions:
REMARK  status: ('A' for Active; 'I' for Inactive)
REMARK    1  A    between atoms: C_1  and  O_2
REMARK    2  A    between atoms: O_2  and  C_3
REMARK    3  A    between atoms: N_7  and  C_8
REMARK    4  A    between atoms: C_8  and  C_9
REMARK    5  A    between atoms: C_12  and  C_13
REMARK                            x       y       z     vdW  Elec       q    Type
REMARK                         _______ _______ _______ _____ _____    ______ ____
ROOT
ATOM      1  C   UNL     1       5.515   6.577  17.863  0.00  0.00    +0.000 C 
ENDROOT
BRANCH   1   6
ATOM      2  C   UNL     1       3.325   3.706  19.126  0.00  0.00    +0.000 A 
ATOM      3  C   UNL     1       2.130   4.242  18.839  0.00  0.00    +0.000 A 
ATOM      4  C   UNL     1       1.994   5.606  18.399  0.00  0.00    +0.000 A 
ATOM      5  C   UNL     1       3.084   6.299  18.079  0.00  0.00    +0.000 A 
ATOM      6  N   UNL     1       4.354   5.780  18.258  0.00  0.00    +0.000 N 
ATOM      7  C   UNL     1       4.550   4.604  18.987  0.00  0.00    +0.000 A 
ATOM      8  O   UNL     1       5.638   4.295  19.484  0.00  0.00    +0.000 OA
BRANCH   2  10
ATOM      9  C   UNL     1       3.636   1.460  18.390  0.00  0.00    +0.000 C 
ATOM     10  O   UNL     1       3.380   2.359  19.458  0.00  0.00    +0.000 OA
ENDBRANCH   2  10
ENDBRANCH   1   6
BRANCH   1  11
ATOM     11  C   UNL     1       6.143   6.105  16.583  0.00  0.00    +0.000 A 
ATOM     12  N   UNL     1       7.420   6.378  16.268  0.00  0.00    +0.000 NA
ATOM     13  O   UNL     1       7.656   5.581  15.146  0.00  0.00    +0.000 OA
ATOM     14  C   UNL     1       6.497   4.905  14.902  0.00  0.00    +0.000 A 
ATOM     15  N   UNL     1       5.526   5.218  15.732  0.00  0.00    +0.000 NA
BRANCH  14  16
ATOM     16  C   UNL     1       6.519   3.903  13.811  0.00  0.00    +0.000 C 
ATOM     17  C   UNL     1       5.138   3.691  13.188  0.00  0.00    +0.000 C 
ATOM     18  C   UNL     1       5.436   3.082  11.825  0.00  0.00    +0.000 C 
ATOM     19  C   UNL     1       6.809   3.611  11.419  0.00  0.00    +0.000 C 
ATOM     20  C   UNL     1       7.361   4.362  12.626  0.00  0.00    +0.000 C 
ENDBRANCH  14  16
ENDBRANCH   1  11
TORSDOF 4
ENDMDL
MODEL 2
REMARK VINA RESULT:      -7.3      1.304      1.871
REMARK  Name = 
REMARK  5 active torsions:
REMARK  status: ('A' for Active; 'I' for Inactive)
REMARK    1  A    between atoms: C_1  and  O_2
REMARK    2  A    between atoms: O_2  and  C_3
REMARK    3  A    between atoms: N_7  and  C_8
REMARK    4  A    between atoms: C_8  and  C_9
REMARK    5  A    between atoms: C_12  and  C_13
REMARK                            x       y       z     vdW  Elec       q    Type
REMARK                         _______ _______ _______ _____ _____    ______ ____
ROOT
ATOM      1  C   UNL     1       6.509   4.619  17.337  0.00  0.00    +0.000 C 
ENDROOT
BRANCH   1   6
ATOM      2  C   UNL     1       3.167   4.586  19.198  0.00  0.00    +0.000 A 
ATOM      3  C   UNL     1       2.693   5.758  18.750  0.00  0.00    +0.000 A 
ATOM      4  C   UNL     1       3.505   6.665  17.983  0.00  0.00    +0.000 A 
ATOM      5  C   UNL     1       4.691   6.258  17.537  0.00  0.00    +0.000 A 
ATOM      6  N   UNL     1       5.213   5.023  17.879  0.00  0.00    +0.000 N 
ATOM      7  C   UNL     1       4.620   4.249  18.881  0.00  0.00    +0.000 A 
ATOM      8  O   UNL     1       5.218   3.345  19.473  0.00  0.00    +0.000 OA
BRANCH   2  10
ATOM      9  C   UNL     1       2.182   3.901  21.257  0.00  0.00    +0.000 C 
ATOM     10  O   UNL     1       2.293   3.729  19.853  0.00  0.00    +0.000 OA
ENDBRANCH   2  10
ENDBRANCH   1   6
BRANCH   1  11
ATOM     11  C   UNL     1       6.602   4.791  15.848  0.00  0.00    +0.000 A 
ATOM     12  N   UNL     1       7.573   5.519  15.271  0.00  0.00    +0.000 NA
ATOM     13  O   UNL     1       7.430   5.233  13.911  0.00  0.00    +0.000 OA
ATOM     14  C   UNL     1       6.389   4.358  13.809  0.00  0.00    +0.000 A 
ATOM     15  N   UNL     1       5.823   4.083  14.963  0.00  0.00    +0.000 NA
BRANCH  14  16
ATOM     16  C   UNL     1       6.098   3.813  12.462  0.00  0.00    +0.000 C 
ATOM     17  C   UNL     1       6.541   2.355  12.317  0.00  0.00    +0.000 C 
ATOM     18  C   UNL     1       5.726   1.836  11.141  0.00  0.00    +0.000 C 
ATOM     19  C   UNL     1       4.433   2.649  11.133  0.00  0.00    +0.000 C 
ATOM     20  C   UNL     1       4.601   3.744  12.182  0.00  0.00    +0.000 C 
ENDBRANCH  14  16
ENDBRANCH   1  11
TORSDOF 4
ENDMDL
MODEL 3
REMARK VINA RESULT:      -7.2      1.349      1.444
REMARK  Name = 
REMARK  5 active torsions:
REMARK  status: ('A' for Active; 'I' for Inactive)
REMARK    1  A    between atoms: C_1  and  O_2
REMARK    2  A    between atoms: O_2  and  C_3
REMARK    3  A    between atoms: N_7  and  C_8
REMARK    4  A    between atoms: C_8  and  C_9
REMARK    5  A    between atoms: C_12  and  C_13
REMARK                            x       y       z     vdW  Elec       q    Type
REMARK                         _______ _______ _______ _____ _____    ______ ____
ROOT
ATOM      1  C   UNL     1       5.616   5.254  18.986  0.00  0.00    +0.000 C 
ENDROOT
BRANCH   1   6
ATOM      2  C   UNL     1       2.380   3.425  19.891  0.00  0.00    +0.000 A 
ATOM      3  C   UNL     1       1.603   4.502  20.075  0.00  0.00    +0.000 A 
ATOM      4  C   UNL     1       2.141   5.837  20.088  0.00  0.00    +0.000 A 
ATOM      5  C   UNL     1       3.403   6.033  19.714  0.00  0.00    +0.000 A 
ATOM      6  N   UNL     1       4.246   4.977  19.416  0.00  0.00    +0.000 N 
ATOM      7  C   UNL     1       3.876   3.661  19.710  0.00  0.00    +0.000 A 
ATOM      8  O   UNL     1       4.693   2.740  19.811  0.00  0.00    +0.000 OA
BRANCH   2  10
ATOM      9  C   UNL     1       0.805   2.026  18.776  0.00  0.00    +0.000 C 
ATOM     10  O   UNL     1       1.771   2.181  19.804  0.00  0.00    +0.000 OA
ENDBRANCH   2  10
ENDBRANCH   1   6
BRANCH   1  11
ATOM     11  C   UNL     1       5.760   5.313  17.492  0.00  0.00    +0.000 A 
ATOM     12  N   UNL     1       6.024   6.459  16.842  0.00  0.00    +0.000 NA
ATOM     13  O   UNL     1       6.301   6.039  15.539  0.00  0.00    +0.000 OA
ATOM     14  C   UNL     1       6.180   4.680  15.539  0.00  0.00    +0.000 A 
ATOM     15  N   UNL     1       5.814   4.188  16.702  0.00  0.00    +0.000 NA
BRANCH  14  16
ATOM     16  C   UNL     1       6.529   3.974  14.284  0.00  0.00    +0.000 C 
ATOM     17  C   UNL     1       5.297   3.659  13.433  0.00  0.00    +0.000 C 
ATOM     18  C   UNL     1       5.859   3.442  12.035  0.00  0.00    +0.000 C 
ATOM     19  C   UNL     1       7.124   4.294  11.952  0.00  0.00    +0.000 C 
ATOM     20  C   UNL     1       7.374   4.839  13.355  0.00  0.00    +0.000 C 
ENDBRANCH  14  16
ENDBRANCH   1  11
TORSDOF 4
ENDMDL
MODEL 4
REMARK VINA RESULT:      -7.2      1.389      1.887
REMARK  Name = 
REMARK  5 active torsions:
REMARK  status: ('A' for Active; 'I' for Inactive)
REMARK    1  A    between atoms: C_1  and  O_2
REMARK    2  A    between atoms: O_2  and  C_3
REMARK    3  A    between atoms: N_7  and  C_8
REMARK    4  A    between atoms: C_8  and  C_9
REMARK    5  A    between atoms: C_12  and  C_13
REMARK                            x       y       z     vdW  Elec       q    Type
REMARK                         _______ _______ _______ _____ _____    ______ ____
ROOT
ATOM      1  C   UNL     1       6.125   4.628  17.396  0.00  0.00    +0.000 C 
ENDROOT
BRANCH   1   6
ATOM      2  C   UNL     1       2.370   4.193  17.984  0.00  0.00    +0.000 A 
ATOM      3  C   UNL     1       2.074   5.473  18.252  0.00  0.00    +0.000 A 
ATOM      4  C   UNL     1       3.096   6.471  18.424  0.00  0.00    +0.000 A 
ATOM      5  C   UNL     1       4.357   6.172  18.120  0.00  0.00    +0.000 A 
ATOM      6  N   UNL     1       4.730   4.894  17.745  0.00  0.00    +0.000 N 
ATOM      7  C   UNL     1       3.846   3.820  17.884  0.00  0.00    +0.000 A 
ATOM      8  O   UNL     1       4.219   2.642  17.918  0.00  0.00    +0.000 OA
BRANCH   2  10
ATOM      9  C   UNL     1       0.881   2.550  18.857  0.00  0.00    +0.000 C 
ATOM     10  O   UNL     1       1.325   3.311  17.745  0.00  0.00    +0.000 OA
ENDBRANCH   2  10
ENDBRANCH   1   6
BRANCH   1  11
ATOM     11  C   UNL     1       6.400   4.771  15.927  0.00  0.00    +0.000 A 
ATOM     12  N   UNL     1       7.520   5.349  15.461  0.00  0.00    +0.000 NA
ATOM     13  O   UNL     1       7.484   5.071  14.092  0.00  0.00    +0.000 OA
ATOM     14  C   UNL     1       6.347   4.350  13.875  0.00  0.00    +0.000 A 
ATOM     15  N   UNL     1       5.628   4.170  14.961  0.00  0.00    +0.000 NA
BRANCH  14  16
ATOM     16  C   UNL     1       6.127   3.837  12.502  0.00  0.00    +0.000 C 
ATOM     17  C   UNL     1       6.621   2.399  12.334  0.00  0.00    +0.000 C 
ATOM     18  C   UNL     1       5.870   1.891  11.111  0.00  0.00    +0.000 C 
ATOM     19  C   UNL     1       4.554   2.665  11.073  0.00  0.00    +0.000 C 
ATOM     20  C   UNL     1       4.645   3.732  12.159  0.00  0.00    +0.000 C 
ENDBRANCH  14  16
ENDBRANCH   1  11
TORSDOF 4
ENDMDL
MODEL 5
REMARK VINA RESULT:      -7.2      1.363      1.769
REMARK  Name = 
REMARK  5 active torsions:
REMARK  status: ('A' for Active; 'I' for Inactive)
REMARK    1  A    between atoms: C_1  and  O_2
REMARK    2  A    between atoms: O_2  and  C_3
REMARK    3  A    between atoms: N_7  and  C_8
REMARK    4  A    between atoms: C_8  and  C_9
REMARK    5  A    between atoms: C_12  and  C_13
REMARK                            x       y       z     vdW  Elec       q    Type
REMARK                         _______ _______ _______ _____ _____    ______ ____
ROOT
ATOM      1  C   UNL     1       6.004   4.414  18.910  0.00  0.00    +0.000 C 
ENDROOT
BRANCH   1   6
ATOM      2  C   UNL     1       2.363   3.742  19.875  0.00  0.00    +0.000 A 
ATOM      3  C   UNL     1       1.920   5.006  19.823  0.00  0.00    +0.000 A 
ATOM      4  C   UNL     1       2.815   6.120  19.652  0.00  0.00    +0.000 A 
ATOM      5  C   UNL     1       4.089   5.891  19.341  0.00  0.00    +0.000 A 
ATOM      6  N   UNL     1       4.603   4.608  19.283  0.00  0.00    +0.000 N 
ATOM      7  C   UNL     1       3.869   3.520  19.763  0.00  0.00    +0.000 A 
ATOM      8  O   UNL     1       4.388   2.442  20.073  0.00  0.00    +0.000 OA
BRANCH   2  10
ATOM      9  C   UNL     1       0.861   2.294  18.723  0.00  0.00    +0.000 C 
ATOM     10  O   UNL     1       1.429   2.719  19.953  0.00  0.00    +0.000 OA
ENDBRANCH   2  10
ENDBRANCH   1   6
BRANCH   1  11
ATOM     11  C   UNL     1       6.330   4.964  17.551  0.00  0.00    +0.000 A 
ATOM     12  N   UNL     1       7.423   5.712  17.325  0.00  0.00    +0.000 NA
ATOM     13  O   UNL     1       7.467   5.812  15.932  0.00  0.00    +0.000 OA
ATOM     14  C   UNL     1       6.397   5.109  15.462  0.00  0.00    +0.000 A 
ATOM     15  N   UNL     1       5.647   4.600  16.414  0.00  0.00    +0.000 NA
BRANCH  14  16
ATOM     16  C   UNL     1       6.275   4.973  13.991  0.00  0.00    +0.000 C 
ATOM     17  C   UNL     1       7.636   4.979  13.293  0.00  0.00    +0.000 C 
ATOM     18  C   UNL     1       7.364   4.327  11.945  0.00  0.00    +0.000 C 
ATOM     19  C   UNL     1       6.192   3.372  12.169  0.00  0.00    +0.000 C 
ATOM     20  C   UNL     1       5.689   3.625  13.586  0.00  0.00    +0.000 C 
ENDBRANCH  14  16
ENDBRANCH   1  11
TORSDOF 4
ENDMDL
MODEL 6
REMARK VINA RESULT:      -7.1      4.098      6.458
REMARK  Name = 
REMARK  5 active torsions:
REMARK  status: ('A' for Active; 'I' for Inactive)
REMARK    1  A    between atoms: C_1  and  O_2
REMARK    2  A    between atoms: O_2  and  C_3
REMARK    3  A    between atoms: N_7  and  C_8
REMARK    4  A    between atoms: C_8  and  C_9
REMARK    5  A    between atoms: C_12  and  C_13
REMARK                            x       y       z     vdW  Elec       q    Type
REMARK                         _______ _______ _______ _____ _____    ______ ____
ROOT
ATOM      1  C   UNL     1       7.609   6.044  18.898  0.00  0.00    +0.000 C 
ENDROOT
BRANCH   1   6
ATOM      2  C   UNL     1       5.869   4.073  16.119  0.00  0.00    +0.000 A 
ATOM      3  C   UNL     1       4.605   4.245  16.532  0.00  0.00    +0.000 A 
ATOM      4  C   UNL     1       4.294   4.843  17.803  0.00  0.00    +0.000 A 
ATOM      5  C   UNL     1       5.265   5.421  18.506  0.00  0.00    +0.000 A 
ATOM      6  N   UNL     1       6.587   5.369  18.100  0.00  0.00    +0.000 N 
ATOM      7  C   UNL     1       6.983   4.523  17.060  0.00  0.00    +0.000 A 
ATOM      8  O   UNL     1       8.152   4.161  16.896  0.00  0.00    +0.000 OA
BRANCH   2  10
ATOM      9  C   UNL     1       6.625   4.476  13.895  0.00  0.00    +0.000 C 
ATOM     10  O   UNL     1       6.082   3.570  14.843  0.00  0.00    +0.000 OA
ENDBRANCH   2  10
ENDBRANCH   1   6
BRANCH   1  11
ATOM     11  C   UNL     1       7.970   7.400  18.363  0.00  0.00    +0.000 A 
ATOM     12  N   UNL     1       7.403   7.908  17.255  0.00  0.00    +0.000 NA
ATOM     13  O   UNL     1       7.836   9.236  17.247  0.00  0.00    +0.000 OA
ATOM     14  C   UNL     1       8.616   9.394  18.355  0.00  0.00    +0.000 A 
ATOM     15  N   UNL     1       8.760   8.289  19.053  0.00  0.00    +0.000 NA
BRANCH  14  16
ATOM     16  C   UNL     1       9.119  10.759  18.634  0.00  0.00    +0.000 C 
ATOM     17  C   UNL     1       9.594  10.918  20.080  0.00  0.00    +0.000 C 
ATOM     18  C   UNL     1      10.515  12.129  20.035  0.00  0.00    +0.000 C 
ATOM     19  C   UNL     1      11.100  12.162  18.624  0.00  0.00    +0.000 C 
ATOM     20  C   UNL     1      10.369  11.087  17.826  0.00  0.00    +0.000 C 
ENDBRANCH  14  16
ENDBRANCH   1  11
TORSDOF 4
ENDMDL
MODEL 7
REMARK VINA RESULT:      -7.1      0.913      1.267
REMARK  Name = 
REMARK  5 active torsions:
REMARK  status: ('A' for Active; 'I' for Inactive)
REMARK    1  A    between atoms: C_1  and  O_2
REMARK    2  A    between atoms: O_2  and  C_3
REMARK    3  A    between atoms: N_7  and  C_8
REMARK    4  A    between atoms: C_8  and  C_9
REMARK    5  A    between atoms: C_12  and  C_13
REMARK                            x       y       z     vdW  Elec       q    Type
REMARK                         _______ _______ _______ _____ _____    ______ ____
ROOT
ATOM      1  C   UNL     1       6.079   5.940  18.704  0.00  0.00    +0.000 C 
ENDROOT
BRANCH   1   6
ATOM      2  C   UNL     1       3.082   3.623  19.235  0.00  0.00    +0.000 A 
ATOM      3  C   UNL     1       2.112   4.538  19.100  0.00  0.00    +0.000 A 
ATOM      4  C   UNL     1       2.400   5.945  19.012  0.00  0.00    +0.000 A 
ATOM      5  C   UNL     1       3.662   6.344  18.864  0.00  0.00    +0.000 A 
ATOM      6  N   UNL     1       4.716   5.449  18.899  0.00  0.00    +0.000 N 
ATOM      7  C   UNL     1       4.520   4.128  19.313  0.00  0.00    +0.000 A 
ATOM      8  O   UNL     1       5.439   3.404  19.709  0.00  0.00    +0.000 OA
BRANCH   2  10
ATOM      9  C   UNL     1       3.274   1.497  18.174  0.00  0.00    +0.000 C 
ATOM     10  O   UNL     1       2.727   2.281  19.224  0.00  0.00    +0.000 OA
ENDBRANCH   2  10
ENDBRANCH   1   6
BRANCH   1  11
ATOM     11  C   UNL     1       6.638   5.599  17.352  0.00  0.00    +0.000 A 
ATOM     12  N   UNL     1       7.741   4.847  17.202  0.00  0.00    +0.000 NA
ATOM     13  O   UNL     1       7.774   4.588  15.829  0.00  0.00    +0.000 OA
ATOM     14  C   UNL     1       6.683   5.209  15.294  0.00  0.00    +0.000 A 
ATOM     15  N   UNL     1       5.974   5.874  16.179  0.00  0.00    +0.000 NA
BRANCH  14  16
ATOM     16  C   UNL     1       6.431   4.997  13.850  0.00  0.00    +0.000 C 
ATOM     17  C   UNL     1       7.724   4.968  13.032  0.00  0.00    +0.000 C 
ATOM     18  C   UNL     1       7.334   4.247  11.749  0.00  0.00    +0.000 C 
ATOM     19  C   UNL     1       6.193   3.305  12.126  0.00  0.00    +0.000 C 
ATOM     20  C   UNL     1       5.818   3.630  13.569  0.00  0.00    +0.000 C 
ENDBRANCH  14  16
ENDBRANCH   1  11
TORSDOF 4
ENDMDL
MODEL 8
REMARK VINA RESULT:      -6.9      1.680      2.342
REMARK  Name = 
REMARK  5 active torsions:
REMARK  status: ('A' for Active; 'I' for Inactive)
REMARK    1  A    between atoms: C_1  and  O_2
REMARK    2  A    between atoms: O_2  and  C_3
REMARK    3  A    between atoms: N_7  and  C_8
REMARK    4  A    between atoms: C_8  and  C_9
REMARK    5  A    between atoms: C_12  and  C_13
REMARK                            x       y       z     vdW  Elec       q    Type
REMARK                         _______ _______ _______ _____ _____    ______ ____
ROOT
ATOM      1  C   UNL     1       5.147   5.095  18.838  0.00  0.00    +0.000 C 
ENDROOT
BRANCH   1   6
ATOM      2  C   UNL     1       2.004   3.115  19.754  0.00  0.00    +0.000 A 
ATOM      3  C   UNL     1       2.188   2.079  18.923  0.00  0.00    +0.000 A 
ATOM      4  C   UNL     1       3.227   2.076  17.927  0.00  0.00    +0.000 A 
ATOM      5  C   UNL     1       4.153   3.031  17.950  0.00  0.00    +0.000 A 
ATOM      6  N   UNL     1       4.086   4.089  18.840  0.00  0.00    +0.000 N 
ATOM      7  C   UNL     1       2.932   4.316  19.595  0.00  0.00    +0.000 A 
ATOM      8  O   UNL     1       2.671   5.407  20.112  0.00  0.00    +0.000 OA
BRANCH   2  10
ATOM      9  C   UNL     1       1.485   2.520  22.002  0.00  0.00    +0.000 C 
ATOM     10  O   UNL     1       1.039   3.002  20.744  0.00  0.00    +0.000 OA
ENDBRANCH   2  10
ENDBRANCH   1   6
BRANCH   1  11
ATOM     11  C   UNL     1       5.930   5.119  17.557  0.00  0.00    +0.000 A 
ATOM     12  N   UNL     1       7.206   4.703  17.489  0.00  0.00    +0.000 NA
ATOM     13  O   UNL     1       7.467   4.676  16.117  0.00  0.00    +0.000 OA
ATOM     14  C   UNL     1       6.319   5.074  15.498  0.00  0.00    +0.000 A 
ATOM     15  N   UNL     1       5.358   5.393  16.336  0.00  0.00    +0.000 NA
BRANCH  14  16
ATOM     16  C   UNL     1       6.303   5.030  14.017  0.00  0.00    +0.000 C 
ATOM     17  C   UNL     1       7.703   5.169  13.417  0.00  0.00    +0.000 C 
ATOM     18  C   UNL     1       7.564   4.593  12.015  0.00  0.00    +0.000 C 
ATOM     19  C   UNL     1       6.448   3.554  12.096  0.00  0.00    +0.000 C 
ATOM     20  C   UNL     1       5.837   3.678  13.488  0.00  0.00    +0.000 C 
ENDBRANCH  14  16
ENDBRANCH   1  11
TORSDOF 4
ENDMDL
MODEL 9
REMARK VINA RESULT:      -6.9      1.723      1.996
REMARK  Name = 
REMARK  5 active torsions:
REMARK  status: ('A' for Active; 'I' for Inactive)
REMARK    1  A    between atoms: C_1  and  O_2
REMARK    2  A    between atoms: O_2  and  C_3
REMARK    3  A    between atoms: N_7  and  C_8
REMARK    4  A    between atoms: C_8  and  C_9
REMARK    5  A    between atoms: C_12  and  C_13
REMARK                            x       y       z     vdW  Elec       q    Type
REMARK                         _______ _______ _______ _____ _____    ______ ____
ROOT
ATOM      1  C   UNL     1       4.193   6.307  17.739  0.00  0.00    +0.000 C 
ENDROOT
BRANCH   1   6
ATOM      2  C   UNL     1       1.806   4.137  19.796  0.00  0.00    +0.000 A 
ATOM      3  C   UNL     1       1.744   3.089  18.964  0.00  0.00    +0.000 A 
ATOM      4  C   UNL     1       2.321   3.126  17.646  0.00  0.00    +0.000 A 
ATOM      5  C   UNL     1       3.107   4.147  17.309  0.00  0.00    +0.000 A 
ATOM      6  N   UNL     1       3.298   5.227  18.151  0.00  0.00    +0.000 N 
ATOM      7  C   UNL     1       2.504   5.396  19.289  0.00  0.00    +0.000 A 
ATOM      8  O   UNL     1       2.372   6.483  19.861  0.00  0.00    +0.000 OA
BRANCH   2  10
ATOM      9  C   UNL     1       1.439   2.702  21.663  0.00  0.00    +0.000 C 
ATOM     10  O   UNL     1       1.303   3.990  21.081  0.00  0.00    +0.000 OA
ENDBRANCH   2  10
ENDBRANCH   1   6
BRANCH   1  11
ATOM     11  C   UNL     1       5.385   5.819  16.967  0.00  0.00    +0.000 A 
ATOM     12  N   UNL     1       6.519   5.427  17.571  0.00  0.00    +0.000 NA
ATOM     13  O   UNL     1       7.257   4.848  16.536  0.00  0.00    +0.000 OA
ATOM     14  C   UNL     1       6.489   4.948  15.413  0.00  0.00    +0.000 A 
ATOM     15  N   UNL     1       5.347   5.568  15.615  0.00  0.00    +0.000 NA
BRANCH  14  16
ATOM     16  C   UNL     1       7.009   4.306  14.183  0.00  0.00    +0.000 C 
ATOM     17  C   UNL     1       5.909   3.605  13.384  0.00  0.00    +0.000 C 
ATOM     18  C   UNL     1       6.490   3.484  11.982  0.00  0.00    +0.000 C 
ATOM     19  C   UNL     1       7.454   4.659  11.823  0.00  0.00    +0.000 C 
ATOM     20  C   UNL     1       7.555   5.327  13.191  0.00  0.00    +0.000 C 
ENDBRANCH  14  16
ENDBRANCH   1  11
TORSDOF 4
ENDMDL
