MODEL 1
REMARK VINA RESULT:      -7.7      0.000      0.000
REMARK  Name = 
REMARK  10 active torsions:
REMARK  status: ('A' for Active; 'I' for Inactive)
REMARK    1  A    between atoms: C_1  and  C_2
REMARK    2  A    between atoms: C_5  and  C_6
REMARK    3  A    between atoms: C_6  and  C_8
REMARK    4  A    between atoms: C_8  and  C_9
REMARK    5  A    between atoms: C_8  and  N_15
REMARK    6  A    between atoms: C_10  and  C_11
REMARK    7  A    between atoms: C_10  and  C_13
REMARK    8  A    between atoms: C_18  and  N_19
REMARK    9  A    between atoms: N_19  and  C_20
REMARK   10  A    between atoms: N_19  and  C_21
REMARK                            x       y       z     vdW  Elec       q    Type
REMARK                         _______ _______ _______ _____ _____    ______ ____
ROOT
ATOM      1  C   UNL     1       3.219   5.895  19.371  0.00  0.00    +0.000 C 
ENDROOT
BRANCH   1   2
ATOM      2  N   UNL     1       2.598   7.163  19.192  0.00  0.00    +0.000 N 
ATOM      3  C   UNL     1       1.948   7.742  20.228  0.00  0.00    +0.000 A 
ATOM      4  C   UNL     1       1.159   8.874  20.039  0.00  0.00    +0.000 A 
ATOM      5  C   UNL     1       1.034   9.479  18.789  0.00  0.00    +0.000 A 
ATOM      6  C   UNL     1       1.837   8.946  17.781  0.00  0.00    +0.000 A 
ATOM      7  C   UNL     1       2.598   7.792  17.989  0.00  0.00    +0.000 A 
BRANCH   5   8
ATOM      8  N   UNL     1       0.172  10.533  18.586  0.00  0.00    +0.000 N 
ATOM      9  C   UNL     1      -1.171  10.385  18.021  0.00  0.00    +0.000 C 
ATOM     10  C   UNL     1       0.488  11.894  19.034  0.00  0.00    +0.000 C 
ENDBRANCH   5   8
ENDBRANCH   1   2
BRANCH   1  11
ATOM     11  C   UNL     1       4.629   5.647  18.926  0.00  0.00    +0.000 C 
ATOM     12  O   UNL     1       5.524   5.773  19.749  0.00  0.00    +0.000 OA
BRANCH  11  17
ATOM     13  C   UNL     1       5.746   3.913  13.480  0.00  0.00    +0.000 C 
ATOM     14  C   UNL     1       5.470   4.393  14.880  0.00  0.00    +0.000 A 
ATOM     15  C   UNL     1       5.144   3.481  15.885  0.00  0.00    +0.000 A 
ATOM     16  C   UNL     1       4.877   3.927  17.181  0.00  0.00    +0.000 A 
ATOM     17  C   UNL     1       4.925   5.291  17.506  0.00  0.00    +0.000 A 
ATOM     18  C   UNL     1       5.260   6.210  16.502  0.00  0.00    +0.000 A 
ATOM     19  C   UNL     1       5.523   5.757  15.198  0.00  0.00    +0.000 A 
ENDBRANCH  11  17
ENDBRANCH   1  11
BRANCH   1  20
ATOM     20  C   UNL     1       2.707   4.971  20.389  0.00  0.00    +0.000 C 
ATOM     21  C   UNL     1       1.935   3.888  20.127  0.00  0.00    +0.000 C 
BRANCH  21  22
ATOM     22  C   UNL     1       1.547   3.553  18.797  0.00  0.00    +0.000 C 
ATOM     23  N   UNL     1       1.212   3.412  17.698  0.00  0.00    +0.000 NA
ENDBRANCH  21  22
BRANCH  21  24
ATOM     24  C   UNL     1       1.559   3.022  21.191  0.00  0.00    +0.000 C 
ATOM     25  N   UNL     1       1.288   2.363  22.104  0.00  0.00    +0.000 NA
ENDBRANCH  21  24
ENDBRANCH   1  20
TORSDOF 7
ENDMDL
MODEL 2
REMARK VINA RESULT:      -7.6      0.192      1.196
REMARK  Name = 
REMARK  10 active torsions:
REMARK  status: ('A' for Active; 'I' for Inactive)
REMARK    1  A    between atoms: C_1  and  C_2
REMARK    2  A    between atoms: C_5  and  C_6
REMARK    3  A    between atoms: C_6  and  C_8
REMARK    4  A    between atoms: C_8  and  C_9
REMARK    5  A    between atoms: C_8  and  N_15
REMARK    6  A    between atoms: C_10  and  C_11
REMARK    7  A    between atoms: C_10  and  C_13
REMARK    8  A    between atoms: C_18  and  N_19
REMARK    9  A    between atoms: N_19  and  C_20
REMARK   10  A    between atoms: N_19  and  C_21
REMARK                            x       y       z     vdW  Elec       q    Type
REMARK                         _______ _______ _______ _____ _____    ______ ____
ROOT
ATOM      1  C   UNL     1       3.320   5.798  19.405  0.00  0.00    +0.000 C 
ENDROOT
BRANCH   1   2
ATOM      2  N   UNL     1       2.692   7.061  19.211  0.00  0.00    +0.000 N 
ATOM      3  C   UNL     1       2.025   7.640  20.237  0.00  0.00    +0.000 A 
ATOM      4  C   UNL     1       1.229   8.764  20.033  0.00  0.00    +0.000 A 
ATOM      5  C   UNL     1       1.114   9.362  18.777  0.00  0.00    +0.000 A 
ATOM      6  C   UNL     1       1.933   8.830  17.782  0.00  0.00    +0.000 A 
ATOM      7  C   UNL     1       2.701   7.683  18.005  0.00  0.00    +0.000 A 
BRANCH   5   8
ATOM      8  N   UNL     1       0.246  10.408  18.558  0.00  0.00    +0.000 N 
ATOM      9  C   UNL     1       0.576  11.808  18.832  0.00  0.00    +0.000 C 
ATOM     10  C   UNL     1      -1.057  10.214  17.913  0.00  0.00    +0.000 C 
ENDBRANCH   5   8
ENDBRANCH   1   2
BRANCH   1  11
ATOM     11  C   UNL     1       4.720   5.544  18.932  0.00  0.00    +0.000 C 
ATOM     12  O   UNL     1       5.641   5.781  19.701  0.00  0.00    +0.000 OA
BRANCH  11  17
ATOM     13  C   UNL     1       5.826   3.942  13.443  0.00  0.00    +0.000 C 
ATOM     14  C   UNL     1       5.521   4.327  14.866  0.00  0.00    +0.000 A 
ATOM     15  C   UNL     1       5.792   5.619  15.319  0.00  0.00    +0.000 A 
ATOM     16  C   UNL     1       5.520   5.973  16.643  0.00  0.00    +0.000 A 
ATOM     17  C   UNL     1       4.975   5.048  17.546  0.00  0.00    +0.000 A 
ATOM     18  C   UNL     1       4.694   3.752  17.094  0.00  0.00    +0.000 A 
ATOM     19  C   UNL     1       4.974   3.398  15.763  0.00  0.00    +0.000 A 
ENDBRANCH  11  17
ENDBRANCH   1  11
BRANCH   1  20
ATOM     20  C   UNL     1       2.835   4.897  20.455  0.00  0.00    +0.000 C 
ATOM     21  C   UNL     1       1.970   3.873  20.253  0.00  0.00    +0.000 C 
BRANCH  21  22
ATOM     22  C   UNL     1       1.446   3.585  18.958  0.00  0.00    +0.000 C 
ATOM     23  N   UNL     1       1.141   3.302  17.878  0.00  0.00    +0.000 NA
ENDBRANCH  21  22
BRANCH  21  24
ATOM     24  C   UNL     1       1.628   3.019  21.338  0.00  0.00    +0.000 C 
ATOM     25  N   UNL     1       1.311   2.282  22.172  0.00  0.00    +0.000 NA
ENDBRANCH  21  24
ENDBRANCH   1  20
TORSDOF 7
ENDMDL
MODEL 3
REMARK VINA RESULT:      -7.5      0.467      1.089
REMARK  Name = 
REMARK  10 active torsions:
REMARK  status: ('A' for Active; 'I' for Inactive)
REMARK    1  A    between atoms: C_1  and  C_2
REMARK    2  A    between atoms: C_5  and  C_6
REMARK    3  A    between atoms: C_6  and  C_8
REMARK    4  A    between atoms: C_8  and  C_9
REMARK    5  A    between atoms: C_8  and  N_15
REMARK    6  A    between atoms: C_10  and  C_11
REMARK    7  A    between atoms: C_10  and  C_13
REMARK    8  A    between atoms: C_18  and  N_19
REMARK    9  A    between atoms: N_19  and  C_20
REMARK   10  A    between atoms: N_19  and  C_21
REMARK                            x       y       z     vdW  Elec       q    Type
REMARK                         _______ _______ _______ _____ _____    ______ ____
ROOT
ATOM      1  C   UNL     1       3.170   5.846  19.409  0.00  0.00    +0.000 C 
ENDROOT
BRANCH   1   2
ATOM      2  N   UNL     1       2.487   7.078  19.198  0.00  0.00    +0.000 N 
ATOM      3  C   UNL     1       2.569   7.690  17.994  0.00  0.00    +0.000 A 
ATOM      4  C   UNL     1       2.092   8.986  17.814  0.00  0.00    +0.000 A 
ATOM      5  C   UNL     1       1.478   9.692  18.849  0.00  0.00    +0.000 A 
ATOM      6  C   UNL     1       1.277   8.974  20.027  0.00  0.00    +0.000 A 
ATOM      7  C   UNL     1       1.791   7.685  20.193  0.00  0.00    +0.000 A 
BRANCH   5   8
ATOM      8  N   UNL     1       1.104  11.007  18.695  0.00  0.00    +0.000 N 
ATOM      9  C   UNL     1      -0.253  11.499  18.942  0.00  0.00    +0.000 C 
ATOM     10  C   UNL     1       2.075  12.061  18.381  0.00  0.00    +0.000 C 
ENDBRANCH   5   8
ENDBRANCH   1   2
BRANCH   1  11
ATOM     11  C   UNL     1       4.585   5.653  18.953  0.00  0.00    +0.000 C 
ATOM     12  O   UNL     1       5.481   5.814  19.770  0.00  0.00    +0.000 OA
BRANCH  11  17
ATOM     13  C   UNL     1       5.722   3.958  13.499  0.00  0.00    +0.000 C 
ATOM     14  C   UNL     1       5.440   4.428  14.901  0.00  0.00    +0.000 A 
ATOM     15  C   UNL     1       5.140   3.506  15.905  0.00  0.00    +0.000 A 
ATOM     16  C   UNL     1       4.867   3.943  17.204  0.00  0.00    +0.000 A 
ATOM     17  C   UNL     1       4.884   5.307  17.531  0.00  0.00    +0.000 A 
ATOM     18  C   UNL     1       5.194   6.236  16.529  0.00  0.00    +0.000 A 
ATOM     19  C   UNL     1       5.463   5.792  15.222  0.00  0.00    +0.000 A 
ENDBRANCH  11  17
ENDBRANCH   1  11
BRANCH   1  20
ATOM     20  C   UNL     1       2.715   4.932  20.461  0.00  0.00    +0.000 C 
ATOM     21  C   UNL     1       1.922   3.852  20.253  0.00  0.00    +0.000 C 
BRANCH  21  22
ATOM     22  C   UNL     1       1.452   3.512  18.951  0.00  0.00    +0.000 C 
ATOM     23  N   UNL     1       1.147   3.127  17.902  0.00  0.00    +0.000 NA
ENDBRANCH  21  22
BRANCH  21  24
ATOM     24  C   UNL     1       1.606   2.995  21.343  0.00  0.00    +0.000 C 
ATOM     25  N   UNL     1       1.330   2.243  22.180  0.00  0.00    +0.000 NA
ENDBRANCH  21  24
ENDBRANCH   1  20
TORSDOF 7
ENDMDL
MODEL 4
REMARK VINA RESULT:      -7.1      1.723      2.423
REMARK  Name = 
REMARK  10 active torsions:
REMARK  status: ('A' for Active; 'I' for Inactive)
REMARK    1  A    between atoms: C_1  and  C_2
REMARK    2  A    between atoms: C_5  and  C_6
REMARK    3  A    between atoms: C_6  and  C_8
REMARK    4  A    between atoms: C_8  and  C_9
REMARK    5  A    between atoms: C_8  and  N_15
REMARK    6  A    between atoms: C_10  and  C_11
REMARK    7  A    between atoms: C_10  and  C_13
REMARK    8  A    between atoms: C_18  and  N_19
REMARK    9  A    between atoms: N_19  and  C_20
REMARK   10  A    between atoms: N_19  and  C_21
REMARK                            x       y       z     vdW  Elec       q    Type
REMARK                         _______ _______ _______ _____ _____    ______ ____
ROOT
ATOM      1  C   UNL     1       4.686   5.406  18.373  0.00  0.00    +0.000 C 
ENDROOT
BRANCH   1   2
ATOM      2  N   UNL     1       3.620   6.322  18.600  0.00  0.00    +0.000 N 
ATOM      3  C   UNL     1       3.374   7.298  17.696  0.00  0.00    +0.000 A 
ATOM      4  C   UNL     1       2.483   8.331  17.978  0.00  0.00    +0.000 A 
ATOM      5  C   UNL     1       1.782   8.385  19.183  0.00  0.00    +0.000 A 
ATOM      6  C   UNL     1       1.949   7.284  20.024  0.00  0.00    +0.000 A 
ATOM      7  C   UNL     1       2.870   6.275  19.730  0.00  0.00    +0.000 A 
BRANCH   5   8
ATOM      8  N   UNL     1       0.984   9.460  19.500  0.00  0.00    +0.000 N 
ATOM      9  C   UNL     1       0.438   9.699  20.837  0.00  0.00    +0.000 C 
ATOM     10  C   UNL     1       0.709  10.534  18.540  0.00  0.00    +0.000 C 
ENDBRANCH   5   8
ENDBRANCH   1   2
BRANCH   1  11
ATOM     11  C   UNL     1       5.825   5.747  17.459  0.00  0.00    +0.000 C 
ATOM     12  O   UNL     1       6.650   6.562  17.846  0.00  0.00    +0.000 OA
BRANCH  11  17
ATOM     13  C   UNL     1       6.532   3.475  12.144  0.00  0.00    +0.000 C 
ATOM     14  C   UNL     1       6.315   4.056  13.516  0.00  0.00    +0.000 A 
ATOM     15  C   UNL     1       7.339   4.759  14.152  0.00  0.00    +0.000 A 
ATOM     16  C   UNL     1       7.142   5.289  15.430  0.00  0.00    +0.000 A 
ATOM     17  C   UNL     1       5.921   5.129  16.103  0.00  0.00    +0.000 A 
ATOM     18  C   UNL     1       4.887   4.432  15.464  0.00  0.00    +0.000 A 
ATOM     19  C   UNL     1       5.092   3.895  14.181  0.00  0.00    +0.000 A 
ENDBRANCH  11  17
ENDBRANCH   1  11
BRANCH   1  20
ATOM     20  C   UNL     1       4.956   4.346  19.350  0.00  0.00    +0.000 C 
ATOM     21  C   UNL     1       4.377   3.121  19.337  0.00  0.00    +0.000 C 
BRANCH  21  22
ATOM     22  C   UNL     1       3.427   2.756  18.338  0.00  0.00    +0.000 C 
ATOM     23  N   UNL     1       2.577   2.420  17.628  0.00  0.00    +0.000 NA
ENDBRANCH  21  22
BRANCH  21  24
ATOM     24  C   UNL     1       4.774   2.147  20.295  0.00  0.00    +0.000 C 
ATOM     25  N   UNL     1       5.133   1.410  21.112  0.00  0.00    +0.000 NA
ENDBRANCH  21  24
ENDBRANCH   1  20
TORSDOF 7
ENDMDL
MODEL 5
REMARK VINA RESULT:      -7.0      1.733      2.256
REMARK  Name = 
REMARK  10 active torsions:
REMARK  status: ('A' for Active; 'I' for Inactive)
REMARK    1  A    between atoms: C_1  and  C_2
REMARK    2  A    between atoms: C_5  and  C_6
REMARK    3  A    between atoms: C_6  and  C_8
REMARK    4  A    between atoms: C_8  and  C_9
REMARK    5  A    between atoms: C_8  and  N_15
REMARK    6  A    between atoms: C_10  and  C_11
REMARK    7  A    between atoms: C_10  and  C_13
REMARK    8  A    between atoms: C_18  and  N_19
REMARK    9  A    between atoms: N_19  and  C_20
REMARK   10  A    between atoms: N_19  and  C_21
REMARK                            x       y       z     vdW  Elec       q    Type
REMARK                         _______ _______ _______ _____ _____    ______ ____
ROOT
ATOM      1  C   UNL     1       4.604   5.772  18.143  0.00  0.00    +0.000 C 
ENDROOT
BRANCH   1   2
ATOM      2  N   UNL     1       3.530   6.667  18.410  0.00  0.00    +0.000 N 
ATOM      3  C   UNL     1       3.220   7.626  17.507  0.00  0.00    +0.000 A 
ATOM      4  C   UNL     1       2.321   8.643  17.819  0.00  0.00    +0.000 A 
ATOM      5  C   UNL     1       1.677   8.697  19.056  0.00  0.00    +0.000 A 
ATOM      6  C   UNL     1       1.907   7.611  19.900  0.00  0.00    +0.000 A 
ATOM      7  C   UNL     1       2.836   6.619  19.575  0.00  0.00    +0.000 A 
BRANCH   5   8
ATOM      8  N   UNL     1       0.871   9.759  19.398  0.00  0.00    +0.000 N 
ATOM      9  C   UNL     1      -0.146   9.701  20.449  0.00  0.00    +0.000 C 
ATOM     10  C   UNL     1       1.049  11.091  18.809  0.00  0.00    +0.000 C 
ENDBRANCH   5   8
ENDBRANCH   1   2
BRANCH   1  11
ATOM     11  C   UNL     1       5.746   6.167  17.256  0.00  0.00    +0.000 C 
ATOM     12  O   UNL     1       6.451   7.103  17.606  0.00  0.00    +0.000 OA
BRANCH  11  17
ATOM     13  C   UNL     1       6.344   3.284  12.232  0.00  0.00    +0.000 C 
ATOM     14  C   UNL     1       6.224   4.031  13.533  0.00  0.00    +0.000 A 
ATOM     15  C   UNL     1       4.994   4.111  14.188  0.00  0.00    +0.000 A 
ATOM     16  C   UNL     1       4.880   4.813  15.390  0.00  0.00    +0.000 A 
ATOM     17  C   UNL     1       5.988   5.454  15.966  0.00  0.00    +0.000 A 
ATOM     18  C   UNL     1       7.227   5.370  15.316  0.00  0.00    +0.000 A 
ATOM     19  C   UNL     1       7.336   4.666  14.104  0.00  0.00    +0.000 A 
ENDBRANCH  11  17
ENDBRANCH   1  11
BRANCH   1  20
ATOM     20  C   UNL     1       4.876   4.665  19.066  0.00  0.00    +0.000 C 
ATOM     21  C   UNL     1       4.262   3.457  19.022  0.00  0.00    +0.000 C 
BRANCH  21  22
ATOM     22  C   UNL     1       3.270   3.160  18.042  0.00  0.00    +0.000 C 
ATOM     23  N   UNL     1       2.377   2.915  17.347  0.00  0.00    +0.000 NA
ENDBRANCH  21  22
BRANCH  21  24
ATOM     24  C   UNL     1       4.662   2.434  19.926  0.00  0.00    +0.000 C 
ATOM     25  N   UNL     1       4.923   1.566  20.646  0.00  0.00    +0.000 NA
ENDBRANCH  21  24
ENDBRANCH   1  20
TORSDOF 7
ENDMDL
MODEL 6
REMARK VINA RESULT:      -6.6      2.201      6.375
REMARK  Name = 
REMARK  10 active torsions:
REMARK  status: ('A' for Active; 'I' for Inactive)
REMARK    1  A    between atoms: C_1  and  C_2
REMARK    2  A    between atoms: C_5  and  C_6
REMARK    3  A    between atoms: C_6  and  C_8
REMARK    4  A    between atoms: C_8  and  C_9
REMARK    5  A    between atoms: C_8  and  N_15
REMARK    6  A    between atoms: C_10  and  C_11
REMARK    7  A    between atoms: C_10  and  C_13
REMARK    8  A    between atoms: C_18  and  N_19
REMARK    9  A    between atoms: N_19  and  C_20
REMARK   10  A    between atoms: N_19  and  C_21
REMARK                            x       y       z     vdW  Elec       q    Type
REMARK                         _______ _______ _______ _____ _____    ______ ____
ROOT
ATOM      1  C   UNL     1       4.032   4.817  17.925  0.00  0.00    +0.000 C 
ENDROOT
BRANCH   1   2
ATOM      2  N   UNL     1       4.897   4.745  16.796  0.00  0.00    +0.000 N 
ATOM      3  C   UNL     1       5.125   5.855  16.057  0.00  0.00    +0.000 A 
ATOM      4  C   UNL     1       5.792   5.781  14.837  0.00  0.00    +0.000 A 
ATOM      5  C   UNL     1       6.284   4.573  14.343  0.00  0.00    +0.000 A 
ATOM      6  C   UNL     1       6.163   3.480  15.202  0.00  0.00    +0.000 A 
ATOM      7  C   UNL     1       5.464   3.575  16.408  0.00  0.00    +0.000 A 
BRANCH   5   8
ATOM      8  N   UNL     1       6.849   4.487  13.091  0.00  0.00    +0.000 N 
ATOM      9  C   UNL     1       7.936   5.352  12.630  0.00  0.00    +0.000 C 
ATOM     10  C   UNL     1       6.481   3.429  12.143  0.00  0.00    +0.000 C 
ENDBRANCH   5   8
ENDBRANCH   1   2
BRANCH   1  11
ATOM     11  C   UNL     1       4.139   5.936  18.918  0.00  0.00    +0.000 C 
ATOM     12  O   UNL     1       5.073   5.919  19.707  0.00  0.00    +0.000 OA
BRANCH  11  17
ATOM     13  C   UNL     1       0.240  10.258  18.748  0.00  0.00    +0.000 C 
ATOM     14  C   UNL     1       1.242   9.137  18.826  0.00  0.00    +0.000 A 
ATOM     15  C   UNL     1       2.104   8.888  17.757  0.00  0.00    +0.000 A 
ATOM     16  C   UNL     1       3.026   7.841  17.825  0.00  0.00    +0.000 A 
ATOM     17  C   UNL     1       3.109   7.017  18.957  0.00  0.00    +0.000 A 
ATOM     18  C   UNL     1       2.252   7.269  20.037  0.00  0.00    +0.000 A 
ATOM     19  C   UNL     1       1.322   8.320  19.962  0.00  0.00    +0.000 A 
ENDBRANCH  11  17
ENDBRANCH   1  11
BRANCH   1  20
ATOM     20  C   UNL     1       2.746   4.113  17.904  0.00  0.00    +0.000 C 
ATOM     21  C   UNL     1       2.440   3.046  18.682  0.00  0.00    +0.000 C 
BRANCH  21  22
ATOM     22  C   UNL     1       3.377   2.507  19.611  0.00  0.00    +0.000 C 
ATOM     23  N   UNL     1       4.231   2.142  20.302  0.00  0.00    +0.000 NA
ENDBRANCH  21  22
BRANCH  21  24
ATOM     24  C   UNL     1       1.132   2.490  18.625  0.00  0.00    +0.000 C 
ATOM     25  N   UNL     1       0.095   1.974  18.609  0.00  0.00    +0.000 NA
ENDBRANCH  21  24
ENDBRANCH   1  20
TORSDOF 7
ENDMDL
MODEL 7
REMARK VINA RESULT:      -6.6      2.219      6.325
REMARK  Name = 
REMARK  10 active torsions:
REMARK  status: ('A' for Active; 'I' for Inactive)
REMARK    1  A    between atoms: C_1  and  C_2
REMARK    2  A    between atoms: C_5  and  C_6
REMARK    3  A    between atoms: C_6  and  C_8
REMARK    4  A    between atoms: C_8  and  C_9
REMARK    5  A    between atoms: C_8  and  N_15
REMARK    6  A    between atoms: C_10  and  C_11
REMARK    7  A    between atoms: C_10  and  C_13
REMARK    8  A    between atoms: C_18  and  N_19
REMARK    9  A    between atoms: N_19  and  C_20
REMARK   10  A    between atoms: N_19  and  C_21
REMARK                            x       y       z     vdW  Elec       q    Type
REMARK                         _______ _______ _______ _____ _____    ______ ____
ROOT
ATOM      1  C   UNL     1       4.038   4.806  17.924  0.00  0.00    +0.000 C 
ENDROOT
BRANCH   1   2
ATOM      2  N   UNL     1       4.904   4.731  16.797  0.00  0.00    +0.000 N 
ATOM      3  C   UNL     1       5.049   5.809  15.992  0.00  0.00    +0.000 A 
ATOM      4  C   UNL     1       5.717   5.712  14.774  0.00  0.00    +0.000 A 
ATOM      5  C   UNL     1       6.296   4.516  14.349  0.00  0.00    +0.000 A 
ATOM      6  C   UNL     1       6.257   3.470  15.271  0.00  0.00    +0.000 A 
ATOM      7  C   UNL     1       5.555   3.584  16.474  0.00  0.00    +0.000 A 
BRANCH   5   8
ATOM      8  N   UNL     1       6.863   4.398  13.101  0.00  0.00    +0.000 N 
ATOM      9  C   UNL     1       6.408   3.441  12.090  0.00  0.00    +0.000 C 
ATOM     10  C   UNL     1       7.908   5.314  12.632  0.00  0.00    +0.000 C 
ENDBRANCH   5   8
ENDBRANCH   1   2
BRANCH   1  11
ATOM     11  C   UNL     1       4.122   5.945  18.896  0.00  0.00    +0.000 C 
ATOM     12  O   UNL     1       4.999   5.913  19.748  0.00  0.00    +0.000 OA
BRANCH  11  17
ATOM     13  C   UNL     1       0.166  10.217  19.000  0.00  0.00    +0.000 C 
ATOM     14  C   UNL     1       1.193   9.118  18.938  0.00  0.00    +0.000 A 
ATOM     15  C   UNL     1       1.372   8.261  20.026  0.00  0.00    +0.000 A 
ATOM     16  C   UNL     1       2.332   7.248  19.973  0.00  0.00    +0.000 A 
ATOM     17  C   UNL     1       3.137   7.066  18.839  0.00  0.00    +0.000 A 
ATOM     18  C   UNL     1       2.955   7.918  17.741  0.00  0.00    +0.000 A 
ATOM     19  C   UNL     1       1.991   8.940  17.800  0.00  0.00    +0.000 A 
ENDBRANCH  11  17
ENDBRANCH   1  11
BRANCH   1  20
ATOM     20  C   UNL     1       2.767   4.074  17.917  0.00  0.00    +0.000 C 
ATOM     21  C   UNL     1       2.490   3.005  18.701  0.00  0.00    +0.000 C 
BRANCH  21  22
ATOM     22  C   UNL     1       3.447   2.489  19.624  0.00  0.00    +0.000 C 
ATOM     23  N   UNL     1       4.303   2.049  20.268  0.00  0.00    +0.000 NA
ENDBRANCH  21  22
BRANCH  21  24
ATOM     24  C   UNL     1       1.193   2.421  18.659  0.00  0.00    +0.000 C 
ATOM     25  N   UNL     1       0.121   1.995  18.569  0.00  0.00    +0.000 NA
ENDBRANCH  21  24
ENDBRANCH   1  20
TORSDOF 7
ENDMDL
MODEL 8
REMARK VINA RESULT:      -6.6      1.241      1.842
REMARK  Name = 
REMARK  10 active torsions:
REMARK  status: ('A' for Active; 'I' for Inactive)
REMARK    1  A    between atoms: C_1  and  C_2
REMARK    2  A    between atoms: C_5  and  C_6
REMARK    3  A    between atoms: C_6  and  C_8
REMARK    4  A    between atoms: C_8  and  C_9
REMARK    5  A    between atoms: C_8  and  N_15
REMARK    6  A    between atoms: C_10  and  C_11
REMARK    7  A    between atoms: C_10  and  C_13
REMARK    8  A    between atoms: C_18  and  N_19
REMARK    9  A    between atoms: N_19  and  C_20
REMARK   10  A    between atoms: N_19  and  C_21
REMARK                            x       y       z     vdW  Elec       q    Type
REMARK                         _______ _______ _______ _____ _____    ______ ____
ROOT
ATOM      1  C   UNL     1       2.787   6.047  18.242  0.00  0.00    +0.000 C 
ENDROOT
BRANCH   1   2
ATOM      2  N   UNL     1       2.291   7.202  18.910  0.00  0.00    +0.000 N 
ATOM      3  C   UNL     1       2.032   7.148  20.237  0.00  0.00    +0.000 A 
ATOM      4  C   UNL     1       1.357   8.182  20.881  0.00  0.00    +0.000 A 
ATOM      5  C   UNL     1       0.953   9.329  20.198  0.00  0.00    +0.000 A 
ATOM      6  C   UNL     1       1.369   9.415  18.870  0.00  0.00    +0.000 A 
ATOM      7  C   UNL     1       2.021   8.351  18.240  0.00  0.00    +0.000 A 
BRANCH   5   8
ATOM      8  N   UNL     1       0.195  10.299  20.813  0.00  0.00    +0.000 N 
ATOM      9  C   UNL     1      -0.402  11.433  20.105  0.00  0.00    +0.000 C 
ATOM     10  C   UNL     1      -0.180  10.212  22.229  0.00  0.00    +0.000 C 
ENDBRANCH   5   8
ENDBRANCH   1   2
BRANCH   1  11
ATOM     11  C   UNL     1       4.258   5.773  18.149  0.00  0.00    +0.000 C 
ATOM     12  O   UNL     1       4.936   5.917  19.157  0.00  0.00    +0.000 OA
BRANCH  11  17
ATOM     13  C   UNL     1       6.684   3.866  13.211  0.00  0.00    +0.000 C 
ATOM     14  C   UNL     1       6.064   4.392  14.477  0.00  0.00    +0.000 A 
ATOM     15  C   UNL     1       5.770   3.524  15.530  0.00  0.00    +0.000 A 
ATOM     16  C   UNL     1       5.184   4.010  16.701  0.00  0.00    +0.000 A 
ATOM     17  C   UNL     1       4.874   5.370  16.850  0.00  0.00    +0.000 A 
ATOM     18  C   UNL     1       5.175   6.247  15.799  0.00  0.00    +0.000 A 
ATOM     19  C   UNL     1       5.760   5.753  14.620  0.00  0.00    +0.000 A 
ENDBRANCH  11  17
ENDBRANCH   1  11
BRANCH   1  20
ATOM     20  C   UNL     1       1.914   4.883  18.055  0.00  0.00    +0.000 C 
ATOM     21  C   UNL     1       1.803   3.855  18.931  0.00  0.00    +0.000 C 
BRANCH  21  22
ATOM     22  C   UNL     1       2.553   3.824  20.143  0.00  0.00    +0.000 C 
ATOM     23  N   UNL     1       3.065   3.721  21.176  0.00  0.00    +0.000 NA
ENDBRANCH  21  22
BRANCH  21  24
ATOM     24  C   UNL     1       0.867   2.815  18.676  0.00  0.00    +0.000 C 
ATOM     25  N   UNL     1       0.161   1.919  18.475  0.00  0.00    +0.000 NA
ENDBRANCH  21  24
ENDBRANCH   1  20
TORSDOF 7
ENDMDL
MODEL 9
REMARK VINA RESULT:      -6.6      2.263      5.095
REMARK  Name = 
REMARK  10 active torsions:
REMARK  status: ('A' for Active; 'I' for Inactive)
REMARK    1  A    between atoms: C_1  and  C_2
REMARK    2  A    between atoms: C_5  and  C_6
REMARK    3  A    between atoms: C_6  and  C_8
REMARK    4  A    between atoms: C_8  and  C_9
REMARK    5  A    between atoms: C_8  and  N_15
REMARK    6  A    between atoms: C_10  and  C_11
REMARK    7  A    between atoms: C_10  and  C_13
REMARK    8  A    between atoms: C_18  and  N_19
REMARK    9  A    between atoms: N_19  and  C_20
REMARK   10  A    between atoms: N_19  and  C_21
REMARK                            x       y       z     vdW  Elec       q    Type
REMARK                         _______ _______ _______ _____ _____    ______ ____
ROOT
ATOM      1  C   UNL     1       3.716   5.547  17.608  0.00  0.00    +0.000 C 
ENDROOT
BRANCH   1   2
ATOM      2  N   UNL     1       3.118   6.727  18.135  0.00  0.00    +0.000 N 
ATOM      3  C   UNL     1       2.729   6.757  19.431  0.00  0.00    +0.000 A 
ATOM      4  C   UNL     1       1.959   7.807  19.925  0.00  0.00    +0.000 A 
ATOM      5  C   UNL     1       1.587   8.885  19.121  0.00  0.00    +0.000 A 
ATOM      6  C   UNL     1       2.132   8.892  17.837  0.00  0.00    +0.000 A 
ATOM      7  C   UNL     1       2.878   7.812  17.357  0.00  0.00    +0.000 A 
BRANCH   5   8
ATOM      8  N   UNL     1       0.740   9.866  19.584  0.00  0.00    +0.000 N 
ATOM      9  C   UNL     1      -0.295  10.498  18.764  0.00  0.00    +0.000 C 
ATOM     10  C   UNL     1       0.726  10.281  20.992  0.00  0.00    +0.000 C 
ENDBRANCH   5   8
ENDBRANCH   1   2
BRANCH   1  11
ATOM     11  C   UNL     1       3.019   4.222  17.679  0.00  0.00    +0.000 C 
ATOM     12  O   UNL     1       2.798   3.630  16.631  0.00  0.00    +0.000 OA
BRANCH  11  17
ATOM     13  C   UNL     1       0.963   2.124  22.707  0.00  0.00    +0.000 C 
ATOM     14  C   UNL     1       1.526   2.666  21.421  0.00  0.00    +0.000 A 
ATOM     15  C   UNL     1       0.674   3.150  20.427  0.00  0.00    +0.000 A 
ATOM     16  C   UNL     1       1.196   3.643  19.229  0.00  0.00    +0.000 A 
ATOM     17  C   UNL     1       2.579   3.664  18.992  0.00  0.00    +0.000 A 
ATOM     18  C   UNL     1       3.440   3.187  19.990  0.00  0.00    +0.000 A 
ATOM     19  C   UNL     1       2.909   2.687  21.192  0.00  0.00    +0.000 A 
ENDBRANCH  11  17
ENDBRANCH   1  11
BRANCH   1  20
ATOM     20  C   UNL     1       4.765   5.656  16.589  0.00  0.00    +0.000 C 
ATOM     21  C   UNL     1       6.080   5.409  16.807  0.00  0.00    +0.000 C 
BRANCH  21  22
ATOM     22  C   UNL     1       6.561   5.013  18.090  0.00  0.00    +0.000 C 
ATOM     23  N   UNL     1       6.846   4.757  19.182  0.00  0.00    +0.000 NA
ENDBRANCH  21  22
BRANCH  21  24
ATOM     24  C   UNL     1       6.995   5.476  15.721  0.00  0.00    +0.000 C 
ATOM     25  N   UNL     1       7.720   5.461  14.818  0.00  0.00    +0.000 NA
ENDBRANCH  21  24
ENDBRANCH   1  20
TORSDOF 7
ENDMDL
