MODEL 1
REMARK VINA RESULT:      -7.8      0.000      0.000
REMARK  Name = 
REMARK  4 active torsions:
REMARK  status: ('A' for Active; 'I' for Inactive)
REMARK    1  A    between atoms: C_2  and  C_14
REMARK    2  A    between atoms: N_3  and  C_4
REMARK    3  A    between atoms: C_7  and  C_8
REMARK    4  A    between atoms: N_18  and  C_19
REMARK                            x       y       z     vdW  Elec       q    Type
REMARK                         _______ _______ _______ _____ _____    ______ ____
ROOT
ATOM      1  C   UNL     1       2.891   4.529  20.075  0.00  0.00    +0.000 A 
ATOM      2  C   UNL     1       3.058   3.353  20.786  0.00  0.00    +0.000 A 
ATOM      3  S   UNL     1       4.341   2.442  20.124  0.00  0.00    +0.000 S 
ATOM      4  C   UNL     1       4.694   3.741  19.049  0.00  0.00    +0.000 A 
ATOM      5  N   UNL     1       5.813   3.692  18.290  0.00  0.00    +0.000 N 
ATOM      6  N   UNL     1       3.819   4.725  19.057  0.00  0.00    +0.000 NA
ATOM      7  H   UNL     1       5.947   2.849  17.741  0.00  0.00    +0.000 HD
ENDROOT
BRANCH   5   8
ATOM      8  C   UNL     1       6.488   4.832  17.786  0.00  0.00    +0.000 A 
ATOM      9  C   UNL     1       7.277   5.688  18.581  0.00  0.00    +0.000 A 
ATOM     10 CL   UNL     1       7.721   5.354  20.221  0.00  0.00    +0.000 Cl
ATOM     11  C   UNL     1       7.838   6.822  17.998  0.00  0.00    +0.000 A 
ATOM     12  N   UNL     1       7.698   7.158  16.696  0.00  0.00    +0.000 NA
ATOM     13  C   UNL     1       6.972   6.308  15.936  0.00  0.00    +0.000 A 
ATOM     14  C   UNL     1       6.360   5.161  16.424  0.00  0.00    +0.000 A 
ATOM     15 CL   UNL     1       5.463   4.162  15.337  0.00  0.00    +0.000 Cl
ENDBRANCH   5   8
BRANCH   1  17
ATOM     16  O   UNL     1       0.702   5.124  20.631  0.00  0.00    +0.000 OA
ATOM     17  C   UNL     1       1.839   5.504  20.381  0.00  0.00    +0.000 C 
ATOM     18  N   UNL     1       2.269   6.817  20.312  0.00  0.00    +0.000 N 
ATOM     19  H   UNL     1       3.222   6.940  19.983  0.00  0.00    +0.000 HD
BRANCH  18  20
ATOM     20  C   UNL     1       1.491   7.962  20.583  0.00  0.00    +0.000 A 
ATOM     21  C   UNL     1       0.935   8.217  21.840  0.00  0.00    +0.000 A 
ATOM     22  C   UNL     1       0.162   9.357  22.070  0.00  0.00    +0.000 A 
ATOM     23  C   UNL     1      -0.074  10.278  21.046  0.00  0.00    +0.000 A 
ATOM     24  C   UNL     1       0.486  10.030  19.783  0.00  0.00    +0.000 A 
ATOM     25  C   UNL     1       1.272   8.887  19.559  0.00  0.00    +0.000 A 
BRANCH  23  26
ATOM     26  C   UNL     1      -0.903  11.512  21.302  0.00  0.00    +0.000 C 
ATOM     27  F   UNL     1      -1.567  11.486  22.492  0.00  0.00    +0.000 F 
ATOM     28  F   UNL     1      -0.152  12.648  21.324  0.00  0.00    +0.000 F 
ATOM     29  F   UNL     1      -1.857  11.712  20.350  0.00  0.00    +0.000 F 
ENDBRANCH  23  26
ENDBRANCH  18  20
ENDBRANCH   1  17
TORSDOF 4
ENDMDL
MODEL 2
REMARK VINA RESULT:      -7.8      0.200      1.199
REMARK  Name = 
REMARK  4 active torsions:
REMARK  status: ('A' for Active; 'I' for Inactive)
REMARK    1  A    between atoms: C_2  and  C_14
REMARK    2  A    between atoms: N_3  and  C_4
REMARK    3  A    between atoms: C_7  and  C_8
REMARK    4  A    between atoms: N_18  and  C_19
REMARK                            x       y       z     vdW  Elec       q    Type
REMARK                         _______ _______ _______ _____ _____    ______ ____
ROOT
ATOM      1  C   UNL     1       2.853   4.604  20.123  0.00  0.00    +0.000 A 
ATOM      2  C   UNL     1       3.009   3.445  20.863  0.00  0.00    +0.000 A 
ATOM      3  S   UNL     1       4.281   2.504  20.222  0.00  0.00    +0.000 S 
ATOM      4  C   UNL     1       4.645   3.771  19.113  0.00  0.00    +0.000 A 
ATOM      5  N   UNL     1       5.761   3.691  18.353  0.00  0.00    +0.000 N 
ATOM      6  N   UNL     1       3.781   4.764  19.098  0.00  0.00    +0.000 NA
ATOM      7  H   UNL     1       5.885   2.833  17.826  0.00  0.00    +0.000 HD
ENDROOT
BRANCH   5   8
ATOM      8  C   UNL     1       6.447   4.810  17.819  0.00  0.00    +0.000 A 
ATOM      9  C   UNL     1       7.252   5.675  18.589  0.00  0.00    +0.000 A 
ATOM     10 CL   UNL     1       7.702   5.374  20.233  0.00  0.00    +0.000 Cl
ATOM     11  C   UNL     1       7.823   6.788  17.977  0.00  0.00    +0.000 A 
ATOM     12  N   UNL     1       7.679   7.095  16.668  0.00  0.00    +0.000 NA
ATOM     13  C   UNL     1       6.938   6.238  15.932  0.00  0.00    +0.000 A 
ATOM     14  C   UNL     1       6.315   5.109  16.451  0.00  0.00    +0.000 A 
ATOM     15 CL   UNL     1       5.399   4.097  15.392  0.00  0.00    +0.000 Cl
ENDBRANCH   5   8
BRANCH   1  17
ATOM     16  O   UNL     1       0.654   5.241  20.585  0.00  0.00    +0.000 OA
ATOM     17  C   UNL     1       1.812   5.597  20.406  0.00  0.00    +0.000 C 
ATOM     18  N   UNL     1       2.279   6.900  20.402  0.00  0.00    +0.000 N 
ATOM     19  H   UNL     1       3.251   7.007  20.126  0.00  0.00    +0.000 HD
BRANCH  18  20
ATOM     20  C   UNL     1       1.517   8.057  20.670  0.00  0.00    +0.000 A 
ATOM     21  C   UNL     1       1.108   8.940  19.666  0.00  0.00    +0.000 A 
ATOM     22  C   UNL     1       0.363  10.081  19.969  0.00  0.00    +0.000 A 
ATOM     23  C   UNL     1       0.001  10.369  21.288  0.00  0.00    +0.000 A 
ATOM     24  C   UNL     1       0.403   9.482  22.298  0.00  0.00    +0.000 A 
ATOM     25  C   UNL     1       1.145   8.330  21.988  0.00  0.00    +0.000 A 
BRANCH  23  26
ATOM     26  C   UNL     1      -0.813  11.598  21.608  0.00  0.00    +0.000 C 
ATOM     27  F   UNL     1      -1.713  11.925  20.637  0.00  0.00    +0.000 F 
ATOM     28  F   UNL     1      -1.538  11.458  22.753  0.00  0.00    +0.000 F 
ATOM     29  F   UNL     1      -0.042  12.707  21.786  0.00  0.00    +0.000 F 
ENDBRANCH  23  26
ENDBRANCH  18  20
ENDBRANCH   1  17
TORSDOF 4
ENDMDL
MODEL 3
REMARK VINA RESULT:      -7.4      5.231      7.557
REMARK  Name = 
REMARK  4 active torsions:
REMARK  status: ('A' for Active; 'I' for Inactive)
REMARK    1  A    between atoms: C_2  and  C_14
REMARK    2  A    between atoms: N_3  and  C_4
REMARK    3  A    between atoms: C_7  and  C_8
REMARK    4  A    between atoms: N_18  and  C_19
REMARK                            x       y       z     vdW  Elec       q    Type
REMARK                         _______ _______ _______ _____ _____    ______ ____
ROOT
ATOM      1  C   UNL     1       6.725   5.978  17.529  0.00  0.00    +0.000 A 
ATOM      2  C   UNL     1       6.611   5.873  16.154  0.00  0.00    +0.000 A 
ATOM      3  S   UNL     1       5.536   4.612  15.747  0.00  0.00    +0.000 S 
ATOM      4  C   UNL     1       5.167   4.401  17.417  0.00  0.00    +0.000 A 
ATOM      5  N   UNL     1       4.165   3.568  17.778  0.00  0.00    +0.000 N 
ATOM      6  N   UNL     1       5.913   5.103  18.245  0.00  0.00    +0.000 NA
ATOM      7  H   UNL     1       4.199   2.630  17.393  0.00  0.00    +0.000 HD
ENDROOT
BRANCH   5   8
ATOM      8  C   UNL     1       3.427   3.680  18.983  0.00  0.00    +0.000 A 
ATOM      9  C   UNL     1       3.573   2.799  20.074  0.00  0.00    +0.000 A 
ATOM     10 CL   UNL     1       4.818   1.603  20.195  0.00  0.00    +0.000 Cl
ATOM     11  C   UNL     1       2.745   2.957  21.183  0.00  0.00    +0.000 A 
ATOM     12  N   UNL     1       1.809   3.925  21.303  0.00  0.00    +0.000 NA
ATOM     13  C   UNL     1       1.706   4.787  20.268  0.00  0.00    +0.000 A 
ATOM     14  C   UNL     1       2.474   4.706  19.113  0.00  0.00    +0.000 A 
ATOM     15 CL   UNL     1       2.239   5.880  17.867  0.00  0.00    +0.000 Cl
ENDBRANCH   5   8
BRANCH   1  17
ATOM     16  O   UNL     1       8.350   6.587  19.093  0.00  0.00    +0.000 OA
ATOM     17  C   UNL     1       7.610   6.947  18.186  0.00  0.00    +0.000 C 
ATOM     18  N   UNL     1       7.472   8.235  17.700  0.00  0.00    +0.000 N 
ATOM     19  H   UNL     1       6.728   8.360  17.019  0.00  0.00    +0.000 HD
BRANCH  18  20
ATOM     20  C   UNL     1       8.208   9.364  18.118  0.00  0.00    +0.000 A 
ATOM     21  C   UNL     1       9.070   9.338  19.218  0.00  0.00    +0.000 A 
ATOM     22  C   UNL     1       9.776  10.478  19.608  0.00  0.00    +0.000 A 
ATOM     23  C   UNL     1       9.643  11.677  18.903  0.00  0.00    +0.000 A 
ATOM     24  C   UNL     1       8.784  11.706  17.793  0.00  0.00    +0.000 A 
ATOM     25  C   UNL     1       8.083  10.554  17.398  0.00  0.00    +0.000 A 
BRANCH  23  26
ATOM     26  C   UNL     1      10.416  12.903  19.323  0.00  0.00    +0.000 C 
ATOM     27  F   UNL     1      10.609  12.990  20.670  0.00  0.00    +0.000 F 
ATOM     28  F   UNL     1      11.659  12.949  18.768  0.00  0.00    +0.000 F 
ATOM     29  F   UNL     1       9.800  14.062  18.961  0.00  0.00    +0.000 F 
ENDBRANCH  23  26
ENDBRANCH  18  20
ENDBRANCH   1  17
TORSDOF 4
ENDMDL
MODEL 4
REMARK VINA RESULT:      -7.3      0.180      1.896
REMARK  Name = 
REMARK  4 active torsions:
REMARK  status: ('A' for Active; 'I' for Inactive)
REMARK    1  A    between atoms: C_2  and  C_14
REMARK    2  A    between atoms: N_3  and  C_4
REMARK    3  A    between atoms: C_7  and  C_8
REMARK    4  A    between atoms: N_18  and  C_19
REMARK                            x       y       z     vdW  Elec       q    Type
REMARK                         _______ _______ _______ _____ _____    ______ ____
ROOT
ATOM      1  C   UNL     1       2.835   4.535  20.082  0.00  0.00    +0.000 A 
ATOM      2  C   UNL     1       3.042   3.394  20.838  0.00  0.00    +0.000 A 
ATOM      3  S   UNL     1       4.304   2.462  20.164  0.00  0.00    +0.000 S 
ATOM      4  C   UNL     1       4.600   3.712  19.016  0.00  0.00    +0.000 A 
ATOM      5  N   UNL     1       5.686   3.636  18.213  0.00  0.00    +0.000 N 
ATOM      6  N   UNL     1       3.718   4.690  19.016  0.00  0.00    +0.000 NA
ATOM      7  H   UNL     1       5.804   2.769  17.698  0.00  0.00    +0.000 HD
ENDROOT
BRANCH   5   8
ATOM      8  C   UNL     1       6.329   4.755  17.630  0.00  0.00    +0.000 A 
ATOM      9  C   UNL     1       6.257   5.072  16.257  0.00  0.00    +0.000 A 
ATOM     10 CL   UNL     1       5.201   4.284  15.134  0.00  0.00    +0.000 Cl
ATOM     11  C   UNL     1       6.988   6.155  15.776  0.00  0.00    +0.000 A 
ATOM     12  N   UNL     1       7.760   6.955  16.545  0.00  0.00    +0.000 NA
ATOM     13  C   UNL     1       7.789   6.666  17.865  0.00  0.00    +0.000 A 
ATOM     14  C   UNL     1       7.109   5.600  18.441  0.00  0.00    +0.000 A 
ATOM     15 CL   UNL     1       7.234   5.348  20.145  0.00  0.00    +0.000 Cl
ENDBRANCH   5   8
BRANCH   1  17
ATOM     16  O   UNL     1       0.641   5.146  20.597  0.00  0.00    +0.000 OA
ATOM     17  C   UNL     1       1.789   5.516  20.387  0.00  0.00    +0.000 C 
ATOM     18  N   UNL     1       2.239   6.825  20.365  0.00  0.00    +0.000 N 
ATOM     19  H   UNL     1       3.202   6.943  20.064  0.00  0.00    +0.000 HD
BRANCH  18  20
ATOM     20  C   UNL     1       1.469   7.973  20.648  0.00  0.00    +0.000 A 
ATOM     21  C   UNL     1       0.954   8.243  21.919  0.00  0.00    +0.000 A 
ATOM     22  C   UNL     1       0.188   9.385  22.160  0.00  0.00    +0.000 A 
ATOM     23  C   UNL     1      -0.080  10.294  21.133  0.00  0.00    +0.000 A 
ATOM     24  C   UNL     1       0.440  10.031  19.856  0.00  0.00    +0.000 A 
ATOM     25  C   UNL     1       1.218   8.886  19.621  0.00  0.00    +0.000 A 
BRANCH  23  26
ATOM     26  C   UNL     1      -0.901  11.532  21.401  0.00  0.00    +0.000 C 
ATOM     27  F   UNL     1      -0.153  12.664  21.532  0.00  0.00    +0.000 F 
ATOM     28  F   UNL     1      -1.792  11.791  20.404  0.00  0.00    +0.000 F 
ATOM     29  F   UNL     1      -1.635  11.438  22.545  0.00  0.00    +0.000 F 
ENDBRANCH  23  26
ENDBRANCH  18  20
ENDBRANCH   1  17
TORSDOF 4
ENDMDL
MODEL 5
REMARK VINA RESULT:      -7.3      5.222      7.733
REMARK  Name = 
REMARK  4 active torsions:
REMARK  status: ('A' for Active; 'I' for Inactive)
REMARK    1  A    between atoms: C_2  and  C_14
REMARK    2  A    between atoms: N_3  and  C_4
REMARK    3  A    between atoms: C_7  and  C_8
REMARK    4  A    between atoms: N_18  and  C_19
REMARK                            x       y       z     vdW  Elec       q    Type
REMARK                         _______ _______ _______ _____ _____    ______ ____
ROOT
ATOM      1  C   UNL     1       6.692   6.190  17.213  0.00  0.00    +0.000 A 
ATOM      2  C   UNL     1       6.639   6.166  15.831  0.00  0.00    +0.000 A 
ATOM      3  S   UNL     1       5.551   4.960  15.305  0.00  0.00    +0.000 S 
ATOM      4  C   UNL     1       5.100   4.667  16.942  0.00  0.00    +0.000 A 
ATOM      5  N   UNL     1       4.061   3.845  17.210  0.00  0.00    +0.000 N 
ATOM      6  N   UNL     1       5.825   5.300  17.841  0.00  0.00    +0.000 NA
ATOM      7  H   UNL     1       4.088   2.928  16.774  0.00  0.00    +0.000 HD
ENDROOT
BRANCH   5   8
ATOM      8  C   UNL     1       3.272   3.910  18.385  0.00  0.00    +0.000 A 
ATOM      9  C   UNL     1       2.675   5.095  18.862  0.00  0.00    +0.000 A 
ATOM     10 CL   UNL     1       2.626   6.581  17.975  0.00  0.00    +0.000 Cl
ATOM     11  C   UNL     1       1.979   5.061  20.068  0.00  0.00    +0.000 A 
ATOM     12  N   UNL     1       1.811   3.950  20.819  0.00  0.00    +0.000 NA
ATOM     13  C   UNL     1       2.353   2.812  20.332  0.00  0.00    +0.000 A 
ATOM     14  C   UNL     1       3.077   2.744  19.148  0.00  0.00    +0.000 A 
ATOM     15 CL   UNL     1       3.713   1.220  18.642  0.00  0.00    +0.000 Cl
ENDBRANCH   5   8
BRANCH   1  17
ATOM     16  O   UNL     1       8.243   6.668  18.893  0.00  0.00    +0.000 OA
ATOM     17  C   UNL     1       7.570   7.095  17.963  0.00  0.00    +0.000 C 
ATOM     18  N   UNL     1       7.506   8.407  17.531  0.00  0.00    +0.000 N 
ATOM     19  H   UNL     1       6.808   8.590  16.815  0.00  0.00    +0.000 HD
BRANCH  18  20
ATOM     20  C   UNL     1       8.256   9.488  18.041  0.00  0.00    +0.000 A 
ATOM     21  C   UNL     1       8.269  10.749  17.437  0.00  0.00    +0.000 A 
ATOM     22  C   UNL     1       9.030  11.794  17.965  0.00  0.00    +0.000 A 
ATOM     23  C   UNL     1       9.799  11.606  19.116  0.00  0.00    +0.000 A 
ATOM     24  C   UNL     1       9.785  10.344  19.730  0.00  0.00    +0.000 A 
ATOM     25  C   UNL     1       9.010   9.299  19.201  0.00  0.00    +0.000 A 
BRANCH  23  26
ATOM     26  C   UNL     1      10.614  12.741  19.687  0.00  0.00    +0.000 C 
ATOM     27  F   UNL     1      10.968  13.677  18.761  0.00  0.00    +0.000 F 
ATOM     28  F   UNL     1       9.947  13.420  20.662  0.00  0.00    +0.000 F 
ATOM     29  F   UNL     1      11.779  12.320  20.253  0.00  0.00    +0.000 F 
ENDBRANCH  23  26
ENDBRANCH  18  20
ENDBRANCH   1  17
TORSDOF 4
ENDMDL
MODEL 6
REMARK VINA RESULT:      -7.2      0.235      2.128
REMARK  Name = 
REMARK  4 active torsions:
REMARK  status: ('A' for Active; 'I' for Inactive)
REMARK    1  A    between atoms: C_2  and  C_14
REMARK    2  A    between atoms: N_3  and  C_4
REMARK    3  A    between atoms: C_7  and  C_8
REMARK    4  A    between atoms: N_18  and  C_19
REMARK                            x       y       z     vdW  Elec       q    Type
REMARK                         _______ _______ _______ _____ _____    ______ ____
ROOT
ATOM      1  C   UNL     1       2.822   4.570  20.082  0.00  0.00    +0.000 A 
ATOM      2  C   UNL     1       3.020   3.437  20.852  0.00  0.00    +0.000 A 
ATOM      3  S   UNL     1       4.276   2.489  20.193  0.00  0.00    +0.000 S 
ATOM      4  C   UNL     1       4.583   3.723  19.031  0.00  0.00    +0.000 A 
ATOM      5  N   UNL     1       5.670   3.630  18.231  0.00  0.00    +0.000 N 
ATOM      6  N   UNL     1       3.707   4.706  19.017  0.00  0.00    +0.000 NA
ATOM      7  H   UNL     1       5.784   2.756  17.726  0.00  0.00    +0.000 HD
ENDROOT
BRANCH   5   8
ATOM      8  C   UNL     1       6.322   4.738  17.635  0.00  0.00    +0.000 A 
ATOM      9  C   UNL     1       6.253   5.041  16.260  0.00  0.00    +0.000 A 
ATOM     10 CL   UNL     1       5.192   4.248  15.145  0.00  0.00    +0.000 Cl
ATOM     11  C   UNL     1       6.992   6.113  15.768  0.00  0.00    +0.000 A 
ATOM     12  N   UNL     1       7.769   6.916  16.528  0.00  0.00    +0.000 NA
ATOM     13  C   UNL     1       7.796   6.641  17.851  0.00  0.00    +0.000 A 
ATOM     14  C   UNL     1       7.107   5.586  18.438  0.00  0.00    +0.000 A 
ATOM     15 CL   UNL     1       7.230   5.352  20.145  0.00  0.00    +0.000 Cl
ENDBRANCH   5   8
BRANCH   1  17
ATOM     16  O   UNL     1       0.628   5.202  20.574  0.00  0.00    +0.000 OA
ATOM     17  C   UNL     1       1.781   5.561  20.373  0.00  0.00    +0.000 C 
ATOM     18  N   UNL     1       2.242   6.866  20.351  0.00  0.00    +0.000 N 
ATOM     19  H   UNL     1       3.210   6.974  20.059  0.00  0.00    +0.000 HD
BRANCH  18  20
ATOM     20  C   UNL     1       1.480   8.022  20.621  0.00  0.00    +0.000 A 
ATOM     21  C   UNL     1       1.127   8.942  19.630  0.00  0.00    +0.000 A 
ATOM     22  C   UNL     1       0.379  10.080  19.935  0.00  0.00    +0.000 A 
ATOM     23  C   UNL     1      -0.042  10.328  21.245  0.00  0.00    +0.000 A 
ATOM     24  C   UNL     1       0.305   9.405  22.243  0.00  0.00    +0.000 A 
ATOM     25  C   UNL     1       1.049   8.255  21.929  0.00  0.00    +0.000 A 
BRANCH  23  26
ATOM     26  C   UNL     1      -0.857  11.556  21.567  0.00  0.00    +0.000 C 
ATOM     27  F   UNL     1      -1.736  11.901  20.584  0.00  0.00    +0.000 F 
ATOM     28  F   UNL     1      -1.606  11.401  22.695  0.00  0.00    +0.000 F 
ATOM     29  F   UNL     1      -0.086  12.659  21.778  0.00  0.00    +0.000 F 
ENDBRANCH  23  26
ENDBRANCH  18  20
ENDBRANCH   1  17
TORSDOF 4
ENDMDL
MODEL 7
REMARK VINA RESULT:      -7.2      5.201      7.744
REMARK  Name = 
REMARK  4 active torsions:
REMARK  status: ('A' for Active; 'I' for Inactive)
REMARK    1  A    between atoms: C_2  and  C_14
REMARK    2  A    between atoms: N_3  and  C_4
REMARK    3  A    between atoms: C_7  and  C_8
REMARK    4  A    between atoms: N_18  and  C_19
REMARK                            x       y       z     vdW  Elec       q    Type
REMARK                         _______ _______ _______ _____ _____    ______ ____
ROOT
ATOM      1  C   UNL     1       6.863   6.363  17.450  0.00  0.00    +0.000 A 
ATOM      2  C   UNL     1       6.812   6.259  16.071  0.00  0.00    +0.000 A 
ATOM      3  S   UNL     1       5.693   5.054  15.612  0.00  0.00    +0.000 S 
ATOM      4  C   UNL     1       5.231   4.870  17.261  0.00  0.00    +0.000 A 
ATOM      5  N   UNL     1       4.169   4.092  17.573  0.00  0.00    +0.000 N 
ATOM      6  N   UNL     1       5.970   5.534  18.125  0.00  0.00    +0.000 NA
ATOM      7  H   UNL     1       4.173   3.152  17.191  0.00  0.00    +0.000 HD
ENDROOT
BRANCH   5   8
ATOM      8  C   UNL     1       3.379   4.248  18.739  0.00  0.00    +0.000 A 
ATOM      9  C   UNL     1       2.711   5.443  19.079  0.00  0.00    +0.000 A 
ATOM     10 CL   UNL     1       2.571   6.808  18.024  0.00  0.00    +0.000 Cl
ATOM     11  C   UNL     1       2.021   5.509  20.286  0.00  0.00    +0.000 A 
ATOM     12  N   UNL     1       1.922   4.486  21.164  0.00  0.00    +0.000 NA
ATOM     13  C   UNL     1       2.532   3.334  20.809  0.00  0.00    +0.000 A 
ATOM     14  C   UNL     1       3.257   3.170  19.636  0.00  0.00    +0.000 A 
ATOM     15 CL   UNL     1       3.985   1.639  19.306  0.00  0.00    +0.000 Cl
ENDBRANCH   5   8
BRANCH   1  17
ATOM     16  O   UNL     1       8.500   6.873  19.035  0.00  0.00    +0.000 OA
ATOM     17  C   UNL     1       7.763   7.286  18.148  0.00  0.00    +0.000 C 
ATOM     18  N   UNL     1       7.644   8.598  17.724  0.00  0.00    +0.000 N 
ATOM     19  H   UNL     1       6.900   8.766  17.052  0.00  0.00    +0.000 HD
BRANCH  18  20
ATOM     20  C   UNL     1       8.398   9.694  18.192  0.00  0.00    +0.000 A 
ATOM     21  C   UNL     1       9.213   9.621  19.326  0.00  0.00    +0.000 A 
ATOM     22  C   UNL     1       9.939  10.730  19.765  0.00  0.00    +0.000 A 
ATOM     23  C   UNL     1       9.873  11.945  19.077  0.00  0.00    +0.000 A 
ATOM     24  C   UNL     1       9.061  12.022  17.935  0.00  0.00    +0.000 A 
ATOM     25  C   UNL     1       8.340  10.901  17.491  0.00  0.00    +0.000 A 
BRANCH  23  26
ATOM     26  C   UNL     1      10.666  13.138  19.552  0.00  0.00    +0.000 C 
ATOM     27  F   UNL     1      12.011  12.917  19.592  0.00  0.00    +0.000 F 
ATOM     28  F   UNL     1      10.495  14.227  18.753  0.00  0.00    +0.000 F 
ATOM     29  F   UNL     1      10.318  13.535  20.807  0.00  0.00    +0.000 F 
ENDBRANCH  23  26
ENDBRANCH  18  20
ENDBRANCH   1  17
TORSDOF 4
ENDMDL
MODEL 8
REMARK VINA RESULT:      -7.2      5.274      7.725
REMARK  Name = 
REMARK  4 active torsions:
REMARK  status: ('A' for Active; 'I' for Inactive)
REMARK    1  A    between atoms: C_2  and  C_14
REMARK    2  A    between atoms: N_3  and  C_4
REMARK    3  A    between atoms: C_7  and  C_8
REMARK    4  A    between atoms: N_18  and  C_19
REMARK                            x       y       z     vdW  Elec       q    Type
REMARK                         _______ _______ _______ _____ _____    ______ ____
ROOT
ATOM      1  C   UNL     1       6.741   6.262  17.441  0.00  0.00    +0.000 A 
ATOM      2  C   UNL     1       6.588   6.199  16.067  0.00  0.00    +0.000 A 
ATOM      3  S   UNL     1       5.478   4.970  15.653  0.00  0.00    +0.000 S 
ATOM      4  C   UNL     1       5.150   4.718  17.326  0.00  0.00    +0.000 A 
ATOM      5  N   UNL     1       4.141   3.894  17.690  0.00  0.00    +0.000 N 
ATOM      6  N   UNL     1       5.931   5.382  18.153  0.00  0.00    +0.000 NA
ATOM      7  H   UNL     1       4.147   2.967  17.278  0.00  0.00    +0.000 HD
ENDROOT
BRANCH   5   8
ATOM      8  C   UNL     1       3.439   3.985  18.918  0.00  0.00    +0.000 A 
ATOM      9  C   UNL     1       3.528   3.022  19.944  0.00  0.00    +0.000 A 
ATOM     10 CL   UNL     1       4.669   1.719  19.954  0.00  0.00    +0.000 Cl
ATOM     11  C   UNL     1       2.738   3.172  21.080  0.00  0.00    +0.000 A 
ATOM     12  N   UNL     1       1.891   4.205  21.288  0.00  0.00    +0.000 NA
ATOM     13  C   UNL     1       1.843   5.142  20.316  0.00  0.00    +0.000 A 
ATOM     14  C   UNL     1       2.579   5.076  19.139  0.00  0.00    +0.000 A 
ATOM     15 CL   UNL     1       2.422   6.348  17.981  0.00  0.00    +0.000 Cl
ENDBRANCH   5   8
BRANCH   1  17
ATOM     16  O   UNL     1       8.440   6.789  18.953  0.00  0.00    +0.000 OA
ATOM     17  C   UNL     1       7.661   7.194  18.100  0.00  0.00    +0.000 C 
ATOM     18  N   UNL     1       7.508   8.505  17.684  0.00  0.00    +0.000 N 
ATOM     19  H   UNL     1       6.734   8.666  17.045  0.00  0.00    +0.000 HD
BRANCH  18  20
ATOM     20  C   UNL     1       8.270   9.610  18.119  0.00  0.00    +0.000 A 
ATOM     21  C   UNL     1       8.255  10.843  17.462  0.00  0.00    +0.000 A 
ATOM     22  C   UNL     1       9.030  11.913  17.915  0.00  0.00    +0.000 A 
ATOM     23  C   UNL     1       9.840  11.778  19.046  0.00  0.00    +0.000 A 
ATOM     24  C   UNL     1       9.854  10.544  19.714  0.00  0.00    +0.000 A 
ATOM     25  C   UNL     1       9.066   9.473  19.259  0.00  0.00    +0.000 A 
BRANCH  23  26
ATOM     26  C   UNL     1      10.668  12.940  19.537  0.00  0.00    +0.000 C 
ATOM     27  F   UNL     1      11.995  12.828  19.242  0.00  0.00    +0.000 F 
ATOM     28  F   UNL     1      10.269  14.126  19.000  0.00  0.00    +0.000 F 
ATOM     29  F   UNL     1      10.602  13.099  20.888  0.00  0.00    +0.000 F 
ENDBRANCH  23  26
ENDBRANCH  18  20
ENDBRANCH   1  17
TORSDOF 4
ENDMDL
MODEL 9
REMARK VINA RESULT:      -7.1      6.298      9.562
REMARK  Name = 
REMARK  4 active torsions:
REMARK  status: ('A' for Active; 'I' for Inactive)
REMARK    1  A    between atoms: C_2  and  C_14
REMARK    2  A    between atoms: N_3  and  C_4
REMARK    3  A    between atoms: C_7  and  C_8
REMARK    4  A    between atoms: N_18  and  C_19
REMARK                            x       y       z     vdW  Elec       q    Type
REMARK                         _______ _______ _______ _____ _____    ______ ____
ROOT
ATOM      1  C   UNL     1       0.641  10.394  19.711  0.00  0.00    +0.000 A 
ATOM      2  C   UNL     1       1.384  11.530  19.983  0.00  0.00    +0.000 A 
ATOM      3  S   UNL     1       0.718  12.876  19.172  0.00  0.00    +0.000 S 
ATOM      4  C   UNL     1      -0.601  11.898  18.652  0.00  0.00    +0.000 A 
ATOM      5  N   UNL     1      -1.656  12.476  18.033  0.00  0.00    +0.000 N 
ATOM      6  N   UNL     1      -0.481  10.614  18.917  0.00  0.00    +0.000 NA
ATOM      7  H   UNL     1      -1.440  13.074  17.242  0.00  0.00    +0.000 HD
ENDROOT
BRANCH   5   8
ATOM      8  C   UNL     1      -2.968  11.942  18.022  0.00  0.00    +0.000 A 
ATOM      9  C   UNL     1      -3.520  11.244  16.928  0.00  0.00    +0.000 A 
ATOM     10 CL   UNL     1      -2.613  10.743  15.541  0.00  0.00    +0.000 Cl
ATOM     11  C   UNL     1      -4.845  10.824  16.997  0.00  0.00    +0.000 A 
ATOM     12  N   UNL     1      -5.653  11.019  18.063  0.00  0.00    +0.000 NA
ATOM     13  C   UNL     1      -5.101  11.653  19.121  0.00  0.00    +0.000 A 
ATOM     14  C   UNL     1      -3.794  12.125  19.146  0.00  0.00    +0.000 A 
ATOM     15 CL   UNL     1      -3.217  12.918  20.569  0.00  0.00    +0.000 Cl
ENDBRANCH   5   8
BRANCH   1  17
ATOM     16  O   UNL     1       0.686   8.760  21.379  0.00  0.00    +0.000 OA
ATOM     17  C   UNL     1       0.988   9.068  20.233  0.00  0.00    +0.000 C 
ATOM     18  N   UNL     1       1.688   8.287  19.331  0.00  0.00    +0.000 N 
ATOM     19  H   UNL     1       1.941   8.754  18.464  0.00  0.00    +0.000 HD
BRANCH  18  20
ATOM     20  C   UNL     1       2.127   6.964  19.542  0.00  0.00    +0.000 A 
ATOM     21  C   UNL     1       1.669   6.177  20.603  0.00  0.00    +0.000 A 
ATOM     22  C   UNL     1       2.133   4.873  20.788  0.00  0.00    +0.000 A 
ATOM     23  C   UNL     1       3.067   4.316  19.910  0.00  0.00    +0.000 A 
ATOM     24  C   UNL     1       3.525   5.100  18.839  0.00  0.00    +0.000 A 
ATOM     25  C   UNL     1       3.049   6.408  18.652  0.00  0.00    +0.000 A 
BRANCH  23  26
ATOM     26  C   UNL     1       3.558   2.903  20.108  0.00  0.00    +0.000 C 
ATOM     27  F   UNL     1       2.960   1.997  19.284  0.00  0.00    +0.000 F 
ATOM     28  F   UNL     1       4.896   2.781  19.883  0.00  0.00    +0.000 F 
ATOM     29  F   UNL     1       3.348   2.447  21.374  0.00  0.00    +0.000 F 
ENDBRANCH  23  26
ENDBRANCH  18  20
ENDBRANCH   1  17
TORSDOF 4
ENDMDL
