MODEL 1
REMARK VINA RESULT:      -6.8      0.000      0.000
REMARK  Name = 
REMARK  10 active torsions:
REMARK  status: ('A' for Active; 'I' for Inactive)
REMARK    1  A    between atoms: C_1  and  C_2
REMARK    2  A    between atoms: C_2  and  O_3
REMARK    3  A    between atoms: O_3  and  C_4
REMARK    4  A    between atoms: C_4  and  C_6
REMARK    5  A    between atoms: C_6  and  C_18
REMARK    6  A    between atoms: C_7  and  C_8
REMARK    7  A    between atoms: C_11  and  N_12
REMARK    8  A    between atoms: N_12  and  C_13
REMARK    9  A    between atoms: N_12  and  C_14
REMARK   10  A    between atoms: C_18  and  C_19
REMARK                            x       y       z     vdW  Elec       q    Type
REMARK                         _______ _______ _______ _____ _____    ______ ____
ROOT
ATOM      1  C   UNL     1       6.512   4.570  15.606  0.00  0.00    +0.000 C 
ATOM      2  C   UNL     1       5.224   4.190  15.773  0.00  0.00    +0.000 C 
ENDROOT
BRANCH   2   3
ATOM      3  C   UNL     1       4.434   4.180  16.978  0.00  0.00    +0.000 C 
ATOM      4  C   UNL     1       4.345   3.218  17.890  0.00  0.00    +0.000 C 
ATOM      5  C   UNL     1       3.320   3.646  18.799  0.00  0.00    +0.000 C 
ATOM      6  C   UNL     1       2.746   2.807  19.667  0.00  0.00    +0.000 C 
ATOM      7  C   UNL     1       3.035   5.067  18.438  0.00  0.00    +0.000 C 
ATOM      8  O   UNL     1       2.391   5.891  19.059  0.00  0.00    +0.000 OA
ATOM      9  O   UNL     1       3.700   5.339  17.251  0.00  0.00    +0.000 OA
BRANCH   6  10
ATOM     10  N   UNL     1       1.656   2.864  20.535  0.00  0.00    +0.000 N 
ATOM     11  C   UNL     1       1.723   2.603  21.967  0.00  0.00    +0.000 C 
ATOM     12  C   UNL     1       0.313   3.188  20.050  0.00  0.00    +0.000 C 
ENDBRANCH   6  10
ENDBRANCH   2   3
BRANCH   1  13
ATOM     13  C   UNL     1       7.378   5.045  16.745  0.00  0.00    +0.000 C 
ATOM     14  C   UNL     1       7.291   6.477  17.207  0.00  0.00    +0.000 C 
ATOM     15  O   UNL     1       8.161   4.294  17.330  0.00  0.00    +0.000 OA
ENDBRANCH   1  13
BRANCH   1  16
ATOM     16  C   UNL     1       7.059   4.612  14.221  0.00  0.00    +0.000 C 
ATOM     17  O   UNL     1       7.748   5.534  13.809  0.00  0.00    +0.000 OA
BRANCH  16  18
ATOM     18  O   UNL     1       6.624   3.572  13.462  0.00  0.00    +0.000 OA
BRANCH  18  20
ATOM     19  C   UNL     1       5.043   3.201  11.705  0.00  0.00    +0.000 C 
ATOM     20  C   UNL     1       6.342   3.889  12.089  0.00  0.00    +0.000 C 
ENDBRANCH  18  20
ENDBRANCH  16  18
ENDBRANCH   1  16
TORSDOF 6
ENDMDL
MODEL 2
REMARK VINA RESULT:      -6.6      0.643      1.064
REMARK  Name = 
REMARK  10 active torsions:
REMARK  status: ('A' for Active; 'I' for Inactive)
REMARK    1  A    between atoms: C_1  and  C_2
REMARK    2  A    between atoms: C_2  and  O_3
REMARK    3  A    between atoms: O_3  and  C_4
REMARK    4  A    between atoms: C_4  and  C_6
REMARK    5  A    between atoms: C_6  and  C_18
REMARK    6  A    between atoms: C_7  and  C_8
REMARK    7  A    between atoms: C_11  and  N_12
REMARK    8  A    between atoms: N_12  and  C_13
REMARK    9  A    between atoms: N_12  and  C_14
REMARK   10  A    between atoms: C_18  and  C_19
REMARK                            x       y       z     vdW  Elec       q    Type
REMARK                         _______ _______ _______ _____ _____    ______ ____
ROOT
ATOM      1  C   UNL     1       6.515   4.700  15.546  0.00  0.00    +0.000 C 
ATOM      2  C   UNL     1       5.295   4.151  15.750  0.00  0.00    +0.000 C 
ENDROOT
BRANCH   2   3
ATOM      3  C   UNL     1       4.488   4.161  16.944  0.00  0.00    +0.000 C 
ATOM      4  C   UNL     1       4.371   3.206  17.860  0.00  0.00    +0.000 C 
ATOM      5  C   UNL     1       3.340   3.656  18.751  0.00  0.00    +0.000 C 
ATOM      6  C   UNL     1       2.740   2.832  19.616  0.00  0.00    +0.000 C 
ATOM      7  C   UNL     1       3.082   5.079  18.377  0.00  0.00    +0.000 C 
ATOM      8  O   UNL     1       2.442   5.917  18.984  0.00  0.00    +0.000 OA
ATOM      9  O   UNL     1       3.768   5.333  17.198  0.00  0.00    +0.000 OA
BRANCH   6  10
ATOM     10  N   UNL     1       1.639   2.911  20.467  0.00  0.00    +0.000 N 
ATOM     11  C   UNL     1       0.296   3.297  20.052  0.00  0.00    +0.000 C 
ATOM     12  C   UNL     1       1.759   2.614  21.896  0.00  0.00    +0.000 C 
ENDBRANCH   6  10
ENDBRANCH   2   3
BRANCH   1  13
ATOM     13  C   UNL     1       7.273   5.430  16.625  0.00  0.00    +0.000 C 
ATOM     14  C   UNL     1       7.767   4.680  17.835  0.00  0.00    +0.000 C 
ATOM     15  O   UNL     1       7.517   6.637  16.552  0.00  0.00    +0.000 OA
ENDBRANCH   1  13
BRANCH   1  16
ATOM     16  C   UNL     1       7.082   4.663  14.169  0.00  0.00    +0.000 C 
ATOM     17  O   UNL     1       7.776   5.562  13.714  0.00  0.00    +0.000 OA
BRANCH  16  18
ATOM     18  O   UNL     1       6.658   3.580  13.464  0.00  0.00    +0.000 OA
BRANCH  18  20
ATOM     19  C   UNL     1       5.021   3.214  11.759  0.00  0.00    +0.000 C 
ATOM     20  C   UNL     1       6.377   3.822  12.076  0.00  0.00    +0.000 C 
ENDBRANCH  18  20
ENDBRANCH  16  18
ENDBRANCH   1  16
TORSDOF 6
ENDMDL
MODEL 3
REMARK VINA RESULT:      -6.5      2.741      6.894
REMARK  Name = 
REMARK  10 active torsions:
REMARK  status: ('A' for Active; 'I' for Inactive)
REMARK    1  A    between atoms: C_1  and  C_2
REMARK    2  A    between atoms: C_2  and  O_3
REMARK    3  A    between atoms: O_3  and  C_4
REMARK    4  A    between atoms: C_4  and  C_6
REMARK    5  A    between atoms: C_6  and  C_18
REMARK    6  A    between atoms: C_7  and  C_8
REMARK    7  A    between atoms: C_11  and  N_12
REMARK    8  A    between atoms: N_12  and  C_13
REMARK    9  A    between atoms: N_12  and  C_14
REMARK   10  A    between atoms: C_18  and  C_19
REMARK                            x       y       z     vdW  Elec       q    Type
REMARK                         _______ _______ _______ _____ _____    ______ ____
ROOT
ATOM      1  C   UNL     1       3.663   3.372  19.959  0.00  0.00    +0.000 C 
ATOM      2  C   UNL     1       3.927   4.472  19.216  0.00  0.00    +0.000 C 
ENDROOT
BRANCH   2   3
ATOM      3  C   UNL     1       4.803   4.606  18.080  0.00  0.00    +0.000 C 
ATOM      4  C   UNL     1       4.499   5.025  16.857  0.00  0.00    +0.000 C 
ATOM      5  C   UNL     1       5.688   4.827  16.078  0.00  0.00    +0.000 C 
ATOM      6  C   UNL     1       5.673   4.850  14.741  0.00  0.00    +0.000 C 
ATOM      7  C   UNL     1       6.760   4.496  17.063  0.00  0.00    +0.000 C 
ATOM      8  O   UNL     1       7.963   4.448  16.886  0.00  0.00    +0.000 OA
ATOM      9  O   UNL     1       6.151   4.299  18.294  0.00  0.00    +0.000 OA
BRANCH   6  10
ATOM     10  N   UNL     1       6.582   4.546  13.729  0.00  0.00    +0.000 N 
ATOM     11  C   UNL     1       7.832   5.259  13.496  0.00  0.00    +0.000 C 
ATOM     12  C   UNL     1       6.331   3.456  12.784  0.00  0.00    +0.000 C 
ENDBRANCH   6  10
ENDBRANCH   2   3
BRANCH   1  13
ATOM     13  C   UNL     1       4.317   2.038  19.703  0.00  0.00    +0.000 C 
ATOM     14  C   UNL     1       3.871   1.194  18.537  0.00  0.00    +0.000 C 
ATOM     15  O   UNL     1       5.224   1.606  20.418  0.00  0.00    +0.000 OA
ENDBRANCH   1  13
BRANCH   1  16
ATOM     16  C   UNL     1       2.607   3.466  21.006  0.00  0.00    +0.000 C 
ATOM     17  O   UNL     1       2.705   2.922  22.096  0.00  0.00    +0.000 OA
BRANCH  16  18
ATOM     18  O   UNL     1       1.506   4.133  20.570  0.00  0.00    +0.000 OA
BRANCH  18  20
ATOM     19  C   UNL     1       0.661   2.751  18.809  0.00  0.00    +0.000 C 
ATOM     20  C   UNL     1       0.393   3.304  20.198  0.00  0.00    +0.000 C 
ENDBRANCH  18  20
ENDBRANCH  16  18
ENDBRANCH   1  16
TORSDOF 6
ENDMDL
MODEL 4
REMARK VINA RESULT:      -6.5      2.626      7.193
REMARK  Name = 
REMARK  10 active torsions:
REMARK  status: ('A' for Active; 'I' for Inactive)
REMARK    1  A    between atoms: C_1  and  C_2
REMARK    2  A    between atoms: C_2  and  O_3
REMARK    3  A    between atoms: O_3  and  C_4
REMARK    4  A    between atoms: C_4  and  C_6
REMARK    5  A    between atoms: C_6  and  C_18
REMARK    6  A    between atoms: C_7  and  C_8
REMARK    7  A    between atoms: C_11  and  N_12
REMARK    8  A    between atoms: N_12  and  C_13
REMARK    9  A    between atoms: N_12  and  C_14
REMARK   10  A    between atoms: C_18  and  C_19
REMARK                            x       y       z     vdW  Elec       q    Type
REMARK                         _______ _______ _______ _____ _____    ______ ____
ROOT
ATOM      1  C   UNL     1       2.599   4.488  19.017  0.00  0.00    +0.000 C 
ATOM      2  C   UNL     1       3.822   5.061  18.926  0.00  0.00    +0.000 C 
ENDROOT
BRANCH   2   3
ATOM      3  C   UNL     1       4.752   5.033  17.826  0.00  0.00    +0.000 C 
ATOM      4  C   UNL     1       4.573   5.493  16.592  0.00  0.00    +0.000 C 
ATOM      5  C   UNL     1       5.739   5.085  15.860  0.00  0.00    +0.000 C 
ATOM      6  C   UNL     1       5.780   5.104  14.524  0.00  0.00    +0.000 C 
ATOM      7  C   UNL     1       6.697   4.577  16.887  0.00  0.00    +0.000 C 
ATOM      8  O   UNL     1       7.879   4.318  16.757  0.00  0.00    +0.000 OA
ATOM      9  O   UNL     1       6.015   4.496  18.093  0.00  0.00    +0.000 OA
BRANCH   6  10
ATOM     10  N   UNL     1       6.661   4.639  13.548  0.00  0.00    +0.000 N 
ATOM     11  C   UNL     1       6.411   3.491  12.685  0.00  0.00    +0.000 C 
ATOM     12  C   UNL     1       7.954   5.287  13.320  0.00  0.00    +0.000 C 
ENDBRANCH   6  10
ENDBRANCH   2   3
BRANCH   1  13
ATOM     13  C   UNL     1       2.003   3.655  17.912  0.00  0.00    +0.000 C 
ATOM     14  C   UNL     1       2.480   2.242  17.695  0.00  0.00    +0.000 C 
ATOM     15  O   UNL     1       1.117   4.087  17.170  0.00  0.00    +0.000 OA
ENDBRANCH   1  13
BRANCH   1  16
ATOM     16  C   UNL     1       1.773   4.781  20.222  0.00  0.00    +0.000 C 
ATOM     17  O   UNL     1       1.877   5.819  20.860  0.00  0.00    +0.000 OA
BRANCH  16  18
ATOM     18  O   UNL     1       0.981   3.733  20.573  0.00  0.00    +0.000 OA
BRANCH  18  20
ATOM     19  C   UNL     1       2.741   2.396  21.490  0.00  0.00    +0.000 C 
ATOM     20  C   UNL     1       1.385   3.027  21.757  0.00  0.00    +0.000 C 
ENDBRANCH  18  20
ENDBRANCH  16  18
ENDBRANCH   1  16
TORSDOF 6
ENDMDL
MODEL 5
REMARK VINA RESULT:      -6.3      3.996      5.887
REMARK  Name = 
REMARK  10 active torsions:
REMARK  status: ('A' for Active; 'I' for Inactive)
REMARK    1  A    between atoms: C_1  and  C_2
REMARK    2  A    between atoms: C_2  and  O_3
REMARK    3  A    between atoms: O_3  and  C_4
REMARK    4  A    between atoms: C_4  and  C_6
REMARK    5  A    between atoms: C_6  and  C_18
REMARK    6  A    between atoms: C_7  and  C_8
REMARK    7  A    between atoms: C_11  and  N_12
REMARK    8  A    between atoms: N_12  and  C_13
REMARK    9  A    between atoms: N_12  and  C_14
REMARK   10  A    between atoms: C_18  and  C_19
REMARK                            x       y       z     vdW  Elec       q    Type
REMARK                         _______ _______ _______ _____ _____    ______ ____
ROOT
ATOM      1  C   UNL     1       3.157   4.868  17.842  0.00  0.00    +0.000 C 
ATOM      2  C   UNL     1       3.485   6.164  18.058  0.00  0.00    +0.000 C 
ENDROOT
BRANCH   2   3
ATOM      3  C   UNL     1       2.655   7.235  18.547  0.00  0.00    +0.000 C 
ATOM      4  C   UNL     1       2.119   8.236  17.856  0.00  0.00    +0.000 C 
ATOM      5  C   UNL     1       1.517   9.096  18.835  0.00  0.00    +0.000 C 
ATOM      6  C   UNL     1       1.147  10.348  18.547  0.00  0.00    +0.000 C 
ATOM      7  C   UNL     1       1.553   8.330  20.116  0.00  0.00    +0.000 C 
ATOM      8  O   UNL     1       0.979   8.574  21.160  0.00  0.00    +0.000 OA
ATOM      9  O   UNL     1       2.336   7.203  19.908  0.00  0.00    +0.000 OA
BRANCH   6  10
ATOM     10  N   UNL     1       0.703  11.449  19.278  0.00  0.00    +0.000 N 
ATOM     11  C   UNL     1       1.541  12.575  19.672  0.00  0.00    +0.000 C 
ATOM     12  C   UNL     1      -0.685  11.551  19.732  0.00  0.00    +0.000 C 
ENDBRANCH   6  10
ENDBRANCH   2   3
BRANCH   1  13
ATOM     13  C   UNL     1       1.770   4.327  18.074  0.00  0.00    +0.000 C 
ATOM     14  C   UNL     1       1.354   3.893  19.456  0.00  0.00    +0.000 C 
ATOM     15  O   UNL     1       0.943   4.232  17.164  0.00  0.00    +0.000 OA
ENDBRANCH   1  13
BRANCH   1  16
ATOM     16  C   UNL     1       4.242   3.923  17.456  0.00  0.00    +0.000 C 
ATOM     17  O   UNL     1       4.082   2.712  17.413  0.00  0.00    +0.000 OA
BRANCH  16  18
ATOM     18  O   UNL     1       5.431   4.553  17.261  0.00  0.00    +0.000 OA
BRANCH  18  20
ATOM     19  C   UNL     1       5.576   4.866  14.893  0.00  0.00    +0.000 C 
ATOM     20  C   UNL     1       6.160   4.141  16.094  0.00  0.00    +0.000 C 
ENDBRANCH  18  20
ENDBRANCH  16  18
ENDBRANCH   1  16
TORSDOF 6
ENDMDL
MODEL 6
REMARK VINA RESULT:      -6.3      1.636      1.709
REMARK  Name = 
REMARK  10 active torsions:
REMARK  status: ('A' for Active; 'I' for Inactive)
REMARK    1  A    between atoms: C_1  and  C_2
REMARK    2  A    between atoms: C_2  and  O_3
REMARK    3  A    between atoms: O_3  and  C_4
REMARK    4  A    between atoms: C_4  and  C_6
REMARK    5  A    between atoms: C_6  and  C_18
REMARK    6  A    between atoms: C_7  and  C_8
REMARK    7  A    between atoms: C_11  and  N_12
REMARK    8  A    between atoms: N_12  and  C_13
REMARK    9  A    between atoms: N_12  and  C_14
REMARK   10  A    between atoms: C_18  and  C_19
REMARK                            x       y       z     vdW  Elec       q    Type
REMARK                         _______ _______ _______ _____ _____    ______ ____
ROOT
ATOM      1  C   UNL     1       6.316   4.702  15.352  0.00  0.00    +0.000 C 
ATOM      2  C   UNL     1       5.611   3.643  15.814  0.00  0.00    +0.000 C 
ENDROOT
BRANCH   2   3
ATOM      3  C   UNL     1       4.846   3.529  17.030  0.00  0.00    +0.000 C 
ATOM      4  C   UNL     1       3.526   3.549  17.171  0.00  0.00    +0.000 C 
ATOM      5  C   UNL     1       3.292   3.551  18.587  0.00  0.00    +0.000 C 
ATOM      6  C   UNL     1       2.104   3.870  19.110  0.00  0.00    +0.000 C 
ATOM      7  C   UNL     1       4.619   3.269  19.211  0.00  0.00    +0.000 C 
ATOM      8  O   UNL     1       4.866   2.978  20.366  0.00  0.00    +0.000 OA
ATOM      9  O   UNL     1       5.576   3.332  18.207  0.00  0.00    +0.000 OA
BRANCH   6  10
ATOM     10  N   UNL     1       1.613   4.116  20.391  0.00  0.00    +0.000 N 
ATOM     11  C   UNL     1       1.232   3.082  21.346  0.00  0.00    +0.000 C 
ATOM     12  C   UNL     1       1.423   5.481  20.884  0.00  0.00    +0.000 C 
ENDBRANCH   6  10
ENDBRANCH   2   3
BRANCH   1  13
ATOM     13  C   UNL     1       6.435   5.999  16.110  0.00  0.00    +0.000 C 
ATOM     14  C   UNL     1       5.209   6.838  16.359  0.00  0.00    +0.000 C 
ATOM     15  O   UNL     1       7.513   6.403  16.552  0.00  0.00    +0.000 OA
ENDBRANCH   1  13
BRANCH   1  16
ATOM     16  C   UNL     1       6.913   4.608  13.990  0.00  0.00    +0.000 C 
ATOM     17  O   UNL     1       7.568   5.512  13.490  0.00  0.00    +0.000 OA
BRANCH  16  18
ATOM     18  O   UNL     1       6.564   3.461  13.350  0.00  0.00    +0.000 OA
BRANCH  18  20
ATOM     19  C   UNL     1       4.786   3.278  11.760  0.00  0.00    +0.000 C 
ATOM     20  C   UNL     1       6.257   3.605  11.954  0.00  0.00    +0.000 C 
ENDBRANCH  18  20
ENDBRANCH  16  18
ENDBRANCH   1  16
TORSDOF 6
ENDMDL
MODEL 7
REMARK VINA RESULT:      -6.3      2.781      3.554
REMARK  Name = 
REMARK  10 active torsions:
REMARK  status: ('A' for Active; 'I' for Inactive)
REMARK    1  A    between atoms: C_1  and  C_2
REMARK    2  A    between atoms: C_2  and  O_3
REMARK    3  A    between atoms: O_3  and  C_4
REMARK    4  A    between atoms: C_4  and  C_6
REMARK    5  A    between atoms: C_6  and  C_18
REMARK    6  A    between atoms: C_7  and  C_8
REMARK    7  A    between atoms: C_11  and  N_12
REMARK    8  A    between atoms: N_12  and  C_13
REMARK    9  A    between atoms: N_12  and  C_14
REMARK   10  A    between atoms: C_18  and  C_19
REMARK                            x       y       z     vdW  Elec       q    Type
REMARK                         _______ _______ _______ _____ _____    ______ ____
ROOT
ATOM      1  C   UNL     1       5.993   5.055  17.432  0.00  0.00    +0.000 C 
ATOM      2  C   UNL     1       4.652   5.100  17.253  0.00  0.00    +0.000 C 
ENDROOT
BRANCH   2   3
ATOM      3  C   UNL     1       3.654   5.746  18.066  0.00  0.00    +0.000 C 
ATOM      4  C   UNL     1       3.078   6.927  17.871  0.00  0.00    +0.000 C 
ATOM      5  C   UNL     1       2.278   7.160  19.039  0.00  0.00    +0.000 C 
ATOM      6  C   UNL     1       1.793   8.370  19.338  0.00  0.00    +0.000 C 
ATOM      7  C   UNL     1       2.270   5.865  19.783  0.00  0.00    +0.000 C 
ATOM      8  O   UNL     1       1.564   5.532  20.716  0.00  0.00    +0.000 OA
ATOM      9  O   UNL     1       3.199   5.030  19.178  0.00  0.00    +0.000 OA
BRANCH   6  10
ATOM     10  N   UNL     1       1.147   8.942  20.433  0.00  0.00    +0.000 N 
ATOM     11  C   UNL     1      -0.039   9.785  20.348  0.00  0.00    +0.000 C 
ATOM     12  C   UNL     1       1.639   8.740  21.797  0.00  0.00    +0.000 C 
ENDBRANCH   6  10
ENDBRANCH   2   3
BRANCH   1  13
ATOM     13  C   UNL     1       6.682   5.697  18.608  0.00  0.00    +0.000 C 
ATOM     14  C   UNL     1       7.610   6.864  18.390  0.00  0.00    +0.000 C 
ATOM     15  O   UNL     1       6.507   5.305  19.764  0.00  0.00    +0.000 OA
ENDBRANCH   1  13
BRANCH   1  16
ATOM     16  C   UNL     1       6.825   4.430  16.365  0.00  0.00    +0.000 C 
ATOM     17  O   UNL     1       8.040   4.328  16.447  0.00  0.00    +0.000 OA
BRANCH  16  18
ATOM     18  O   UNL     1       6.091   4.086  15.273  0.00  0.00    +0.000 OA
BRANCH  18  20
ATOM     19  C   UNL     1       6.086   3.579  12.935  0.00  0.00    +0.000 C 
ATOM     20  C   UNL     1       6.640   4.498  14.011  0.00  0.00    +0.000 C 
ENDBRANCH  18  20
ENDBRANCH  16  18
ENDBRANCH   1  16
TORSDOF 6
ENDMDL
MODEL 8
REMARK VINA RESULT:      -6.3      4.012      6.074
REMARK  Name = 
REMARK  10 active torsions:
REMARK  status: ('A' for Active; 'I' for Inactive)
REMARK    1  A    between atoms: C_1  and  C_2
REMARK    2  A    between atoms: C_2  and  O_3
REMARK    3  A    between atoms: O_3  and  C_4
REMARK    4  A    between atoms: C_4  and  C_6
REMARK    5  A    between atoms: C_6  and  C_18
REMARK    6  A    between atoms: C_7  and  C_8
REMARK    7  A    between atoms: C_11  and  N_12
REMARK    8  A    between atoms: N_12  and  C_13
REMARK    9  A    between atoms: N_12  and  C_14
REMARK   10  A    between atoms: C_18  and  C_19
REMARK                            x       y       z     vdW  Elec       q    Type
REMARK                         _______ _______ _______ _____ _____    ______ ____
ROOT
ATOM      1  C   UNL     1       3.249   4.792  18.460  0.00  0.00    +0.000 C 
ATOM      2  C   UNL     1       3.539   6.095  18.682  0.00  0.00    +0.000 C 
ENDROOT
BRANCH   2   3
ATOM      3  C   UNL     1       2.639   7.189  18.942  0.00  0.00    +0.000 C 
ATOM      4  C   UNL     1       2.170   8.085  18.081  0.00  0.00    +0.000 C 
ATOM      5  C   UNL     1       1.441   9.034  18.874  0.00  0.00    +0.000 C 
ATOM      6  C   UNL     1       1.085  10.231  18.398  0.00  0.00    +0.000 C 
ATOM      7  C   UNL     1       1.341   8.423  20.233  0.00  0.00    +0.000 C 
ATOM      8  O   UNL     1       0.643   8.769  21.168  0.00  0.00    +0.000 OA
ATOM      9  O   UNL     1       2.162   7.305  20.252  0.00  0.00    +0.000 OA
BRANCH   6  10
ATOM     10  N   UNL     1       0.538  11.395  18.938  0.00  0.00    +0.000 N 
ATOM     11  C   UNL     1      -0.752  11.957  18.560  0.00  0.00    +0.000 C 
ATOM     12  C   UNL     1       1.254  12.173  19.950  0.00  0.00    +0.000 C 
ENDBRANCH   6  10
ENDBRANCH   2   3
BRANCH   1  13
ATOM     13  C   UNL     1       1.837   4.265  18.422  0.00  0.00    +0.000 C 
ATOM     14  C   UNL     1       1.157   3.848  19.700  0.00  0.00    +0.000 C 
ATOM     15  O   UNL     1       1.202   4.168  17.369  0.00  0.00    +0.000 OA
ENDBRANCH   1  13
BRANCH   1  16
ATOM     16  C   UNL     1       4.379   3.828  18.349  0.00  0.00    +0.000 C 
ATOM     17  O   UNL     1       5.165   3.621  19.262  0.00  0.00    +0.000 OA
BRANCH  16  18
ATOM     18  O   UNL     1       4.485   3.296  17.102  0.00  0.00    +0.000 OA
BRANCH  18  20
ATOM     19  C   UNL     1       6.416   4.187  16.006  0.00  0.00    +0.000 C 
ATOM     20  C   UNL     1       4.898   4.213  16.076  0.00  0.00    +0.000 C 
ENDBRANCH  18  20
ENDBRANCH  16  18
ENDBRANCH   1  16
TORSDOF 6
ENDMDL
MODEL 9
REMARK VINA RESULT:      -6.2      1.442      1.593
REMARK  Name = 
REMARK  10 active torsions:
REMARK  status: ('A' for Active; 'I' for Inactive)
REMARK    1  A    between atoms: C_1  and  C_2
REMARK    2  A    between atoms: C_2  and  O_3
REMARK    3  A    between atoms: O_3  and  C_4
REMARK    4  A    between atoms: C_4  and  C_6
REMARK    5  A    between atoms: C_6  and  C_18
REMARK    6  A    between atoms: C_7  and  C_8
REMARK    7  A    between atoms: C_11  and  N_12
REMARK    8  A    between atoms: N_12  and  C_13
REMARK    9  A    between atoms: N_12  and  C_14
REMARK   10  A    between atoms: C_18  and  C_19
REMARK                            x       y       z     vdW  Elec       q    Type
REMARK                         _______ _______ _______ _____ _____    ______ ____
ROOT
ATOM      1  C   UNL     1       6.495   4.368  15.408  0.00  0.00    +0.000 C 
ATOM      2  C   UNL     1       5.275   3.819  15.614  0.00  0.00    +0.000 C 
ENDROOT
BRANCH   2   3
ATOM      3  C   UNL     1       4.534   3.703  16.844  0.00  0.00    +0.000 C 
ATOM      4  C   UNL     1       3.243   3.944  17.047  0.00  0.00    +0.000 C 
ATOM      5  C   UNL     1       3.049   3.822  18.464  0.00  0.00    +0.000 C 
ATOM      6  C   UNL     1       1.954   4.286  19.073  0.00  0.00    +0.000 C 
ATOM      7  C   UNL     1       4.317   3.234  18.990  0.00  0.00    +0.000 C 
ATOM      8  O   UNL     1       4.535   2.771  20.094  0.00  0.00    +0.000 OA
ATOM      9  O   UNL     1       5.244   3.242  17.957  0.00  0.00    +0.000 OA
BRANCH   6  10
ATOM     10  N   UNL     1       1.548   4.465  20.394  0.00  0.00    +0.000 N 
ATOM     11  C   UNL     1       1.416   5.758  21.053  0.00  0.00    +0.000 C 
ATOM     12  C   UNL     1       1.227   3.323  21.252  0.00  0.00    +0.000 C 
ENDBRANCH   6  10
ENDBRANCH   2   3
BRANCH   1  13
ATOM     13  C   UNL     1       7.326   4.955  16.520  0.00  0.00    +0.000 C 
ATOM     14  C   UNL     1       7.104   6.382  16.950  0.00  0.00    +0.000 C 
ATOM     15  O   UNL     1       8.188   4.300  17.109  0.00  0.00    +0.000 OA
ENDBRANCH   1  13
BRANCH   1  16
ATOM     16  C   UNL     1       6.987   4.484  14.006  0.00  0.00    +0.000 C 
ATOM     17  O   UNL     1       7.610   5.454  13.601  0.00  0.00    +0.000 OA
BRANCH  16  18
ATOM     18  O   UNL     1       6.578   3.446  13.228  0.00  0.00    +0.000 OA
BRANCH  18  20
ATOM     19  C   UNL     1       4.693   3.254  11.767  0.00  0.00    +0.000 C 
ATOM     20  C   UNL     1       6.099   3.809  11.923  0.00  0.00    +0.000 C 
ENDBRANCH  18  20
ENDBRANCH  16  18
ENDBRANCH   1  16
TORSDOF 6
ENDMDL
