MODEL 1
REMARK VINA RESULT:      -8.2      0.000      0.000
REMARK  Name = 
REMARK  4 active torsions:
REMARK  status: ('A' for Active; 'I' for Inactive)
REMARK    1  A    between atoms: C_2  and  C_3
REMARK    2  A    between atoms: C_3  and  N_4
REMARK    3  A    between atoms: C_9  and  C_10
REMARK    4  A    between atoms: N_14  and  C_15
REMARK                            x       y       z     vdW  Elec       q    Type
REMARK                         _______ _______ _______ _____ _____    ______ ____
ROOT
ATOM      1  N   UNL     1      -1.003  14.330  20.219  0.00  0.00    +0.000 N 
ATOM      2  C   UNL     1      -1.460  13.047  20.668  0.00  0.00    +0.000 C 
ATOM      3  O   UNL     1      -2.539  12.841  21.219  0.00  0.00    +0.000 OA
ATOM      4  C   UNL     1      -0.188  11.881  20.503  0.00  0.00    +0.000 C 
ATOM      5  N   UNL     1       0.227  11.539  21.900  0.00  0.00    +0.000 NA
ATOM      6  C   UNL     1      -0.381  10.236  22.178  0.00  0.00    +0.000 C 
ATOM      7  C   UNL     1       0.003   9.668  23.539  0.00  0.00    +0.000 C 
ATOM      8  C   UNL     1      -0.159   9.397  20.904  0.00  0.00    +0.000 C 
ATOM      9  C   UNL     1       1.102   8.555  20.514  0.00  0.00    +0.000 C 
ATOM     10  O   UNL     1       1.789   8.011  21.395  0.00  0.00    +0.000 OA
ATOM     11  N   UNL     1       1.196   8.441  19.101  0.00  0.00    +0.000 N 
ATOM     12  C   UNL     1       0.560   9.595  18.624  0.00  0.00    +0.000 C 
ATOM     13  O   UNL     1       0.623   9.999  17.476  0.00  0.00    +0.000 OA
ATOM     14  C   UNL     1      -0.329  10.405  19.769  0.00  0.00    +0.000 C 
ATOM     15  C   UNL     1       0.789  12.815  19.875  0.00  0.00    +0.000 A 
ATOM     16  C   UNL     1       2.065  12.412  19.514  0.00  0.00    +0.000 A 
ATOM     17  C   UNL     1       2.807  13.305  18.734  0.00  0.00    +0.000 A 
ATOM     18  C   UNL     1       2.299  14.547  18.442  0.00  0.00    +0.000 A 
ATOM     19  C   UNL     1       1.066  15.022  18.920  0.00  0.00    +0.000 A 
ATOM     20  C   UNL     1       0.278  14.112  19.655  0.00  0.00    +0.000 A 
ATOM     21  H   UNL     1      -0.142  12.240  22.558  0.00  0.00    +0.000 HD
ENDROOT
BRANCH  11  22
ATOM     22  C   UNL     1       2.176   7.328  18.335  0.00  0.00    +0.000 A 
ATOM     23  C   UNL     1       3.330   7.960  17.889  0.00  0.00    +0.000 A 
ATOM     24  C   UNL     1       4.166   7.274  17.058  0.00  0.00    +0.000 A 
ATOM     25  C   UNL     1       4.623   6.225  17.780  0.00  0.00    +0.000 A 
ATOM     26  C   UNL     1       3.707   5.258  18.022  0.00  0.00    +0.000 A 
ATOM     27  C   UNL     1       4.380   3.985  18.044  0.00  0.00    +0.000 A 
ATOM     28  C   UNL     1       3.768   2.799  17.752  0.00  0.00    +0.000 A 
ATOM     29  C   UNL     1       2.396   2.928  17.541  0.00  0.00    +0.000 A 
ATOM     30  C   UNL     1       1.694   4.246  17.766  0.00  0.00    +0.000 A 
ATOM     31  C   UNL     1       2.301   5.640  18.049  0.00  0.00    +0.000 A 
ENDBRANCH  11  22
BRANCH   1  32
ATOM     32  C   UNL     1      -1.696  15.771  20.311  0.00  0.00    +0.000 C 
BRANCH  32  34
ATOM     33  C   UNL     1      -1.773  16.697  22.978  0.00  0.00    +0.000 C 
ATOM     34  C   UNL     1      -1.737  16.270  21.747  0.00  0.00    +0.000 C 
ENDBRANCH  32  34
ENDBRANCH   1  32
TORSDOF 3
ENDMDL
MODEL 2
REMARK VINA RESULT:      -7.9      0.629      1.038
REMARK  Name = 
REMARK  4 active torsions:
REMARK  status: ('A' for Active; 'I' for Inactive)
REMARK    1  A    between atoms: C_2  and  C_3
REMARK    2  A    between atoms: C_3  and  N_4
REMARK    3  A    between atoms: C_9  and  C_10
REMARK    4  A    between atoms: N_14  and  C_15
REMARK                            x       y       z     vdW  Elec       q    Type
REMARK                         _______ _______ _______ _____ _____    ______ ____
ROOT
ATOM      1  N   UNL     1      -0.785  14.481  20.180  0.00  0.00    +0.000 N 
ATOM      2  C   UNL     1      -1.307  13.212  20.599  0.00  0.00    +0.000 C 
ATOM      3  O   UNL     1      -2.411  13.043  21.111  0.00  0.00    +0.000 OA
ATOM      4  C   UNL     1      -0.077  11.998  20.461  0.00  0.00    +0.000 C 
ATOM      5  N   UNL     1       0.279  11.625  21.866  0.00  0.00    +0.000 NA
ATOM      6  C   UNL     1      -0.389  10.344  22.109  0.00  0.00    +0.000 C 
ATOM      7  C   UNL     1      -0.072   9.747  23.474  0.00  0.00    +0.000 C 
ATOM      8  C   UNL     1      -0.159   9.512  20.833  0.00  0.00    +0.000 C 
ATOM      9  C   UNL     1       1.081   8.625  20.474  0.00  0.00    +0.000 C 
ATOM     10  O   UNL     1       1.716   8.044  21.370  0.00  0.00    +0.000 OA
ATOM     11  N   UNL     1       1.216   8.521  19.064  0.00  0.00    +0.000 N 
ATOM     12  C   UNL     1       0.643   9.705  18.580  0.00  0.00    +0.000 C 
ATOM     13  O   UNL     1       0.759  10.119  17.440  0.00  0.00    +0.000 OA
ATOM     14  C   UNL     1      -0.251  10.538  19.705  0.00  0.00    +0.000 C 
ATOM     15  C   UNL     1       0.956  12.900  19.876  0.00  0.00    +0.000 A 
ATOM     16  C   UNL     1       2.226  12.451  19.552  0.00  0.00    +0.000 A 
ATOM     17  C   UNL     1       3.028  13.322  18.807  0.00  0.00    +0.000 A 
ATOM     18  C   UNL     1       2.579  14.587  18.514  0.00  0.00    +0.000 A 
ATOM     19  C   UNL     1       1.351  15.104  18.958  0.00  0.00    +0.000 A 
ATOM     20  C   UNL     1       0.504  14.219  19.655  0.00  0.00    +0.000 A 
ATOM     21  H   UNL     1      -0.085  12.334  22.521  0.00  0.00    +0.000 HD
ENDROOT
BRANCH  11  22
ATOM     22  C   UNL     1       2.177   7.379  18.316  0.00  0.00    +0.000 A 
ATOM     23  C   UNL     1       3.335   7.987  17.845  0.00  0.00    +0.000 A 
ATOM     24  C   UNL     1       4.155   7.271  17.025  0.00  0.00    +0.000 A 
ATOM     25  C   UNL     1       4.606   6.235  17.768  0.00  0.00    +0.000 A 
ATOM     26  C   UNL     1       3.680   5.284  18.041  0.00  0.00    +0.000 A 
ATOM     27  C   UNL     1       4.339   4.004  18.087  0.00  0.00    +0.000 A 
ATOM     28  C   UNL     1       3.710   2.819  17.828  0.00  0.00    +0.000 A 
ATOM     29  C   UNL     1       2.338   2.959  17.625  0.00  0.00    +0.000 A 
ATOM     30  C   UNL     1       1.654   4.291  17.825  0.00  0.00    +0.000 A 
ATOM     31  C   UNL     1       2.280   5.684  18.070  0.00  0.00    +0.000 A 
ENDBRANCH  11  22
BRANCH   1  32
ATOM     32  C   UNL     1      -1.424  15.947  20.267  0.00  0.00    +0.000 C 
BRANCH  32  34
ATOM     33  C   UNL     1      -0.793  17.471  17.975  0.00  0.00    +0.000 C 
ATOM     34  C   UNL     1      -1.084  16.768  19.033  0.00  0.00    +0.000 C 
ENDBRANCH  32  34
ENDBRANCH   1  32
TORSDOF 3
ENDMDL
MODEL 3
REMARK VINA RESULT:      -7.7      2.520      4.083
REMARK  Name = 
REMARK  4 active torsions:
REMARK  status: ('A' for Active; 'I' for Inactive)
REMARK    1  A    between atoms: C_2  and  C_3
REMARK    2  A    between atoms: C_3  and  N_4
REMARK    3  A    between atoms: C_9  and  C_10
REMARK    4  A    between atoms: N_14  and  C_15
REMARK                            x       y       z     vdW  Elec       q    Type
REMARK                         _______ _______ _______ _____ _____    ______ ____
ROOT
ATOM      1  N   UNL     1      -3.884  13.096  19.810  0.00  0.00    +0.000 N 
ATOM      2  C   UNL     1      -2.535  13.306  20.248  0.00  0.00    +0.000 C 
ATOM      3  O   UNL     1      -2.160  14.253  20.935  0.00  0.00    +0.000 OA
ATOM      4  C   UNL     1      -1.488  12.145  19.497  0.00  0.00    +0.000 C 
ATOM      5  N   UNL     1      -0.648  12.925  18.534  0.00  0.00    +0.000 NA
ATOM      6  C   UNL     1       0.654  13.074  19.187  0.00  0.00    +0.000 C 
ATOM      7  C   UNL     1       1.690  13.774  18.315  0.00  0.00    +0.000 C 
ATOM      8  C   UNL     1       0.969  11.695  19.798  0.00  0.00    +0.000 C 
ATOM      9  C   UNL     1       1.630  10.460  19.097  0.00  0.00    +0.000 C 
ATOM     10  O   UNL     1       2.473  10.627  18.200  0.00  0.00    +0.000 OA
ATOM     11  N   UNL     1       1.219   9.259  19.733  0.00  0.00    +0.000 N 
ATOM     12  C   UNL     1      -0.041   9.569  20.262  0.00  0.00    +0.000 C 
ATOM     13  O   UNL     1      -0.839   8.750  20.685  0.00  0.00    +0.000 OA
ATOM     14  C   UNL     1      -0.390  11.193  20.284  0.00  0.00    +0.000 C 
ATOM     15  C   UNL     1      -2.571  11.412  18.780  0.00  0.00    +0.000 A 
ATOM     16  C   UNL     1      -2.305  10.326  17.961  0.00  0.00    +0.000 A 
ATOM     17  C   UNL     1      -3.409   9.584  17.526  0.00  0.00    +0.000 A 
ATOM     18  C   UNL     1      -4.681  10.000  17.838  0.00  0.00    +0.000 A 
ATOM     19  C   UNL     1      -4.968  11.178  18.548  0.00  0.00    +0.000 A 
ATOM     20  C   UNL     1      -3.866  11.902  19.048  0.00  0.00    +0.000 A 
ATOM     21  H   UNL     1      -1.065  13.855  18.377  0.00  0.00    +0.000 HD
ENDROOT
BRANCH  11  22
ATOM     22  C   UNL     1       1.988   7.794  19.512  0.00  0.00    +0.000 A 
ATOM     23  C   UNL     1       1.521   6.881  20.450  0.00  0.00    +0.000 A 
ATOM     24  C   UNL     1       2.170   5.688  20.572  0.00  0.00    +0.000 A 
ATOM     25  C   UNL     1       2.006   5.056  19.388  0.00  0.00    +0.000 A 
ATOM     26  C   UNL     1       2.708   5.586  18.358  0.00  0.00    +0.000 A 
ATOM     27  C   UNL     1       3.099   4.518  17.473  0.00  0.00    +0.000 A 
ATOM     28  C   UNL     1       4.193   4.573  16.658  0.00  0.00    +0.000 A 
ATOM     29  C   UNL     1       4.833   5.812  16.681  0.00  0.00    +0.000 A 
ATOM     30  C   UNL     1       4.246   6.977  17.440  0.00  0.00    +0.000 A 
ATOM     31  C   UNL     1       3.049   7.001  18.420  0.00  0.00    +0.000 A 
ENDBRANCH  11  22
BRANCH   1  32
ATOM     32  C   UNL     1      -5.202  13.974  20.049  0.00  0.00    +0.000 C 
BRANCH  32  34
ATOM     33  C   UNL     1      -6.834  12.837  22.054  0.00  0.00    +0.000 C 
ATOM     34  C   UNL     1      -6.081  13.362  21.129  0.00  0.00    +0.000 C 
ENDBRANCH  32  34
ENDBRANCH   1  32
TORSDOF 3
ENDMDL
MODEL 4
REMARK VINA RESULT:      -7.5      2.537      3.880
REMARK  Name = 
REMARK  4 active torsions:
REMARK  status: ('A' for Active; 'I' for Inactive)
REMARK    1  A    between atoms: C_2  and  C_3
REMARK    2  A    between atoms: C_3  and  N_4
REMARK    3  A    between atoms: C_9  and  C_10
REMARK    4  A    between atoms: N_14  and  C_15
REMARK                            x       y       z     vdW  Elec       q    Type
REMARK                         _______ _______ _______ _____ _____    ______ ____
ROOT
ATOM      1  N   UNL     1      -3.975  13.478  20.538  0.00  0.00    +0.000 N 
ATOM      2  C   UNL     1      -2.596  13.627  20.905  0.00  0.00    +0.000 C 
ATOM      3  O   UNL     1      -2.169  14.455  21.705  0.00  0.00    +0.000 OA
ATOM      4  C   UNL     1      -1.612  12.609  19.905  0.00  0.00    +0.000 C 
ATOM      5  N   UNL     1      -0.842  13.539  19.019  0.00  0.00    +0.000 NA
ATOM      6  C   UNL     1       0.506  13.593  19.592  0.00  0.00    +0.000 C 
ATOM      7  C   UNL     1       1.477  14.431  18.769  0.00  0.00    +0.000 C 
ATOM      8  C   UNL     1       0.859  12.137  19.951  0.00  0.00    +0.000 C 
ATOM      9  C   UNL     1       1.464  11.035  19.017  0.00  0.00    +0.000 C 
ATOM     10  O   UNL     1       2.240  11.350  18.098  0.00  0.00    +0.000 OA
ATOM     11  N   UNL     1       1.096   9.745  19.482  0.00  0.00    +0.000 N 
ATOM     12  C   UNL     1      -0.121   9.956  20.143  0.00  0.00    +0.000 C 
ATOM     13  O   UNL     1      -0.888   9.074  20.488  0.00  0.00    +0.000 OA
ATOM     14  C   UNL     1      -0.461  11.553  20.449  0.00  0.00    +0.000 C 
ATOM     15  C   UNL     1      -2.746  11.990  19.161  0.00  0.00    +0.000 A 
ATOM     16  C   UNL     1      -2.545  11.050  18.163  0.00  0.00    +0.000 A 
ATOM     17  C   UNL     1      -3.680  10.377  17.697  0.00  0.00    +0.000 A 
ATOM     18  C   UNL     1      -4.924  10.728  18.162  0.00  0.00    +0.000 A 
ATOM     19  C   UNL     1      -5.155  11.775  19.070  0.00  0.00    +0.000 A 
ATOM     20  C   UNL     1      -4.017  12.421  19.597  0.00  0.00    +0.000 A 
ATOM     21  H   UNL     1      -1.266  14.478  19.044  0.00  0.00    +0.000 HD
ENDROOT
BRANCH  11  22
ATOM     22  C   UNL     1       1.843   8.340  18.975  0.00  0.00    +0.000 A 
ATOM     23  C   UNL     1       2.506   8.577  17.777  0.00  0.00    +0.000 A 
ATOM     24  C   UNL     1       3.007   7.510  17.091  0.00  0.00    +0.000 A 
ATOM     25  C   UNL     1       3.954   6.970  17.890  0.00  0.00    +0.000 A 
ATOM     26  C   UNL     1       3.478   6.327  18.984  0.00  0.00    +0.000 A 
ATOM     27  C   UNL     1       4.347   5.216  19.277  0.00  0.00    +0.000 A 
ATOM     28  C   UNL     1       3.941   4.092  19.937  0.00  0.00    +0.000 A 
ATOM     29  C   UNL     1       2.629   4.171  20.401  0.00  0.00    +0.000 A 
ATOM     30  C   UNL     1       1.837   5.450  20.279  0.00  0.00    +0.000 A 
ATOM     31  C   UNL     1       2.188   6.748  19.516  0.00  0.00    +0.000 A 
ENDBRANCH  11  22
BRANCH   1  32
ATOM     32  C   UNL     1      -5.270  14.295  21.009  0.00  0.00    +0.000 C 
BRANCH  32  34
ATOM     33  C   UNL     1      -6.479  13.083  23.255  0.00  0.00    +0.000 C 
ATOM     34  C   UNL     1      -5.921  13.642  22.219  0.00  0.00    +0.000 C 
ENDBRANCH  32  34
ENDBRANCH   1  32
TORSDOF 3
ENDMDL
MODEL 5
REMARK VINA RESULT:      -7.5      1.272      1.890
REMARK  Name = 
REMARK  4 active torsions:
REMARK  status: ('A' for Active; 'I' for Inactive)
REMARK    1  A    between atoms: C_2  and  C_3
REMARK    2  A    between atoms: C_3  and  N_4
REMARK    3  A    between atoms: C_9  and  C_10
REMARK    4  A    between atoms: N_14  and  C_15
REMARK                            x       y       z     vdW  Elec       q    Type
REMARK                         _______ _______ _______ _____ _____    ______ ____
ROOT
ATOM      1  N   UNL     1      -0.355  14.781  19.103  0.00  0.00    +0.000 N 
ATOM      2  C   UNL     1      -1.040  13.616  19.582  0.00  0.00    +0.000 C 
ATOM      3  O   UNL     1      -2.237  13.569  19.854  0.00  0.00    +0.000 OA
ATOM      4  C   UNL     1       0.106  12.357  19.911  0.00  0.00    +0.000 C 
ATOM      5  N   UNL     1       0.124  12.208  21.400  0.00  0.00    +0.000 NA
ATOM      6  C   UNL     1      -0.665  11.006  21.679  0.00  0.00    +0.000 C 
ATOM      7  C   UNL     1      -0.692  10.631  23.156  0.00  0.00    +0.000 C 
ATOM      8  C   UNL     1      -0.221   9.969  20.630  0.00  0.00    +0.000 C 
ATOM      9  C   UNL     1       1.004   8.995  20.698  0.00  0.00    +0.000 C 
ATOM     10  O   UNL     1       1.390   8.549  21.791  0.00  0.00    +0.000 OA
ATOM     11  N   UNL     1       1.433   8.658  19.386  0.00  0.00    +0.000 N 
ATOM     12  C   UNL     1       1.058   9.764  18.611  0.00  0.00    +0.000 C 
ATOM     13  O   UNL     1       1.446   9.982  17.476  0.00  0.00    +0.000 OA
ATOM     14  C   UNL     1       0.001  10.798  19.367  0.00  0.00    +0.000 C 
ATOM     15  C   UNL     1       1.300  13.117  19.441  0.00  0.00    +0.000 A 
ATOM     16  C   UNL     1       2.577  12.580  19.483  0.00  0.00    +0.000 A 
ATOM     17  C   UNL     1       3.578  13.291  18.812  0.00  0.00    +0.000 A 
ATOM     18  C   UNL     1       3.289  14.504  18.236  0.00  0.00    +0.000 A 
ATOM     19  C   UNL     1       2.032  15.127  18.309  0.00  0.00    +0.000 A 
ATOM     20  C   UNL     1       0.996  14.395  18.926  0.00  0.00    +0.000 A 
ATOM     21  H   UNL     1      -0.323  13.025  21.840  0.00  0.00    +0.000 HD
ENDROOT
BRANCH  11  22
ATOM     22  C   UNL     1       2.453   7.378  19.056  0.00  0.00    +0.000 A 
ATOM     23  C   UNL     1       2.223   6.358  19.970  0.00  0.00    +0.000 A 
ATOM     24  C   UNL     1       3.092   5.308  20.003  0.00  0.00    +0.000 A 
ATOM     25  C   UNL     1       2.983   4.702  18.799  0.00  0.00    +0.000 A 
ATOM     26  C   UNL     1       3.511   5.396  17.762  0.00  0.00    +0.000 A 
ATOM     27  C   UNL     1       4.046   4.458  16.808  0.00  0.00    +0.000 A 
ATOM     28  C   UNL     1       5.060   4.753  15.943  0.00  0.00    +0.000 A 
ATOM     29  C   UNL     1       5.454   6.090  15.995  0.00  0.00    +0.000 A 
ATOM     30  C   UNL     1       4.700   7.090  16.838  0.00  0.00    +0.000 A 
ATOM     31  C   UNL     1       3.580   6.847  17.876  0.00  0.00    +0.000 A 
ENDBRANCH  11  22
BRANCH   1  32
ATOM     32  C   UNL     1      -0.897  16.262  18.819  0.00  0.00    +0.000 C 
BRANCH  32  34
ATOM     33  C   UNL     1      -0.083  18.051  20.847  0.00  0.00    +0.000 C 
ATOM     34  C   UNL     1      -0.458  17.225  19.911  0.00  0.00    +0.000 C 
ENDBRANCH  32  34
ENDBRANCH   1  32
TORSDOF 3
ENDMDL
MODEL 6
REMARK VINA RESULT:      -7.4      2.456      3.906
REMARK  Name = 
REMARK  4 active torsions:
REMARK  status: ('A' for Active; 'I' for Inactive)
REMARK    1  A    between atoms: C_2  and  C_3
REMARK    2  A    between atoms: C_3  and  N_4
REMARK    3  A    between atoms: C_9  and  C_10
REMARK    4  A    between atoms: N_14  and  C_15
REMARK                            x       y       z     vdW  Elec       q    Type
REMARK                         _______ _______ _______ _____ _____    ______ ____
ROOT
ATOM      1  N   UNL     1      -4.034  13.637  20.604  0.00  0.00    +0.000 N 
ATOM      2  C   UNL     1      -2.652  13.780  20.961  0.00  0.00    +0.000 C 
ATOM      3  O   UNL     1      -2.215  14.611  21.753  0.00  0.00    +0.000 OA
ATOM      4  C   UNL     1      -1.680  12.748  19.963  0.00  0.00    +0.000 C 
ATOM      5  N   UNL     1      -0.909  13.667  19.066  0.00  0.00    +0.000 NA
ATOM      6  C   UNL     1       0.442  13.716  19.631  0.00  0.00    +0.000 C 
ATOM      7  C   UNL     1       1.414  14.542  18.797  0.00  0.00    +0.000 C 
ATOM      8  C   UNL     1       0.788  12.261  19.998  0.00  0.00    +0.000 C 
ATOM      9  C   UNL     1       1.380  11.148  19.069  0.00  0.00    +0.000 C 
ATOM     10  O   UNL     1       2.153  11.451  18.144  0.00  0.00    +0.000 OA
ATOM     11  N   UNL     1       1.007   9.863  19.545  0.00  0.00    +0.000 N 
ATOM     12  C   UNL     1      -0.205  10.087  20.212  0.00  0.00    +0.000 C 
ATOM     13  O   UNL     1      -0.976   9.213  20.567  0.00  0.00    +0.000 OA
ATOM     14  C   UNL     1      -0.533  11.688  20.508  0.00  0.00    +0.000 C 
ATOM     15  C   UNL     1      -2.822  12.131  19.230  0.00  0.00    +0.000 A 
ATOM     16  C   UNL     1      -2.633  11.183  18.238  0.00  0.00    +0.000 A 
ATOM     17  C   UNL     1      -3.775  10.514  17.784  0.00  0.00    +0.000 A 
ATOM     18  C   UNL     1      -5.014  10.876  18.253  0.00  0.00    +0.000 A 
ATOM     19  C   UNL     1      -5.233  11.932  19.154  0.00  0.00    +0.000 A 
ATOM     20  C   UNL     1      -4.088  12.573  19.670  0.00  0.00    +0.000 A 
ATOM     21  H   UNL     1      -1.326  14.609  19.086  0.00  0.00    +0.000 HD
ENDROOT
BRANCH  11  22
ATOM     22  C   UNL     1       1.741   8.450  19.044  0.00  0.00    +0.000 A 
ATOM     23  C   UNL     1       2.355   8.660  17.815  0.00  0.00    +0.000 A 
ATOM     24  C   UNL     1       2.834   7.579  17.136  0.00  0.00    +0.000 A 
ATOM     25  C   UNL     1       3.816   7.064  17.911  0.00  0.00    +0.000 A 
ATOM     26  C   UNL     1       3.388   6.446  19.038  0.00  0.00    +0.000 A 
ATOM     27  C   UNL     1       4.275   5.348  19.324  0.00  0.00    +0.000 A 
ATOM     28  C   UNL     1       3.903   4.238  20.027  0.00  0.00    +0.000 A 
ATOM     29  C   UNL     1       2.610   4.322  20.541  0.00  0.00    +0.000 A 
ATOM     30  C   UNL     1       1.805   5.594  20.419  0.00  0.00    +0.000 A 
ATOM     31  C   UNL     1       2.118   6.874  19.610  0.00  0.00    +0.000 A 
ENDBRANCH  11  22
BRANCH   1  32
ATOM     32  C   UNL     1      -5.320  14.466  21.076  0.00  0.00    +0.000 C 
BRANCH  32  34
ATOM     33  C   UNL     1      -6.097  16.345  19.116  0.00  0.00    +0.000 C 
ATOM     34  C   UNL     1      -5.739  15.478  20.021  0.00  0.00    +0.000 C 
ENDBRANCH  32  34
ENDBRANCH   1  32
TORSDOF 3
ENDMDL
MODEL 7
REMARK VINA RESULT:      -7.3      4.490      7.562
REMARK  Name = 
REMARK  4 active torsions:
REMARK  status: ('A' for Active; 'I' for Inactive)
REMARK    1  A    between atoms: C_2  and  C_3
REMARK    2  A    between atoms: C_3  and  N_4
REMARK    3  A    between atoms: C_9  and  C_10
REMARK    4  A    between atoms: N_14  and  C_15
REMARK                            x       y       z     vdW  Elec       q    Type
REMARK                         _______ _______ _______ _____ _____    ______ ____
ROOT
ATOM      1  N   UNL     1      -2.089  13.596  20.462  0.00  0.00    +0.000 N 
ATOM      2  C   UNL     1      -1.627  14.953  20.403  0.00  0.00    +0.000 C 
ATOM      3  O   UNL     1      -2.254  15.926  20.813  0.00  0.00    +0.000 OA
ATOM      4  C   UNL     1      -0.155  15.030  19.489  0.00  0.00    +0.000 C 
ATOM      5  N   UNL     1      -0.506  15.740  18.219  0.00  0.00    +0.000 NA
ATOM      6  C   UNL     1       0.000  17.104  18.385  0.00  0.00    +0.000 C 
ATOM      7  C   UNL     1      -0.185  17.971  17.145  0.00  0.00    +0.000 C 
ATOM      8  C   UNL     1       1.398  16.951  19.014  0.00  0.00    +0.000 C 
ATOM      9  C   UNL     1       2.760  16.696  18.283  0.00  0.00    +0.000 C 
ATOM     10  O   UNL     1       2.955  17.155  17.145  0.00  0.00    +0.000 OA
ATOM     11  N   UNL     1       3.666  16.034  19.155  0.00  0.00    +0.000 N 
ATOM     12  C   UNL     1       2.835  15.321  20.030  0.00  0.00    +0.000 C 
ATOM     13  O   UNL     1       3.212  14.441  20.784  0.00  0.00    +0.000 OA
ATOM     14  C   UNL     1       1.239  15.776  19.976  0.00  0.00    +0.000 C 
ATOM     15  C   UNL     1      -0.046  13.560  19.260  0.00  0.00    +0.000 A 
ATOM     16  C   UNL     1       0.994  13.005  18.532  0.00  0.00    +0.000 A 
ATOM     17  C   UNL     1       1.116  11.612  18.575  0.00  0.00    +0.000 A 
ATOM     18  C   UNL     1       0.175  10.861  19.238  0.00  0.00    +0.000 A 
ATOM     19  C   UNL     1      -0.962  11.403  19.860  0.00  0.00    +0.000 A 
ATOM     20  C   UNL     1      -1.066  12.809  19.881  0.00  0.00    +0.000 A 
ATOM     21  H   UNL     1      -1.530  15.763  18.102  0.00  0.00    +0.000 HD
ENDROOT
BRANCH  11  22
ATOM     22  C   UNL     1       5.306  15.930  18.864  0.00  0.00    +0.000 A 
ATOM     23  C   UNL     1       5.926  17.097  19.295  0.00  0.00    +0.000 A 
ATOM     24  C   UNL     1       7.233  17.298  18.961  0.00  0.00    +0.000 A 
ATOM     25  C   UNL     1       7.925  16.311  19.575  0.00  0.00    +0.000 A 
ATOM     26  C   UNL     1       7.748  15.077  19.046  0.00  0.00    +0.000 A 
ATOM     27  C   UNL     1       8.981  14.342  19.176  0.00  0.00    +0.000 A 
ATOM     28  C   UNL     1       9.343  13.319  18.348  0.00  0.00    +0.000 A 
ATOM     29  C   UNL     1       8.351  12.978  17.430  0.00  0.00    +0.000 A 
ATOM     30  C   UNL     1       6.983  13.616  17.490  0.00  0.00    +0.000 A 
ATOM     31  C   UNL     1       6.496  14.804  18.352  0.00  0.00    +0.000 A 
ENDBRANCH  11  22
BRANCH   1  32
ATOM     32  C   UNL     1      -3.464  12.991  21.018  0.00  0.00    +0.000 C 
BRANCH  32  34
ATOM     33  C   UNL     1      -3.257  12.344  23.759  0.00  0.00    +0.000 C 
ATOM     34  C   UNL     1      -3.353  12.643  22.494  0.00  0.00    +0.000 C 
ENDBRANCH  32  34
ENDBRANCH   1  32
TORSDOF 3
ENDMDL
MODEL 8
REMARK VINA RESULT:      -6.7      2.095      3.691
REMARK  Name = 
REMARK  4 active torsions:
REMARK  status: ('A' for Active; 'I' for Inactive)
REMARK    1  A    between atoms: C_2  and  C_3
REMARK    2  A    between atoms: C_3  and  N_4
REMARK    3  A    between atoms: C_9  and  C_10
REMARK    4  A    between atoms: N_14  and  C_15
REMARK                            x       y       z     vdW  Elec       q    Type
REMARK                         _______ _______ _______ _____ _____    ______ ____
ROOT
ATOM      1  N   UNL     1      -3.055  14.617  21.196  0.00  0.00    +0.000 N 
ATOM      2  C   UNL     1      -1.628  14.601  21.344  0.00  0.00    +0.000 C 
ATOM      3  O   UNL     1      -0.982  15.408  22.008  0.00  0.00    +0.000 OA
ATOM      4  C   UNL     1      -0.944  13.405  20.290  0.00  0.00    +0.000 C 
ATOM      5  N   UNL     1      -0.212  14.172  19.234  0.00  0.00    +0.000 NA
ATOM      6  C   UNL     1       1.204  14.077  19.596  0.00  0.00    +0.000 C 
ATOM      7  C   UNL     1       2.132  14.729  18.579  0.00  0.00    +0.000 C 
ATOM      8  C   UNL     1       1.426  12.610  20.009  0.00  0.00    +0.000 C 
ATOM      9  C   UNL     1       1.737  11.385  19.083  0.00  0.00    +0.000 C 
ATOM     10  O   UNL     1       2.393  11.541  18.039  0.00  0.00    +0.000 OA
ATOM     11  N   UNL     1       1.288  10.184  19.693  0.00  0.00    +0.000 N 
ATOM     12  C   UNL     1       0.224  10.594  20.508  0.00  0.00    +0.000 C 
ATOM     13  O   UNL     1      -0.583   9.843  21.028  0.00  0.00    +0.000 OA
ATOM     14  C   UNL     1       0.137  12.236  20.738  0.00  0.00    +0.000 C 
ATOM     15  C   UNL     1      -2.248  12.903  19.770  0.00  0.00    +0.000 A 
ATOM     16  C   UNL     1      -2.323  11.890  18.828  0.00  0.00    +0.000 A 
ATOM     17  C   UNL     1      -3.591  11.351  18.586  0.00  0.00    +0.000 A 
ATOM     18  C   UNL     1      -4.695  11.890  19.201  0.00  0.00    +0.000 A 
ATOM     19  C   UNL     1      -4.650  13.009  20.050  0.00  0.00    +0.000 A 
ATOM     20  C   UNL     1      -3.373  13.524  20.354  0.00  0.00    +0.000 A 
ATOM     21  H   UNL     1      -0.507  15.160  19.248  0.00  0.00    +0.000 HD
ENDROOT
BRANCH  11  22
ATOM     22  C   UNL     1       1.767   8.666  19.190  0.00  0.00    +0.000 A 
ATOM     23  C   UNL     1       2.289   8.749  17.906  0.00  0.00    +0.000 A 
ATOM     24  C   UNL     1       2.547   7.591  17.234  0.00  0.00    +0.000 A 
ATOM     25  C   UNL     1       3.513   6.962  17.942  0.00  0.00    +0.000 A 
ATOM     26  C   UNL     1       3.106   6.446  19.127  0.00  0.00    +0.000 A 
ATOM     27  C   UNL     1       3.852   5.240  19.381  0.00  0.00    +0.000 A 
ATOM     28  C   UNL     1       3.392   4.216  20.159  0.00  0.00    +0.000 A 
ATOM     29  C   UNL     1       2.177   4.501  20.779  0.00  0.00    +0.000 A 
ATOM     30  C   UNL     1       1.552   5.872  20.674  0.00  0.00    +0.000 A 
ATOM     31  C   UNL     1       1.967   7.069  19.788  0.00  0.00    +0.000 A 
ENDBRANCH  11  22
BRANCH   1  32
ATOM     32  C   UNL     1      -4.148  15.626  21.789  0.00  0.00    +0.000 C 
BRANCH  32  34
ATOM     33  C   UNL     1      -4.061  15.682  24.611  0.00  0.00    +0.000 C 
ATOM     34  C   UNL     1      -4.101  15.656  23.308  0.00  0.00    +0.000 C 
ENDBRANCH  32  34
ENDBRANCH   1  32
TORSDOF 3
ENDMDL
MODEL 9
REMARK VINA RESULT:      -6.6      2.148      3.998
REMARK  Name = 
REMARK  4 active torsions:
REMARK  status: ('A' for Active; 'I' for Inactive)
REMARK    1  A    between atoms: C_2  and  C_3
REMARK    2  A    between atoms: C_3  and  N_4
REMARK    3  A    between atoms: C_9  and  C_10
REMARK    4  A    between atoms: N_14  and  C_15
REMARK                            x       y       z     vdW  Elec       q    Type
REMARK                         _______ _______ _______ _____ _____    ______ ____
ROOT
ATOM      1  N   UNL     1      -3.083  15.102  22.176  0.00  0.00    +0.000 N 
ATOM      2  C   UNL     1      -1.651  15.040  22.246  0.00  0.00    +0.000 C 
ATOM      3  O   UNL     1      -0.950  15.781  22.930  0.00  0.00    +0.000 OA
ATOM      4  C   UNL     1      -1.057  13.908  21.074  0.00  0.00    +0.000 C 
ATOM      5  N   UNL     1      -0.359  14.732  20.037  0.00  0.00    +0.000 NA
ATOM      6  C   UNL     1       1.070  14.576  20.315  0.00  0.00    +0.000 C 
ATOM      7  C   UNL     1       1.963  15.278  19.299  0.00  0.00    +0.000 C 
ATOM      8  C   UNL     1       1.272  13.078  20.610  0.00  0.00    +0.000 C 
ATOM      9  C   UNL     1       1.500  11.917  19.583  0.00  0.00    +0.000 C 
ATOM     10  O   UNL     1       2.106  12.132  18.520  0.00  0.00    +0.000 OA
ATOM     11  N   UNL     1       1.050  10.686  20.129  0.00  0.00    +0.000 N 
ATOM     12  C   UNL     1       0.042  11.061  21.028  0.00  0.00    +0.000 C 
ATOM     13  O   UNL     1      -0.758  10.294  21.535  0.00  0.00    +0.000 OA
ATOM     14  C   UNL     1       0.012  12.684  21.379  0.00  0.00    +0.000 C 
ATOM     15  C   UNL     1      -2.400  13.476  20.590  0.00  0.00    +0.000 A 
ATOM     16  C   UNL     1      -2.552  12.537  19.583  0.00  0.00    +0.000 A 
ATOM     17  C   UNL     1      -3.845  12.047  19.372  0.00  0.00    +0.000 A 
ATOM     18  C   UNL     1      -4.900  12.568  20.082  0.00  0.00    +0.000 A 
ATOM     19  C   UNL     1      -4.780  13.620  21.006  0.00  0.00    +0.000 A 
ATOM     20  C   UNL     1      -3.475  14.081  21.276  0.00  0.00    +0.000 A 
ATOM     21  H   UNL     1      -0.626  15.723  20.138  0.00  0.00    +0.000 HD
ENDROOT
BRANCH  11  22
ATOM     22  C   UNL     1       1.460   9.197  19.495  0.00  0.00    +0.000 A 
ATOM     23  C   UNL     1       1.791   9.343  18.153  0.00  0.00    +0.000 A 
ATOM     24  C   UNL     1       1.956   8.219  17.400  0.00  0.00    +0.000 A 
ATOM     25  C   UNL     1       3.017   7.571  17.932  0.00  0.00    +0.000 A 
ATOM     26  C   UNL     1       2.787   6.998  19.138  0.00  0.00    +0.000 A 
ATOM     27  C   UNL     1       3.568   5.790  19.227  0.00  0.00    +0.000 A 
ATOM     28  C   UNL     1       3.231   4.728  20.017  0.00  0.00    +0.000 A 
ATOM     29  C   UNL     1       2.115   4.971  20.817  0.00  0.00    +0.000 A 
ATOM     30  C   UNL     1       1.475   6.338  20.865  0.00  0.00    +0.000 A 
ATOM     31  C   UNL     1       1.752   7.578  19.984  0.00  0.00    +0.000 A 
ENDBRANCH  11  22
BRANCH   1  32
ATOM     32  C   UNL     1      -4.116  16.091  22.897  0.00  0.00    +0.000 C 
BRANCH  32  34
ATOM     33  C   UNL     1      -4.879  18.196  21.177  0.00  0.00    +0.000 C 
ATOM     34  C   UNL     1      -4.527  17.225  21.971  0.00  0.00    +0.000 C 
ENDBRANCH  32  34
ENDBRANCH   1  32
TORSDOF 3
ENDMDL
