MODEL 1
REMARK VINA RESULT:      -9.0      0.000      0.000
REMARK  Name = 
REMARK  6 active torsions:
REMARK  status: ('A' for Active; 'I' for Inactive)
REMARK    1  A    between atoms: C_1  and  C_2
REMARK    2  A    between atoms: C_6  and  C_7
REMARK    3  A    between atoms: N_9  and  C_10
REMARK    4  A    between atoms: C_14  and  C_15
REMARK    5  A    between atoms: C_15  and  N_16
REMARK    6  A    between atoms: C_19  and  C_20
REMARK                            x       y       z     vdW  Elec       q    Type
REMARK                         _______ _______ _______ _____ _____    ______ ____
ROOT
ATOM      1  C   UNL     1       2.857   5.058  18.377  0.00  0.00    +0.000 A 
ATOM      2  C   UNL     1       2.094   3.999  18.883  0.00  0.00    +0.000 A 
ATOM      3  C   UNL     1       1.288   4.158  20.009  0.00  0.00    +0.000 A 
ATOM      4  C   UNL     1       1.229   5.383  20.655  0.00  0.00    +0.000 A 
ATOM      5  C   UNL     1       2.003   6.461  20.198  0.00  0.00    +0.000 A 
ATOM      6  C   UNL     1       2.836   6.280  19.071  0.00  0.00    +0.000 A 
ENDROOT
BRANCH   1   9
ATOM      7  C   UNL     1       4.982   4.594  17.179  0.00  0.00    +0.000 C 
ATOM      8  O   UNL     1       5.618   4.259  18.177  0.00  0.00    +0.000 OA
ATOM      9  N   UNL     1       3.634   4.943  17.189  0.00  0.00    +0.000 N 
ATOM     10  H   UNL     1       3.128   4.980  16.317  0.00  0.00    +0.000 HD
BRANCH   7  16
ATOM     11  C   UNL     1       5.820   3.320  12.291  0.00  0.00    +0.000 C 
ATOM     12  C   UNL     1       6.148   4.048  13.559  0.00  0.00    +0.000 A 
ATOM     13  C   UNL     1       7.320   4.796  13.650  0.00  0.00    +0.000 A 
ATOM     14  N   UNL     1       7.737   5.402  14.774  0.00  0.00    +0.000 NA
ATOM     15  C   UNL     1       6.942   5.265  15.863  0.00  0.00    +0.000 A 
ATOM     16  C   UNL     1       5.728   4.575  15.887  0.00  0.00    +0.000 A 
ATOM     17  C   UNL     1       5.329   3.952  14.701  0.00  0.00    +0.000 A 
ENDBRANCH   7  16
ENDBRANCH   1   9
BRANCH   5  18
ATOM     18  C   UNL     1       1.848   7.817  20.861  0.00  0.00    +0.000 C 
BRANCH  18  19
ATOM     19  N   UNL     1       0.756   8.660  20.310  0.00  0.00    +0.000 NA
ATOM     20  C   UNL     1       0.160   9.463  21.388  0.00  0.00    +0.000 C 
ATOM     21  C   UNL     1      -0.843  10.500  20.880  0.00  0.00    +0.000 C 
ATOM     22  C   UNL     1      -0.287  11.396  19.771  0.00  0.00    +0.000 C 
ATOM     23  C   UNL     1       0.309  10.520  18.668  0.00  0.00    +0.000 C 
ATOM     24  C   UNL     1       1.300   9.490  19.222  0.00  0.00    +0.000 C 
BRANCH  22  25
ATOM     25  C   UNL     1       0.766  12.403  20.254  0.00  0.00    +0.000 C 
ATOM     26  O   UNL     1       1.666  12.095  21.033  0.00  0.00    +0.000 OA
ATOM     27  N   UNL     1       0.724  13.663  19.688  0.00  0.00    +0.000 N 
ATOM     28  C   UNL     1       1.775  14.636  19.940  0.00  0.00    +0.000 C 
ATOM     29  C   UNL     1       1.402  15.866  19.127  0.00  0.00    +0.000 C 
ATOM     30  C   UNL     1      -0.107  15.787  19.040  0.00  0.00    +0.000 C 
ATOM     31  F   UNL     1      -0.562  16.380  17.916  0.00  0.00    +0.000 F 
ATOM     32  F   UNL     1      -0.672  16.421  20.094  0.00  0.00    +0.000 F 
ATOM     33  C   UNL     1      -0.436  14.302  19.068  0.00  0.00    +0.000 C 
ENDBRANCH  22  25
ENDBRANCH  18  19
ENDBRANCH   5  18
TORSDOF 5
ENDMDL
MODEL 2
REMARK VINA RESULT:      -8.7      1.858      2.132
REMARK  Name = 
REMARK  6 active torsions:
REMARK  status: ('A' for Active; 'I' for Inactive)
REMARK    1  A    between atoms: C_1  and  C_2
REMARK    2  A    between atoms: C_6  and  C_7
REMARK    3  A    between atoms: N_9  and  C_10
REMARK    4  A    between atoms: C_14  and  C_15
REMARK    5  A    between atoms: C_15  and  N_16
REMARK    6  A    between atoms: C_19  and  C_20
REMARK                            x       y       z     vdW  Elec       q    Type
REMARK                         _______ _______ _______ _____ _____    ______ ____
ROOT
ATOM      1  C   UNL     1       2.894   4.994  18.309  0.00  0.00    +0.000 A 
ATOM      2  C   UNL     1       2.037   3.995  18.788  0.00  0.00    +0.000 A 
ATOM      3  C   UNL     1       1.250   4.194  19.921  0.00  0.00    +0.000 A 
ATOM      4  C   UNL     1       1.303   5.401  20.601  0.00  0.00    +0.000 A 
ATOM      5  C   UNL     1       2.172   6.416  20.171  0.00  0.00    +0.000 A 
ATOM      6  C   UNL     1       2.985   6.192  19.037  0.00  0.00    +0.000 A 
ENDROOT
BRANCH   1   9
ATOM      7  C   UNL     1       5.038   4.671  17.100  0.00  0.00    +0.000 C 
ATOM      8  O   UNL     1       5.732   4.542  18.107  0.00  0.00    +0.000 OA
ATOM      9  N   UNL     1       3.656   4.841  17.117  0.00  0.00    +0.000 N 
ATOM     10  H   UNL     1       3.134   4.710  16.264  0.00  0.00    +0.000 HD
BRANCH   7  16
ATOM     11  C   UNL     1       5.757   3.211  12.245  0.00  0.00    +0.000 C 
ATOM     12  C   UNL     1       6.119   3.982  13.479  0.00  0.00    +0.000 A 
ATOM     13  C   UNL     1       7.299   4.721  13.516  0.00  0.00    +0.000 A 
ATOM     14  N   UNL     1       7.746   5.364  14.607  0.00  0.00    +0.000 NA
ATOM     15  C   UNL     1       6.975   5.275  15.717  0.00  0.00    +0.000 A 
ATOM     16  C   UNL     1       5.755   4.598  15.793  0.00  0.00    +0.000 A 
ATOM     17  C   UNL     1       5.325   3.936  14.640  0.00  0.00    +0.000 A 
ENDBRANCH   7  16
ENDBRANCH   1   9
BRANCH   5  18
ATOM     18  C   UNL     1       2.142   7.762  20.873  0.00  0.00    +0.000 C 
BRANCH  18  19
ATOM     19  N   UNL     1       0.795   8.378  20.984  0.00  0.00    +0.000 NA
ATOM     20  C   UNL     1       0.624   8.955  22.326  0.00  0.00    +0.000 C 
ATOM     21  C   UNL     1      -0.659   9.775  22.468  0.00  0.00    +0.000 C 
ATOM     22  C   UNL     1      -0.823  10.845  21.386  0.00  0.00    +0.000 C 
ATOM     23  C   UNL     1      -0.652  10.198  20.011  0.00  0.00    +0.000 C 
ATOM     24  C   UNL     1       0.640   9.379  19.916  0.00  0.00    +0.000 C 
BRANCH  22  25
ATOM     25  C   UNL     1       0.148  12.025  21.525  0.00  0.00    +0.000 C 
ATOM     26  O   UNL     1       1.314  11.971  21.135  0.00  0.00    +0.000 OA
ATOM     27  N   UNL     1      -0.376  13.205  22.019  0.00  0.00    +0.000 N 
ATOM     28  C   UNL     1       0.406  14.430  22.027  0.00  0.00    +0.000 C 
ATOM     29  C   UNL     1      -0.510  15.500  22.599  0.00  0.00    +0.000 C 
ATOM     30  C   UNL     1      -1.450  14.720  23.492  0.00  0.00    +0.000 C 
ATOM     31  F   UNL     1      -2.647  15.334  23.593  0.00  0.00    +0.000 F 
ATOM     32  F   UNL     1      -0.936  14.618  24.740  0.00  0.00    +0.000 F 
ATOM     33  C   UNL     1      -1.572  13.347  22.848  0.00  0.00    +0.000 C 
ENDBRANCH  22  25
ENDBRANCH  18  19
ENDBRANCH   5  18
TORSDOF 5
ENDMDL
MODEL 3
REMARK VINA RESULT:      -8.5      2.836      3.328
REMARK  Name = 
REMARK  6 active torsions:
REMARK  status: ('A' for Active; 'I' for Inactive)
REMARK    1  A    between atoms: C_1  and  C_2
REMARK    2  A    between atoms: C_6  and  C_7
REMARK    3  A    between atoms: N_9  and  C_10
REMARK    4  A    between atoms: C_14  and  C_15
REMARK    5  A    between atoms: C_15  and  N_16
REMARK    6  A    between atoms: C_19  and  C_20
REMARK                            x       y       z     vdW  Elec       q    Type
REMARK                         _______ _______ _______ _____ _____    ______ ____
ROOT
ATOM      1  C   UNL     1       2.800   5.754  18.700  0.00  0.00    +0.000 A 
ATOM      2  C   UNL     1       2.199   4.741  19.457  0.00  0.00    +0.000 A 
ATOM      3  C   UNL     1       1.414   5.035  20.571  0.00  0.00    +0.000 A 
ATOM      4  C   UNL     1       1.214   6.353  20.953  0.00  0.00    +0.000 A 
ATOM      5  C   UNL     1       1.824   7.396  20.238  0.00  0.00    +0.000 A 
ATOM      6  C   UNL     1       2.639   7.083  19.127  0.00  0.00    +0.000 A 
ENDROOT
BRANCH   1   9
ATOM      7  C   UNL     1       4.889   5.110  17.523  0.00  0.00    +0.000 C 
ATOM      8  O   UNL     1       5.540   4.882  18.541  0.00  0.00    +0.000 OA
ATOM      9  N   UNL     1       3.548   5.485  17.519  0.00  0.00    +0.000 N 
ATOM     10  H   UNL     1       3.024   5.431  16.659  0.00  0.00    +0.000 HD
BRANCH   7  16
ATOM     11  C   UNL     1       5.518   3.398  12.739  0.00  0.00    +0.000 C 
ATOM     12  C   UNL     1       5.933   4.188  13.943  0.00  0.00    +0.000 A 
ATOM     13  C   UNL     1       7.169   4.831  13.962  0.00  0.00    +0.000 A 
ATOM     14  N   UNL     1       7.660   5.480  15.030  0.00  0.00    +0.000 NA
ATOM     15  C   UNL     1       6.877   5.499  16.136  0.00  0.00    +0.000 A 
ATOM     16  C   UNL     1       5.606   4.926  16.228  0.00  0.00    +0.000 A 
ATOM     17  C   UNL     1       5.131   4.253  15.098  0.00  0.00    +0.000 A 
ENDBRANCH   7  16
ENDBRANCH   1   9
BRANCH   5  18
ATOM     18  C   UNL     1       1.511   8.833  20.614  0.00  0.00    +0.000 C 
BRANCH  18  19
ATOM     19  N   UNL     1       1.068   9.691  19.486  0.00  0.00    +0.000 NA
ATOM     20  C   UNL     1      -0.248   9.242  19.010  0.00  0.00    +0.000 C 
ATOM     21  C   UNL     1      -0.867  10.185  17.977  0.00  0.00    +0.000 C 
ATOM     22  C   UNL     1      -0.918  11.645  18.435  0.00  0.00    +0.000 C 
ATOM     23  C   UNL     1       0.473  12.072  18.907  0.00  0.00    +0.000 C 
ATOM     24  C   UNL     1       1.058  11.095  19.933  0.00  0.00    +0.000 C 
BRANCH  22  25
ATOM     25  C   UNL     1      -1.944  11.913  19.545  0.00  0.00    +0.000 C 
ATOM     26  O   UNL     1      -1.618  12.078  20.719  0.00  0.00    +0.000 OA
ATOM     27  N   UNL     1      -3.259  12.068  19.149  0.00  0.00    +0.000 N 
ATOM     28  C   UNL     1      -4.281  12.498  20.088  0.00  0.00    +0.000 C 
ATOM     29  C   UNL     1      -5.569  12.588  19.284  0.00  0.00    +0.000 C 
ATOM     30  C   UNL     1      -5.365  11.577  18.176  0.00  0.00    +0.000 C 
ATOM     31  F   UNL     1      -6.057  11.920  17.071  0.00  0.00    +0.000 F 
ATOM     32  F   UNL     1      -5.799  10.357  18.569  0.00  0.00    +0.000 F 
ATOM     33  C   UNL     1      -3.865  11.556  17.921  0.00  0.00    +0.000 C 
ENDBRANCH  22  25
ENDBRANCH  18  19
ENDBRANCH   5  18
TORSDOF 5
ENDMDL
MODEL 4
REMARK VINA RESULT:      -8.2      2.702      3.527
REMARK  Name = 
REMARK  6 active torsions:
REMARK  status: ('A' for Active; 'I' for Inactive)
REMARK    1  A    between atoms: C_1  and  C_2
REMARK    2  A    between atoms: C_6  and  C_7
REMARK    3  A    between atoms: N_9  and  C_10
REMARK    4  A    between atoms: C_14  and  C_15
REMARK    5  A    between atoms: C_15  and  N_16
REMARK    6  A    between atoms: C_19  and  C_20
REMARK                            x       y       z     vdW  Elec       q    Type
REMARK                         _______ _______ _______ _____ _____    ______ ____
ROOT
ATOM      1  C   UNL     1       3.704   6.637  17.918  0.00  0.00    +0.000 A 
ATOM      2  C   UNL     1       3.636   5.821  19.054  0.00  0.00    +0.000 A 
ATOM      3  C   UNL     1       2.786   6.124  20.116  0.00  0.00    +0.000 A 
ATOM      4  C   UNL     1       1.983   7.253  20.064  0.00  0.00    +0.000 A 
ATOM      5  C   UNL     1       2.044   8.113  18.957  0.00  0.00    +0.000 A 
ATOM      6  C   UNL     1       2.930   7.809  17.899  0.00  0.00    +0.000 A 
ENDROOT
BRANCH   1   9
ATOM      7  C   UNL     1       4.651   5.024  16.286  0.00  0.00    +0.000 C 
ATOM      8  O   UNL     1       4.025   4.048  16.695  0.00  0.00    +0.000 OA
ATOM      9  N   UNL     1       4.511   6.314  16.791  0.00  0.00    +0.000 N 
ATOM     10  H   UNL     1       4.877   7.092  16.263  0.00  0.00    +0.000 HD
BRANCH   7  16
ATOM     11  C   UNL     1       6.193   2.889  11.894  0.00  0.00    +0.000 C 
ATOM     12  C   UNL     1       6.340   3.838  13.045  0.00  0.00    +0.000 A 
ATOM     13  C   UNL     1       7.499   4.599  13.176  0.00  0.00    +0.000 A 
ATOM     14  N   UNL     1       7.754   5.403  14.221  0.00  0.00    +0.000 NA
ATOM     15  C   UNL     1       6.801   5.460  15.183  0.00  0.00    +0.000 A 
ATOM     16  C   UNL     1       5.584   4.776  15.147  0.00  0.00    +0.000 A 
ATOM     17  C   UNL     1       5.356   3.945  14.046  0.00  0.00    +0.000 A 
ENDBRANCH   7  16
ENDBRANCH   1   9
BRANCH   5  18
ATOM     18  C   UNL     1       1.087   9.288  18.879  0.00  0.00    +0.000 C 
BRANCH  18  19
ATOM     19  N   UNL     1       0.975  10.086  20.127  0.00  0.00    +0.000 NA
ATOM     20  C   UNL     1       1.073  11.518  19.808  0.00  0.00    +0.000 C 
ATOM     21  C   UNL     1       0.779  12.421  21.007  0.00  0.00    +0.000 C 
ATOM     22  C   UNL     1      -0.548  12.103  21.700  0.00  0.00    +0.000 C 
ATOM     23  C   UNL     1      -0.600  10.609  22.024  0.00  0.00    +0.000 C 
ATOM     24  C   UNL     1      -0.289   9.743  20.799  0.00  0.00    +0.000 C 
BRANCH  22  25
ATOM     25  C   UNL     1      -1.787  12.496  20.883  0.00  0.00    +0.000 C 
ATOM     26  O   UNL     1      -1.755  12.641  19.663  0.00  0.00    +0.000 OA
ATOM     27  N   UNL     1      -2.983  12.580  21.572  0.00  0.00    +0.000 N 
ATOM     28  C   UNL     1      -4.242  12.771  20.872  0.00  0.00    +0.000 C 
ATOM     29  C   UNL     1      -5.316  12.774  21.949  0.00  0.00    +0.000 C 
ATOM     30  C   UNL     1      -4.585  13.275  23.176  0.00  0.00    +0.000 C 
ATOM     31  F   UNL     1      -5.141  12.791  24.305  0.00  0.00    +0.000 F 
ATOM     32  F   UNL     1      -4.644  14.626  23.237  0.00  0.00    +0.000 F 
ATOM     33  C   UNL     1      -3.147  12.808  23.007  0.00  0.00    +0.000 C 
ENDBRANCH  22  25
ENDBRANCH  18  19
ENDBRANCH   5  18
TORSDOF 5
ENDMDL
MODEL 5
REMARK VINA RESULT:      -8.1      1.355      1.520
REMARK  Name = 
REMARK  6 active torsions:
REMARK  status: ('A' for Active; 'I' for Inactive)
REMARK    1  A    between atoms: C_1  and  C_2
REMARK    2  A    between atoms: C_6  and  C_7
REMARK    3  A    between atoms: N_9  and  C_10
REMARK    4  A    between atoms: C_14  and  C_15
REMARK    5  A    between atoms: C_15  and  N_16
REMARK    6  A    between atoms: C_19  and  C_20
REMARK                            x       y       z     vdW  Elec       q    Type
REMARK                         _______ _______ _______ _____ _____    ______ ____
ROOT
ATOM      1  C   UNL     1       3.286   5.236  18.810  0.00  0.00    +0.000 A 
ATOM      2  C   UNL     1       2.714   4.031  19.238  0.00  0.00    +0.000 A 
ATOM      3  C   UNL     1       1.751   4.001  20.245  0.00  0.00    +0.000 A 
ATOM      4  C   UNL     1       1.338   5.179  20.848  0.00  0.00    +0.000 A 
ATOM      5  C   UNL     1       1.909   6.404  20.469  0.00  0.00    +0.000 A 
ATOM      6  C   UNL     1       2.904   6.418  19.466  0.00  0.00    +0.000 A 
ENDROOT
BRANCH   1   9
ATOM      7  C   UNL     1       4.266   4.377  16.697  0.00  0.00    +0.000 C 
ATOM      8  O   UNL     1       3.455   3.466  16.544  0.00  0.00    +0.000 OA
ATOM      9  N   UNL     1       4.219   5.301  17.737  0.00  0.00    +0.000 N 
ATOM     10  H   UNL     1       4.769   6.145  17.672  0.00  0.00    +0.000 HD
BRANCH   7  16
ATOM     11  C   UNL     1       6.500   3.469  12.180  0.00  0.00    +0.000 C 
ATOM     12  C   UNL     1       6.410   4.138  13.518  0.00  0.00    +0.000 A 
ATOM     13  C   UNL     1       7.448   4.956  13.958  0.00  0.00    +0.000 A 
ATOM     14  N   UNL     1       7.494   5.518  15.177  0.00  0.00    +0.000 NA
ATOM     15  C   UNL     1       6.448   5.260  15.999  0.00  0.00    +0.000 A 
ATOM     16  C   UNL     1       5.334   4.489  15.660  0.00  0.00    +0.000 A 
ATOM     17  C   UNL     1       5.323   3.916  14.386  0.00  0.00    +0.000 A 
ENDBRANCH   7  16
ENDBRANCH   1   9
BRANCH   5  18
ATOM     18  C   UNL     1       1.372   7.689  21.073  0.00  0.00    +0.000 C 
BRANCH  18  19
ATOM     19  N   UNL     1       0.772   8.634  20.098  0.00  0.00    +0.000 NA
ATOM     20  C   UNL     1      -0.153   9.542  20.793  0.00  0.00    +0.000 C 
ATOM     21  C   UNL     1      -0.672  10.670  19.900  0.00  0.00    +0.000 C 
ATOM     22  C   UNL     1       0.440  11.452  19.196  0.00  0.00    +0.000 C 
ATOM     23  C   UNL     1       1.367  10.471  18.477  0.00  0.00    +0.000 C 
ATOM     24  C   UNL     1       1.855   9.353  19.405  0.00  0.00    +0.000 C 
BRANCH  22  25
ATOM     25  C   UNL     1       1.263  12.345  20.136  0.00  0.00    +0.000 C 
ATOM     26  O   UNL     1       1.255  12.202  21.357  0.00  0.00    +0.000 OA
ATOM     27  N   UNL     1       2.107  13.262  19.538  0.00  0.00    +0.000 N 
ATOM     28  C   UNL     1       3.057  14.033  20.323  0.00  0.00    +0.000 C 
ATOM     29  C   UNL     1       3.820  14.889  19.324  0.00  0.00    +0.000 C 
ATOM     30  C   UNL     1       2.832  15.074  18.191  0.00  0.00    +0.000 C 
ATOM     31  F   UNL     1       3.468  15.250  17.015  0.00  0.00    +0.000 F 
ATOM     32  F   UNL     1       2.067  16.168  18.411  0.00  0.00    +0.000 F 
ATOM     33  C   UNL     1       1.979  13.814  18.190  0.00  0.00    +0.000 C 
ENDBRANCH  22  25
ENDBRANCH  18  19
ENDBRANCH   5  18
TORSDOF 5
ENDMDL
MODEL 6
REMARK VINA RESULT:      -8.0      4.398     10.834
REMARK  Name = 
REMARK  6 active torsions:
REMARK  status: ('A' for Active; 'I' for Inactive)
REMARK    1  A    between atoms: C_1  and  C_2
REMARK    2  A    between atoms: C_6  and  C_7
REMARK    3  A    between atoms: N_9  and  C_10
REMARK    4  A    between atoms: C_14  and  C_15
REMARK    5  A    between atoms: C_15  and  N_16
REMARK    6  A    between atoms: C_19  and  C_20
REMARK                            x       y       z     vdW  Elec       q    Type
REMARK                         _______ _______ _______ _____ _____    ______ ____
ROOT
ATOM      1  C   UNL     1       1.180   7.831  20.408  0.00  0.00    +0.000 A 
ATOM      2  C   UNL     1       1.067   6.640  21.137  0.00  0.00    +0.000 A 
ATOM      3  C   UNL     1       1.833   5.519  20.822  0.00  0.00    +0.000 A 
ATOM      4  C   UNL     1       2.730   5.565  19.766  0.00  0.00    +0.000 A 
ATOM      5  C   UNL     1       2.851   6.729  18.991  0.00  0.00    +0.000 A 
ATOM      6  C   UNL     1       2.049   7.850  19.304  0.00  0.00    +0.000 A 
ENDROOT
BRANCH   1   9
ATOM      7  C   UNL     1       0.755   9.798  21.861  0.00  0.00    +0.000 C 
ATOM      8  O   UNL     1       1.718   9.615  22.604  0.00  0.00    +0.000 OA
ATOM      9  N   UNL     1       0.461   9.010  20.752  0.00  0.00    +0.000 N 
ATOM     10  H   UNL     1      -0.197   9.350  20.067  0.00  0.00    +0.000 HD
BRANCH   7  16
ATOM     11  C   UNL     1      -0.664  14.716  21.743  0.00  0.00    +0.000 C 
ATOM     12  C   UNL     1      -0.856  13.276  22.113  0.00  0.00    +0.000 A 
ATOM     13  C   UNL     1      -1.937  12.899  22.906  0.00  0.00    +0.000 A 
ATOM     14  N   UNL     1      -2.134  11.651  23.361  0.00  0.00    +0.000 NA
ATOM     15  C   UNL     1      -1.211  10.726  23.001  0.00  0.00    +0.000 A 
ATOM     16  C   UNL     1      -0.108  10.973  22.180  0.00  0.00    +0.000 A 
ATOM     17  C   UNL     1       0.068  12.284  21.731  0.00  0.00    +0.000 A 
ENDBRANCH   7  16
ENDBRANCH   1   9
BRANCH   5  18
ATOM     18  C   UNL     1       3.909   6.788  17.904  0.00  0.00    +0.000 C 
BRANCH  18  19
ATOM     19  N   UNL     1       4.808   5.607  17.842  0.00  0.00    +0.000 NA
ATOM     20  C   UNL     1       4.452   4.775  16.684  0.00  0.00    +0.000 C 
ATOM     21  C   UNL     1       5.445   3.639  16.434  0.00  0.00    +0.000 C 
ATOM     22  C   UNL     1       6.900   4.109  16.346  0.00  0.00    +0.000 C 
ATOM     23  C   UNL     1       7.229   4.957  17.575  0.00  0.00    +0.000 C 
ATOM     24  C   UNL     1       6.203   6.075  17.794  0.00  0.00    +0.000 C 
BRANCH  22  25
ATOM     25  C   UNL     1       7.223   4.900  15.071  0.00  0.00    +0.000 C 
ATOM     26  O   UNL     1       7.793   5.990  15.097  0.00  0.00    +0.000 OA
ATOM     27  N   UNL     1       6.935   4.283  13.868  0.00  0.00    +0.000 N 
ATOM     28  C   UNL     1       7.359   4.864  12.605  0.00  0.00    +0.000 C 
ATOM     29  C   UNL     1       6.900   3.892  11.530  0.00  0.00    +0.000 C 
ATOM     30  C   UNL     1       5.692   3.223  12.150  0.00  0.00    +0.000 C 
ATOM     31  F   UNL     1       5.524   1.975  11.666  0.00  0.00    +0.000 F 
ATOM     32  F   UNL     1       4.571   3.926  11.869  0.00  0.00    +0.000 F 
ATOM     33  C   UNL     1       5.960   3.216  13.648  0.00  0.00    +0.000 C 
ENDBRANCH  22  25
ENDBRANCH  18  19
ENDBRANCH   5  18
TORSDOF 5
ENDMDL
MODEL 7
REMARK VINA RESULT:      -8.0      4.348     10.783
REMARK  Name = 
REMARK  6 active torsions:
REMARK  status: ('A' for Active; 'I' for Inactive)
REMARK    1  A    between atoms: C_1  and  C_2
REMARK    2  A    between atoms: C_6  and  C_7
REMARK    3  A    between atoms: N_9  and  C_10
REMARK    4  A    between atoms: C_14  and  C_15
REMARK    5  A    between atoms: C_15  and  N_16
REMARK    6  A    between atoms: C_19  and  C_20
REMARK                            x       y       z     vdW  Elec       q    Type
REMARK                         _______ _______ _______ _____ _____    ______ ____
ROOT
ATOM      1  C   UNL     1       1.274   8.349  20.437  0.00  0.00    +0.000 A 
ATOM      2  C   UNL     1       1.018   7.173  21.153  0.00  0.00    +0.000 A 
ATOM      3  C   UNL     1       1.584   5.955  20.777  0.00  0.00    +0.000 A 
ATOM      4  C   UNL     1       2.421   5.889  19.673  0.00  0.00    +0.000 A 
ATOM      5  C   UNL     1       2.678   7.039  18.911  0.00  0.00    +0.000 A 
ATOM      6  C   UNL     1       2.076   8.261  19.287  0.00  0.00    +0.000 A 
ENDROOT
BRANCH   1   9
ATOM      7  C   UNL     1      -0.136  10.361  20.083  0.00  0.00    +0.000 C 
ATOM      8  O   UNL     1      -0.656   9.969  19.040  0.00  0.00    +0.000 OA
ATOM      9  N   UNL     1       0.764   9.615  20.839  0.00  0.00    +0.000 N 
ATOM     10  H   UNL     1       0.968   9.901  21.785  0.00  0.00    +0.000 HD
BRANCH   7  16
ATOM     11  C   UNL     1      -1.175  13.976  23.557  0.00  0.00    +0.000 C 
ATOM     12  C   UNL     1      -1.004  13.479  22.154  0.00  0.00    +0.000 A 
ATOM     13  C   UNL     1      -1.300  14.313  21.078  0.00  0.00    +0.000 A 
ATOM     14  N   UNL     1      -1.265  13.921  19.794  0.00  0.00    +0.000 NA
ATOM     15  C   UNL     1      -0.907  12.634  19.566  0.00  0.00    +0.000 A 
ATOM     16  C   UNL     1      -0.551  11.715  20.556  0.00  0.00    +0.000 A 
ATOM     17  C   UNL     1      -0.606  12.156  21.881  0.00  0.00    +0.000 A 
ENDBRANCH   7  16
ENDBRANCH   1   9
BRANCH   5  18
ATOM     18  C   UNL     1       3.672   6.962  17.767  0.00  0.00    +0.000 C 
BRANCH  18  19
ATOM     19  N   UNL     1       4.557   5.769  17.788  0.00  0.00    +0.000 NA
ATOM     20  C   UNL     1       4.258   4.911  16.633  0.00  0.00    +0.000 C 
ATOM     21  C   UNL     1       5.249   3.757  16.470  0.00  0.00    +0.000 C 
ATOM     22  C   UNL     1       6.712   4.207  16.455  0.00  0.00    +0.000 C 
ATOM     23  C   UNL     1       6.981   5.083  17.680  0.00  0.00    +0.000 C 
ATOM     24  C   UNL     1       5.959   6.219  17.810  0.00  0.00    +0.000 C 
BRANCH  22  25
ATOM     25  C   UNL     1       7.120   4.961  15.182  0.00  0.00    +0.000 C 
ATOM     26  O   UNL     1       7.695   6.048  15.214  0.00  0.00    +0.000 OA
ATOM     27  N   UNL     1       6.903   4.312  13.981  0.00  0.00    +0.000 N 
ATOM     28  C   UNL     1       7.409   4.855  12.732  0.00  0.00    +0.000 C 
ATOM     29  C   UNL     1       7.010   3.856  11.656  0.00  0.00    +0.000 C 
ATOM     30  C   UNL     1       5.762   3.212  12.218  0.00  0.00    +0.000 C 
ATOM     31  F   UNL     1       5.615   1.952  11.759  0.00  0.00    +0.000 F 
ATOM     32  F   UNL     1       4.665   3.913  11.849  0.00  0.00    +0.000 F 
ATOM     33  C   UNL     1       5.936   3.245  13.730  0.00  0.00    +0.000 C 
ENDBRANCH  22  25
ENDBRANCH  18  19
ENDBRANCH   5  18
TORSDOF 5
ENDMDL
MODEL 8
REMARK VINA RESULT:      -7.9      2.439      2.848
REMARK  Name = 
REMARK  6 active torsions:
REMARK  status: ('A' for Active; 'I' for Inactive)
REMARK    1  A    between atoms: C_1  and  C_2
REMARK    2  A    between atoms: C_6  and  C_7
REMARK    3  A    between atoms: N_9  and  C_10
REMARK    4  A    between atoms: C_14  and  C_15
REMARK    5  A    between atoms: C_15  and  N_16
REMARK    6  A    between atoms: C_19  and  C_20
REMARK                            x       y       z     vdW  Elec       q    Type
REMARK                         _______ _______ _______ _____ _____    ______ ____
ROOT
ATOM      1  C   UNL     1       2.870   5.575  18.607  0.00  0.00    +0.000 A 
ATOM      2  C   UNL     1       2.131   4.460  19.023  0.00  0.00    +0.000 A 
ATOM      3  C   UNL     1       1.249   4.533  20.100  0.00  0.00    +0.000 A 
ATOM      4  C   UNL     1       1.087   5.727  20.786  0.00  0.00    +0.000 A 
ATOM      5  C   UNL     1       1.832   6.859  20.420  0.00  0.00    +0.000 A 
ATOM      6  C   UNL     1       2.742   6.765  19.343  0.00  0.00    +0.000 A 
ENDROOT
BRANCH   1   9
ATOM      7  C   UNL     1       4.557   4.474  17.156  0.00  0.00    +0.000 C 
ATOM      8  O   UNL     1       4.575   3.409  17.770  0.00  0.00    +0.000 OA
ATOM      9  N   UNL     1       3.724   5.545  17.469  0.00  0.00    +0.000 N 
ATOM     10  H   UNL     1       3.599   6.285  16.795  0.00  0.00    +0.000 HD
BRANCH   7  16
ATOM     11  C   UNL     1       6.210   3.426  12.424  0.00  0.00    +0.000 C 
ATOM     12  C   UNL     1       6.271   4.154  13.733  0.00  0.00    +0.000 A 
ATOM     13  C   UNL     1       7.326   5.026  13.995  0.00  0.00    +0.000 A 
ATOM     14  N   UNL     1       7.509   5.647  15.172  0.00  0.00    +0.000 NA
ATOM     15  C   UNL     1       6.592   5.394  16.137  0.00  0.00    +0.000 A 
ATOM     16  C   UNL     1       5.473   4.572  15.982  0.00  0.00    +0.000 A 
ATOM     17  C   UNL     1       5.318   3.938  14.746  0.00  0.00    +0.000 A 
ENDBRANCH   7  16
ENDBRANCH   1   9
BRANCH   5  18
ATOM     18  C   UNL     1       1.566   8.179  21.121  0.00  0.00    +0.000 C 
BRANCH  18  19
ATOM     19  N   UNL     1       1.081   9.269  20.237  0.00  0.00    +0.000 NA
ATOM     20  C   UNL     1      -0.359   9.106  19.995  0.00  0.00    +0.000 C 
ATOM     21  C   UNL     1      -0.981  10.290  19.251  0.00  0.00    +0.000 C 
ATOM     22  C   UNL     1      -0.683  11.644  19.901  0.00  0.00    +0.000 C 
ATOM     23  C   UNL     1       0.824  11.775  20.120  0.00  0.00    +0.000 C 
ATOM     24  C   UNL     1       1.407  10.564  20.859  0.00  0.00    +0.000 C 
BRANCH  22  25
ATOM     25  C   UNL     1      -1.419  11.873  21.228  0.00  0.00    +0.000 C 
ATOM     26  O   UNL     1      -0.920  11.594  22.317  0.00  0.00    +0.000 OA
ATOM     27  N   UNL     1      -2.642  12.512  21.156  0.00  0.00    +0.000 N 
ATOM     28  C   UNL     1      -3.341  12.935  22.358  0.00  0.00    +0.000 C 
ATOM     29  C   UNL     1      -4.610  13.623  21.877  0.00  0.00    +0.000 C 
ATOM     30  C   UNL     1      -4.891  12.956  20.548  0.00  0.00    +0.000 C 
ATOM     31  F   UNL     1      -5.554  13.787  19.717  0.00  0.00    +0.000 F 
ATOM     32  F   UNL     1      -5.660  11.858  20.728  0.00  0.00    +0.000 F 
ATOM     33  C   UNL     1      -3.527  12.571  19.993  0.00  0.00    +0.000 C 
ENDBRANCH  22  25
ENDBRANCH  18  19
ENDBRANCH   5  18
TORSDOF 5
ENDMDL
MODEL 9
REMARK VINA RESULT:      -7.8      3.966      6.299
REMARK  Name = 
REMARK  6 active torsions:
REMARK  status: ('A' for Active; 'I' for Inactive)
REMARK    1  A    between atoms: C_1  and  C_2
REMARK    2  A    between atoms: C_6  and  C_7
REMARK    3  A    between atoms: N_9  and  C_10
REMARK    4  A    between atoms: C_14  and  C_15
REMARK    5  A    between atoms: C_15  and  N_16
REMARK    6  A    between atoms: C_19  and  C_20
REMARK                            x       y       z     vdW  Elec       q    Type
REMARK                         _______ _______ _______ _____ _____    ______ ____
ROOT
ATOM      1  C   UNL     1       6.868   6.454  16.823  0.00  0.00    +0.000 A 
ATOM      2  C   UNL     1       6.890   5.888  15.542  0.00  0.00    +0.000 A 
ATOM      3  C   UNL     1       6.341   4.630  15.294  0.00  0.00    +0.000 A 
ATOM      4  C   UNL     1       5.758   3.911  16.325  0.00  0.00    +0.000 A 
ATOM      5  C   UNL     1       5.743   4.430  17.629  0.00  0.00    +0.000 A 
ATOM      6  C   UNL     1       6.327   5.694  17.873  0.00  0.00    +0.000 A 
ENDROOT
BRANCH   1   9
ATOM      7  C   UNL     1       8.164   8.079  18.180  0.00  0.00    +0.000 C 
ATOM      8  O   UNL     1       8.611   7.253  18.973  0.00  0.00    +0.000 OA
ATOM      9  N   UNL     1       7.359   7.763  17.089  0.00  0.00    +0.000 N 
ATOM     10  H   UNL     1       7.223   8.449  16.362  0.00  0.00    +0.000 HD
BRANCH   7  16
ATOM     11  C   UNL     1      10.521  11.927  20.601  0.00  0.00    +0.000 C 
ATOM     12  C   UNL     1       9.700  11.349  19.488  0.00  0.00    +0.000 A 
ATOM     13  C   UNL     1       9.151  12.187  18.520  0.00  0.00    +0.000 A 
ATOM     14  N   UNL     1       8.330  11.767  17.544  0.00  0.00    +0.000 NA
ATOM     15  C   UNL     1       8.046  10.442  17.524  0.00  0.00    +0.000 A 
ATOM     16  C   UNL     1       8.564   9.498  18.414  0.00  0.00    +0.000 A 
ATOM     17  C   UNL     1       9.410   9.972  19.420  0.00  0.00    +0.000 A 
ENDBRANCH   7  16
ENDBRANCH   1   9
BRANCH   5  18
ATOM     18  C   UNL     1       5.013   3.669  18.721  0.00  0.00    +0.000 C 
BRANCH  18  19
ATOM     19  N   UNL     1       3.615   4.108  18.961  0.00  0.00    +0.000 NA
ATOM     20  C   UNL     1       3.589   5.106  20.041  0.00  0.00    +0.000 C 
ATOM     21  C   UNL     1       2.216   5.754  20.226  0.00  0.00    +0.000 C 
ATOM     22  C   UNL     1       1.632   6.329  18.933  0.00  0.00    +0.000 C 
ATOM     23  C   UNL     1       1.667   5.255  17.845  0.00  0.00    +0.000 C 
ATOM     24  C   UNL     1       3.057   4.626  17.701  0.00  0.00    +0.000 C 
BRANCH  22  25
ATOM     25  C   UNL     1       2.349   7.591  18.434  0.00  0.00    +0.000 C 
ATOM     26  O   UNL     1       3.387   7.545  17.776  0.00  0.00    +0.000 OA
ATOM     27  N   UNL     1       1.716   8.797  18.668  0.00  0.00    +0.000 N 
ATOM     28  C   UNL     1       2.214  10.033  18.088  0.00  0.00    +0.000 C 
ATOM     29  C   UNL     1       1.246  11.118  18.534  0.00  0.00    +0.000 C 
ATOM     30  C   UNL     1       0.703  10.590  19.844  0.00  0.00    +0.000 C 
ATOM     31  F   UNL     1      -0.543  11.052  20.077  0.00  0.00    +0.000 F 
ATOM     32  F   UNL     1       1.486  10.989  20.872  0.00  0.00    +0.000 F 
ATOM     33  C   UNL     1       0.727   9.074  19.709  0.00  0.00    +0.000 C 
ENDBRANCH  22  25
ENDBRANCH  18  19
ENDBRANCH   5  18
TORSDOF 5
ENDMDL
