MODEL 1
REMARK VINA RESULT:      -8.6      0.000      0.000
REMARK  Name = 
REMARK  9 active torsions:
REMARK  status: ('A' for Active; 'I' for Inactive)
REMARK    1  A    between atoms: C_1  and  C_2
REMARK    2  A    between atoms: C_2  and  O_3
REMARK    3  A    between atoms: C_2  and  C_22
REMARK    4  A    between atoms: O_3  and  C_4
REMARK    5  A    between atoms: C_4  and  N_5
REMARK    6  A    between atoms: C_7  and  N_8
REMARK    7  A    between atoms: N_8  and  C_9
REMARK    8  A    between atoms: C_9  and  C_10
REMARK    9  A    between atoms: C_10  and  C_11
REMARK                            x       y       z     vdW  Elec       q    Type
REMARK                         _______ _______ _______ _____ _____    ______ ____
ROOT
ATOM      1  N   UNL     1       5.323   4.985  18.109  0.00  0.00    +0.000 N 
ATOM      2  C   UNL     1       6.201   6.053  18.046  0.00  0.00    +0.000 A 
ATOM      3  C   UNL     1       6.994   6.301  16.995  0.00  0.00    +0.000 A 
ATOM      4  C   UNL     1       6.857   5.343  15.841  0.00  0.00    +0.000 A 
ATOM      5  O   UNL     1       7.422   5.523  14.770  0.00  0.00    +0.000 OA
ATOM      6  N   UNL     1       6.075   4.243  16.042  0.00  0.00    +0.000 N 
ATOM      7  C   UNL     1       5.261   4.027  17.116  0.00  0.00    +0.000 A 
ATOM      8  O   UNL     1       4.543   3.031  17.154  0.00  0.00    +0.000 OA
ATOM      9  H   UNL     1       6.006   3.587  15.280  0.00  0.00    +0.000 HD
ENDROOT
BRANCH   3  10
ATOM     10  N   UNL     1       7.923   7.334  16.880  0.00  0.00    +0.000 N 
ATOM     11  H   UNL     1       8.249   7.422  15.917  0.00  0.00    +0.000 HD
BRANCH  10  12
ATOM     12  C   UNL     1       7.746   8.609  17.576  0.00  0.00    +0.000 C 
BRANCH  12  13
ATOM     13  C   UNL     1       8.712   8.765  18.758  0.00  0.00    +0.000 C 
BRANCH  13  14
ATOM     14  C   UNL     1       9.105  10.214  18.945  0.00  0.00    +0.000 A 
ATOM     15  C   UNL     1       9.660  10.660  20.154  0.00  0.00    +0.000 A 
ATOM     16  C   UNL     1       9.956  12.013  20.343  0.00  0.00    +0.000 A 
ATOM     17  C   UNL     1       9.702  12.933  19.327  0.00  0.00    +0.000 A 
ATOM     18  C   UNL     1       9.158  12.504  18.121  0.00  0.00    +0.000 A 
ATOM     19  C   UNL     1       8.863  11.152  17.932  0.00  0.00    +0.000 A 
ENDBRANCH  13  14
ENDBRANCH  12  13
ENDBRANCH  10  12
ENDBRANCH   3  10
BRANCH   1  20
ATOM     20  C   UNL     1       4.491   4.821  19.284  0.00  0.00    +0.000 C 
BRANCH  20  21
ATOM     21  O   UNL     1       4.030   6.103  19.694  0.00  0.00    +0.000 OA
BRANCH  21  23
ATOM     22  C   UNL     1       2.402   6.999  18.114  0.00  0.00    +0.000 C 
ATOM     23  C   UNL     1       2.632   6.310  19.460  0.00  0.00    +0.000 C 
BRANCH  23  24
ATOM     24  C   UNL     1       1.958   4.949  19.534  0.00  0.00    +0.000 A 
ATOM     25  C   UNL     1       1.706   4.348  20.779  0.00  0.00    +0.000 A 
ATOM     26  C   UNL     1       1.143   3.070  20.858  0.00  0.00    +0.000 A 
ATOM     27  C   UNL     1       0.818   2.374  19.696  0.00  0.00    +0.000 A 
ATOM     28  C   UNL     1       1.044   2.961  18.453  0.00  0.00    +0.000 A 
ATOM     29  C   UNL     1       1.608   4.239  18.373  0.00  0.00    +0.000 A 
ENDBRANCH  23  24
ENDBRANCH  21  23
ENDBRANCH  20  21
ENDBRANCH   1  20
TORSDOF 8
ENDMDL
MODEL 2
REMARK VINA RESULT:      -8.6      0.173      1.318
REMARK  Name = 
REMARK  9 active torsions:
REMARK  status: ('A' for Active; 'I' for Inactive)
REMARK    1  A    between atoms: C_1  and  C_2
REMARK    2  A    between atoms: C_2  and  O_3
REMARK    3  A    between atoms: C_2  and  C_22
REMARK    4  A    between atoms: O_3  and  C_4
REMARK    5  A    between atoms: C_4  and  N_5
REMARK    6  A    between atoms: C_7  and  N_8
REMARK    7  A    between atoms: N_8  and  C_9
REMARK    8  A    between atoms: C_9  and  C_10
REMARK    9  A    between atoms: C_10  and  C_11
REMARK                            x       y       z     vdW  Elec       q    Type
REMARK                         _______ _______ _______ _____ _____    ______ ____
ROOT
ATOM      1  N   UNL     1       5.418   4.924  18.019  0.00  0.00    +0.000 N 
ATOM      2  C   UNL     1       6.256   6.025  17.971  0.00  0.00    +0.000 A 
ATOM      3  C   UNL     1       7.048   6.309  16.929  0.00  0.00    +0.000 A 
ATOM      4  C   UNL     1       6.958   5.353  15.769  0.00  0.00    +0.000 A 
ATOM      5  O   UNL     1       7.525   5.561  14.703  0.00  0.00    +0.000 OA
ATOM      6  N   UNL     1       6.216   4.224  15.956  0.00  0.00    +0.000 N 
ATOM      7  C   UNL     1       5.401   3.971  17.021  0.00  0.00    +0.000 A 
ATOM      8  O   UNL     1       4.721   2.947  17.047  0.00  0.00    +0.000 OA
ATOM      9  H   UNL     1       6.179   3.570  15.190  0.00  0.00    +0.000 HD
ENDROOT
BRANCH   3  10
ATOM     10  N   UNL     1       7.938   7.377  16.828  0.00  0.00    +0.000 N 
ATOM     11  H   UNL     1       8.225   7.519  15.860  0.00  0.00    +0.000 HD
BRANCH  10  12
ATOM     12  C   UNL     1       7.747   8.613  17.589  0.00  0.00    +0.000 C 
BRANCH  12  13
ATOM     13  C   UNL     1       8.744   8.742  18.747  0.00  0.00    +0.000 C 
BRANCH  13  14
ATOM     14  C   UNL     1       9.090  10.194  19.000  0.00  0.00    +0.000 A 
ATOM     15  C   UNL     1       9.075  11.132  17.955  0.00  0.00    +0.000 A 
ATOM     16  C   UNL     1       9.462  12.455  18.184  0.00  0.00    +0.000 A 
ATOM     17  C   UNL     1       9.867  12.855  19.456  0.00  0.00    +0.000 A 
ATOM     18  C   UNL     1       9.880  11.938  20.502  0.00  0.00    +0.000 A 
ATOM     19  C   UNL     1       9.493  10.616  20.274  0.00  0.00    +0.000 A 
ENDBRANCH  13  14
ENDBRANCH  12  13
ENDBRANCH  10  12
ENDBRANCH   3  10
BRANCH   1  20
ATOM     20  C   UNL     1       4.581   4.722  19.186  0.00  0.00    +0.000 C 
BRANCH  20  21
ATOM     21  O   UNL     1       4.178   5.994  19.678  0.00  0.00    +0.000 OA
BRANCH  21  23
ATOM     22  C   UNL     1       2.530   7.033  18.211  0.00  0.00    +0.000 C 
ATOM     23  C   UNL     1       2.781   6.258  19.506  0.00  0.00    +0.000 C 
BRANCH  23  24
ATOM     24  C   UNL     1       2.065   4.915  19.521  0.00  0.00    +0.000 A 
ATOM     25  C   UNL     1       1.774   4.252  18.317  0.00  0.00    +0.000 A 
ATOM     26  C   UNL     1       1.062   3.048  18.315  0.00  0.00    +0.000 A 
ATOM     27  C   UNL     1       0.635   2.485  19.515  0.00  0.00    +0.000 A 
ATOM     28  C   UNL     1       0.930   3.119  20.720  0.00  0.00    +0.000 A 
ATOM     29  C   UNL     1       1.641   4.324  20.723  0.00  0.00    +0.000 A 
ENDBRANCH  23  24
ENDBRANCH  21  23
ENDBRANCH  20  21
ENDBRANCH   1  20
TORSDOF 8
ENDMDL
MODEL 3
REMARK VINA RESULT:      -8.4      3.605      6.720
REMARK  Name = 
REMARK  9 active torsions:
REMARK  status: ('A' for Active; 'I' for Inactive)
REMARK    1  A    between atoms: C_1  and  C_2
REMARK    2  A    between atoms: C_2  and  O_3
REMARK    3  A    between atoms: C_2  and  C_22
REMARK    4  A    between atoms: O_3  and  C_4
REMARK    5  A    between atoms: C_4  and  N_5
REMARK    6  A    between atoms: C_7  and  N_8
REMARK    7  A    between atoms: N_8  and  C_9
REMARK    8  A    between atoms: C_9  and  C_10
REMARK    9  A    between atoms: C_10  and  C_11
REMARK                            x       y       z     vdW  Elec       q    Type
REMARK                         _______ _______ _______ _____ _____    ______ ____
ROOT
ATOM      1  N   UNL     1       4.930   3.771  17.368  0.00  0.00    +0.000 N 
ATOM      2  C   UNL     1       5.251   4.174  16.083  0.00  0.00    +0.000 A 
ATOM      3  C   UNL     1       6.156   5.123  15.808  0.00  0.00    +0.000 A 
ATOM      4  C   UNL     1       6.842   5.729  17.004  0.00  0.00    +0.000 A 
ATOM      5  O   UNL     1       7.779   6.510  16.896  0.00  0.00    +0.000 OA
ATOM      6  N   UNL     1       6.366   5.375  18.233  0.00  0.00    +0.000 N 
ATOM      7  C   UNL     1       5.458   4.388  18.484  0.00  0.00    +0.000 A 
ATOM      8  O   UNL     1       5.158   4.108  19.642  0.00  0.00    +0.000 OA
ATOM      9  H   UNL     1       6.806   5.802  19.032  0.00  0.00    +0.000 HD
ENDROOT
BRANCH   3  10
ATOM     10  N   UNL     1       6.503   5.600  14.545  0.00  0.00    +0.000 N 
ATOM     11  H   UNL     1       6.421   6.616  14.506  0.00  0.00    +0.000 HD
BRANCH  10  12
ATOM     12  C   UNL     1       7.642   5.058  13.803  0.00  0.00    +0.000 C 
BRANCH  12  13
ATOM     13  C   UNL     1       7.375   4.994  12.294  0.00  0.00    +0.000 C 
BRANCH  13  14
ATOM     14  C   UNL     1       6.809   3.646  11.903  0.00  0.00    +0.000 A 
ATOM     15  C   UNL     1       7.647   2.618  11.443  0.00  0.00    +0.000 A 
ATOM     16  C   UNL     1       7.109   1.400  11.019  0.00  0.00    +0.000 A 
ATOM     17  C   UNL     1       5.731   1.194  11.052  0.00  0.00    +0.000 A 
ATOM     18  C   UNL     1       4.889   2.201  11.513  0.00  0.00    +0.000 A 
ATOM     19  C   UNL     1       5.426   3.419  11.937  0.00  0.00    +0.000 A 
ENDBRANCH  13  14
ENDBRANCH  12  13
ENDBRANCH  10  12
ENDBRANCH   3  10
BRANCH   1  20
ATOM     20  C   UNL     1       3.954   2.715  17.554  0.00  0.00    +0.000 C 
BRANCH  20  21
ATOM     21  O   UNL     1       2.681   3.199  17.147  0.00  0.00    +0.000 OA
BRANCH  21  23
ATOM     22  C   UNL     1       1.990   2.178  19.252  0.00  0.00    +0.000 C 
ATOM     23  C   UNL     1       1.728   3.271  18.214  0.00  0.00    +0.000 C 
BRANCH  23  24
ATOM     24  C   UNL     1       1.827   4.667  18.811  0.00  0.00    +0.000 A 
ATOM     25  C   UNL     1       2.157   5.765  17.998  0.00  0.00    +0.000 A 
ATOM     26  C   UNL     1       2.312   7.042  18.546  0.00  0.00    +0.000 A 
ATOM     27  C   UNL     1       2.133   7.245  19.912  0.00  0.00    +0.000 A 
ATOM     28  C   UNL     1       1.788   6.172  20.731  0.00  0.00    +0.000 A 
ATOM     29  C   UNL     1       1.634   4.894  20.184  0.00  0.00    +0.000 A 
ENDBRANCH  23  24
ENDBRANCH  21  23
ENDBRANCH  20  21
ENDBRANCH   1  20
TORSDOF 8
ENDMDL
MODEL 4
REMARK VINA RESULT:      -8.4      1.226      1.393
REMARK  Name = 
REMARK  9 active torsions:
REMARK  status: ('A' for Active; 'I' for Inactive)
REMARK    1  A    between atoms: C_1  and  C_2
REMARK    2  A    between atoms: C_2  and  O_3
REMARK    3  A    between atoms: C_2  and  C_22
REMARK    4  A    between atoms: O_3  and  C_4
REMARK    5  A    between atoms: C_4  and  N_5
REMARK    6  A    between atoms: C_7  and  N_8
REMARK    7  A    between atoms: N_8  and  C_9
REMARK    8  A    between atoms: C_9  and  C_10
REMARK    9  A    between atoms: C_10  and  C_11
REMARK                            x       y       z     vdW  Elec       q    Type
REMARK                         _______ _______ _______ _____ _____    ______ ____
ROOT
ATOM      1  N   UNL     1       4.554   5.861  17.567  0.00  0.00    +0.000 N 
ATOM      2  C   UNL     1       5.579   6.789  17.637  0.00  0.00    +0.000 A 
ATOM      3  C   UNL     1       6.700   6.713  16.906  0.00  0.00    +0.000 A 
ATOM      4  C   UNL     1       6.777   5.544  15.960  0.00  0.00    +0.000 A 
ATOM      5  O   UNL     1       7.681   5.421  15.143  0.00  0.00    +0.000 OA
ATOM      6  N   UNL     1       5.791   4.606  16.057  0.00  0.00    +0.000 N 
ATOM      7  C   UNL     1       4.649   4.720  16.795  0.00  0.00    +0.000 A 
ATOM      8  O   UNL     1       3.794   3.839  16.747  0.00  0.00    +0.000 OA
ATOM      9  H   UNL     1       5.858   3.809  15.444  0.00  0.00    +0.000 HD
ENDROOT
BRANCH   3  10
ATOM     10  N   UNL     1       7.783   7.590  16.951  0.00  0.00    +0.000 N 
ATOM     11  H   UNL     1       7.843   8.135  16.091  0.00  0.00    +0.000 HD
BRANCH  10  12
ATOM     12  C   UNL     1       8.120   8.337  18.164  0.00  0.00    +0.000 C 
BRANCH  12  13
ATOM     13  C   UNL     1       8.045   9.854  17.952  0.00  0.00    +0.000 C 
BRANCH  13  14
ATOM     14  C   UNL     1       9.237  10.544  18.579  0.00  0.00    +0.000 A 
ATOM     15  C   UNL     1       9.295  10.767  19.964  0.00  0.00    +0.000 A 
ATOM     16  C   UNL     1      10.366  11.467  20.526  0.00  0.00    +0.000 A 
ATOM     17  C   UNL     1      11.390  11.949  19.713  0.00  0.00    +0.000 A 
ATOM     18  C   UNL     1      11.350  11.729  18.340  0.00  0.00    +0.000 A 
ATOM     19  C   UNL     1      10.279  11.029  17.778  0.00  0.00    +0.000 A 
ENDBRANCH  13  14
ENDBRANCH  12  13
ENDBRANCH  10  12
ENDBRANCH   3  10
BRANCH   1  20
ATOM     20  C   UNL     1       3.371   6.052  18.382  0.00  0.00    +0.000 C 
BRANCH  20  21
ATOM     21  O   UNL     1       3.733   5.892  19.748  0.00  0.00    +0.000 OA
BRANCH  21  23
ATOM     22  C   UNL     1       1.492   6.293  20.624  0.00  0.00    +0.000 C 
ATOM     23  C   UNL     1       2.686   5.341  20.556  0.00  0.00    +0.000 C 
BRANCH  23  24
ATOM     24  C   UNL     1       2.316   3.994  19.953  0.00  0.00    +0.000 A 
ATOM     25  C   UNL     1       3.240   2.935  19.959  0.00  0.00    +0.000 A 
ATOM     26  C   UNL     1       2.935   1.713  19.353  0.00  0.00    +0.000 A 
ATOM     27  C   UNL     1       1.700   1.525  18.737  0.00  0.00    +0.000 A 
ATOM     28  C   UNL     1       0.764   2.557  18.737  0.00  0.00    +0.000 A 
ATOM     29  C   UNL     1       1.069   3.781  19.342  0.00  0.00    +0.000 A 
ENDBRANCH  23  24
ENDBRANCH  21  23
ENDBRANCH  20  21
ENDBRANCH   1  20
TORSDOF 8
ENDMDL
MODEL 5
REMARK VINA RESULT:      -8.3      3.105      7.039
REMARK  Name = 
REMARK  9 active torsions:
REMARK  status: ('A' for Active; 'I' for Inactive)
REMARK    1  A    between atoms: C_1  and  C_2
REMARK    2  A    between atoms: C_2  and  O_3
REMARK    3  A    between atoms: C_2  and  C_22
REMARK    4  A    between atoms: O_3  and  C_4
REMARK    5  A    between atoms: C_4  and  N_5
REMARK    6  A    between atoms: C_7  and  N_8
REMARK    7  A    between atoms: N_8  and  C_9
REMARK    8  A    between atoms: C_9  and  C_10
REMARK    9  A    between atoms: C_10  and  C_11
REMARK                            x       y       z     vdW  Elec       q    Type
REMARK                         _______ _______ _______ _____ _____    ______ ____
ROOT
ATOM      1  N   UNL     1       3.441   3.875  18.254  0.00  0.00    +0.000 N 
ATOM      2  C   UNL     1       3.090   5.003  18.975  0.00  0.00    +0.000 A 
ATOM      3  C   UNL     1       2.596   4.964  20.220  0.00  0.00    +0.000 A 
ATOM      4  C   UNL     1       2.460   3.589  20.819  0.00  0.00    +0.000 A 
ATOM      5  O   UNL     1       2.147   3.414  21.990  0.00  0.00    +0.000 OA
ATOM      6  N   UNL     1       2.695   2.530  19.992  0.00  0.00    +0.000 N 
ATOM      7  C   UNL     1       3.220   2.599  18.734  0.00  0.00    +0.000 A 
ATOM      8  O   UNL     1       3.457   1.569  18.108  0.00  0.00    +0.000 OA
ATOM      9  H   UNL     1       2.577   1.610  20.385  0.00  0.00    +0.000 HD
ENDROOT
BRANCH   3  10
ATOM     10  N   UNL     1       2.192   6.055  20.988  0.00  0.00    +0.000 N 
ATOM     11  H   UNL     1       2.743   6.119  21.844  0.00  0.00    +0.000 HD
BRANCH  10  12
ATOM     12  C   UNL     1       1.867   7.347  20.381  0.00  0.00    +0.000 C 
BRANCH  12  13
ATOM     13  C   UNL     1       1.127   8.275  21.352  0.00  0.00    +0.000 C 
BRANCH  13  14
ATOM     14  C   UNL     1       0.478   9.423  20.609  0.00  0.00    +0.000 A 
ATOM     15  C   UNL     1       0.728   9.633  19.244  0.00  0.00    +0.000 A 
ATOM     16  C   UNL     1       0.180  10.735  18.582  0.00  0.00    +0.000 A 
ATOM     17  C   UNL     1      -0.624  11.638  19.276  0.00  0.00    +0.000 A 
ATOM     18  C   UNL     1      -0.887  11.439  20.627  0.00  0.00    +0.000 A 
ATOM     19  C   UNL     1      -0.340  10.337  21.289  0.00  0.00    +0.000 A 
ENDBRANCH  13  14
ENDBRANCH  12  13
ENDBRANCH  10  12
ENDBRANCH   3  10
BRANCH   1  20
ATOM     20  C   UNL     1       3.992   4.029  16.922  0.00  0.00    +0.000 C 
BRANCH  20  21
ATOM     21  O   UNL     1       5.269   3.405  16.886  0.00  0.00    +0.000 OA
BRANCH  21  23
ATOM     22  C   UNL     1       5.538   4.718  14.848  0.00  0.00    +0.000 C 
ATOM     23  C   UNL     1       6.220   4.095  16.067  0.00  0.00    +0.000 C 
BRANCH  23  24
ATOM     24  C   UNL     1       6.895   5.139  16.945  0.00  0.00    +0.000 A 
ATOM     25  C   UNL     1       7.454   4.772  18.181  0.00  0.00    +0.000 A 
ATOM     26  C   UNL     1       8.022   5.733  19.025  0.00  0.00    +0.000 A 
ATOM     27  C   UNL     1       8.045   7.072  18.646  0.00  0.00    +0.000 A 
ATOM     28  C   UNL     1       7.511   7.452  17.416  0.00  0.00    +0.000 A 
ATOM     29  C   UNL     1       6.942   6.492  16.572  0.00  0.00    +0.000 A 
ENDBRANCH  23  24
ENDBRANCH  21  23
ENDBRANCH  20  21
ENDBRANCH   1  20
TORSDOF 8
ENDMDL
MODEL 6
REMARK VINA RESULT:      -8.3      3.128      6.973
REMARK  Name = 
REMARK  9 active torsions:
REMARK  status: ('A' for Active; 'I' for Inactive)
REMARK    1  A    between atoms: C_1  and  C_2
REMARK    2  A    between atoms: C_2  and  O_3
REMARK    3  A    between atoms: C_2  and  C_22
REMARK    4  A    between atoms: O_3  and  C_4
REMARK    5  A    between atoms: C_4  and  N_5
REMARK    6  A    between atoms: C_7  and  N_8
REMARK    7  A    between atoms: N_8  and  C_9
REMARK    8  A    between atoms: C_9  and  C_10
REMARK    9  A    between atoms: C_10  and  C_11
REMARK                            x       y       z     vdW  Elec       q    Type
REMARK                         _______ _______ _______ _____ _____    ______ ____
ROOT
ATOM      1  N   UNL     1       3.180   3.410  18.284  0.00  0.00    +0.000 N 
ATOM      2  C   UNL     1       2.607   4.561  18.799  0.00  0.00    +0.000 A 
ATOM      3  C   UNL     1       2.192   4.679  20.067  0.00  0.00    +0.000 A 
ATOM      4  C   UNL     1       2.411   3.467  20.935  0.00  0.00    +0.000 A 
ATOM      5  O   UNL     1       2.200   3.479  22.141  0.00  0.00    +0.000 OA
ATOM      6  N   UNL     1       2.850   2.335  20.313  0.00  0.00    +0.000 N 
ATOM      7  C   UNL     1       3.286   2.249  19.023  0.00  0.00    +0.000 A 
ATOM      8  O   UNL     1       3.729   1.187  18.592  0.00  0.00    +0.000 OA
ATOM      9  H   UNL     1       2.968   1.516  20.889  0.00  0.00    +0.000 HD
ENDROOT
BRANCH   3  10
ATOM     10  N   UNL     1       1.579   5.791  20.641  0.00  0.00    +0.000 N 
ATOM     11  H   UNL     1       1.276   5.588  21.593  0.00  0.00    +0.000 HD
BRANCH  10  12
ATOM     12  C   UNL     1       2.104   7.144  20.451  0.00  0.00    +0.000 C 
BRANCH  12  13
ATOM     13  C   UNL     1       1.349   8.184  21.288  0.00  0.00    +0.000 C 
BRANCH  13  14
ATOM     14  C   UNL     1       0.742   9.251  20.402  0.00  0.00    +0.000 A 
ATOM     15  C   UNL     1      -0.267  10.099  20.883  0.00  0.00    +0.000 A 
ATOM     16  C   UNL     1      -0.870  11.035  20.038  0.00  0.00    +0.000 A 
ATOM     17  C   UNL     1      -0.472  11.134  18.707  0.00  0.00    +0.000 A 
ATOM     18  C   UNL     1       0.532  10.304  18.218  0.00  0.00    +0.000 A 
ATOM     19  C   UNL     1       1.136   9.369  19.062  0.00  0.00    +0.000 A 
ENDBRANCH  13  14
ENDBRANCH  12  13
ENDBRANCH  10  12
ENDBRANCH   3  10
BRANCH   1  20
ATOM     20  C   UNL     1       3.618   3.396  16.902  0.00  0.00    +0.000 C 
BRANCH  20  21
ATOM     21  O   UNL     1       4.365   4.580  16.653  0.00  0.00    +0.000 OA
BRANCH  21  23
ATOM     22  C   UNL     1       5.920   4.504  14.775  0.00  0.00    +0.000 C 
ATOM     23  C   UNL     1       5.726   4.331  16.283  0.00  0.00    +0.000 C 
BRANCH  23  24
ATOM     24  C   UNL     1       6.593   5.286  17.089  0.00  0.00    +0.000 A 
ATOM     25  C   UNL     1       7.199   4.859  18.283  0.00  0.00    +0.000 A 
ATOM     26  C   UNL     1       7.947   5.745  19.065  0.00  0.00    +0.000 A 
ATOM     27  C   UNL     1       8.107   7.069  18.664  0.00  0.00    +0.000 A 
ATOM     28  C   UNL     1       7.529   7.506  17.474  0.00  0.00    +0.000 A 
ATOM     29  C   UNL     1       6.780   6.621  16.692  0.00  0.00    +0.000 A 
ENDBRANCH  23  24
ENDBRANCH  21  23
ENDBRANCH  20  21
ENDBRANCH   1  20
TORSDOF 8
ENDMDL
MODEL 7
REMARK VINA RESULT:      -8.3      3.997      6.588
REMARK  Name = 
REMARK  9 active torsions:
REMARK  status: ('A' for Active; 'I' for Inactive)
REMARK    1  A    between atoms: C_1  and  C_2
REMARK    2  A    between atoms: C_2  and  O_3
REMARK    3  A    between atoms: C_2  and  C_22
REMARK    4  A    between atoms: O_3  and  C_4
REMARK    5  A    between atoms: C_4  and  N_5
REMARK    6  A    between atoms: C_7  and  N_8
REMARK    7  A    between atoms: N_8  and  C_9
REMARK    8  A    between atoms: C_9  and  C_10
REMARK    9  A    between atoms: C_10  and  C_11
REMARK                            x       y       z     vdW  Elec       q    Type
REMARK                         _______ _______ _______ _____ _____    ______ ____
ROOT
ATOM      1  N   UNL     1       4.454   3.175  17.801  0.00  0.00    +0.000 N 
ATOM      2  C   UNL     1       4.893   3.932  16.728  0.00  0.00    +0.000 A 
ATOM      3  C   UNL     1       5.937   4.770  16.790  0.00  0.00    +0.000 A 
ATOM      4  C   UNL     1       6.643   4.827  18.119  0.00  0.00    +0.000 A 
ATOM      5  O   UNL     1       7.686   5.448  18.279  0.00  0.00    +0.000 OA
ATOM      6  N   UNL     1       6.061   4.158  19.155  0.00  0.00    +0.000 N 
ATOM      7  C   UNL     1       5.010   3.293  19.059  0.00  0.00    +0.000 A 
ATOM      8  O   UNL     1       4.616   2.690  20.054  0.00  0.00    +0.000 OA
ATOM      9  H   UNL     1       6.518   4.220  20.051  0.00  0.00    +0.000 HD
ENDROOT
BRANCH   3  10
ATOM     10  N   UNL     1       6.410   5.585  15.762  0.00  0.00    +0.000 N 
ATOM     11  H   UNL     1       7.405   5.773  15.879  0.00  0.00    +0.000 HD
BRANCH  10  12
ATOM     12  C   UNL     1       5.990   5.395  14.373  0.00  0.00    +0.000 C 
BRANCH  12  13
ATOM     13  C   UNL     1       6.986   4.545  13.576  0.00  0.00    +0.000 C 
BRANCH  13  14
ATOM     14  C   UNL     1       6.261   3.598  12.644  0.00  0.00    +0.000 A 
ATOM     15  C   UNL     1       6.941   2.542  12.017  0.00  0.00    +0.000 A 
ATOM     16  C   UNL     1       6.279   1.715  11.105  0.00  0.00    +0.000 A 
ATOM     17  C   UNL     1       4.935   1.933  10.810  0.00  0.00    +0.000 A 
ATOM     18  C   UNL     1       4.247   2.971  11.430  0.00  0.00    +0.000 A 
ATOM     19  C   UNL     1       4.907   3.798  12.342  0.00  0.00    +0.000 A 
ENDBRANCH  13  14
ENDBRANCH  12  13
ENDBRANCH  10  12
ENDBRANCH   3  10
BRANCH   1  20
ATOM     20  C   UNL     1       3.329   2.279  17.620  0.00  0.00    +0.000 C 
BRANCH  20  21
ATOM     21  O   UNL     1       2.217   3.035  17.160  0.00  0.00    +0.000 OA
BRANCH  21  23
ATOM     22  C   UNL     1       1.224   2.215  19.232  0.00  0.00    +0.000 C 
ATOM     23  C   UNL     1       1.262   3.332  18.187  0.00  0.00    +0.000 C 
BRANCH  23  24
ATOM     24  C   UNL     1       1.653   4.672  18.790  0.00  0.00    +0.000 A 
ATOM     25  C   UNL     1       1.535   4.890  20.173  0.00  0.00    +0.000 A 
ATOM     26  C   UNL     1       1.832   6.138  20.731  0.00  0.00    +0.000 A 
ATOM     27  C   UNL     1       2.257   7.185  19.918  0.00  0.00    +0.000 A 
ATOM     28  C   UNL     1       2.397   6.983  18.547  0.00  0.00    +0.000 A 
ATOM     29  C   UNL     1       2.099   5.736  17.987  0.00  0.00    +0.000 A 
ENDBRANCH  23  24
ENDBRANCH  21  23
ENDBRANCH  20  21
ENDBRANCH   1  20
TORSDOF 8
ENDMDL
MODEL 8
REMARK VINA RESULT:      -8.3      3.127      7.000
REMARK  Name = 
REMARK  9 active torsions:
REMARK  status: ('A' for Active; 'I' for Inactive)
REMARK    1  A    between atoms: C_1  and  C_2
REMARK    2  A    between atoms: C_2  and  O_3
REMARK    3  A    between atoms: C_2  and  C_22
REMARK    4  A    between atoms: O_3  and  C_4
REMARK    5  A    between atoms: C_4  and  N_5
REMARK    6  A    between atoms: C_7  and  N_8
REMARK    7  A    between atoms: N_8  and  C_9
REMARK    8  A    between atoms: C_9  and  C_10
REMARK    9  A    between atoms: C_10  and  C_11
REMARK                            x       y       z     vdW  Elec       q    Type
REMARK                         _______ _______ _______ _____ _____    ______ ____
ROOT
ATOM      1  N   UNL     1       2.935   3.658  18.322  0.00  0.00    +0.000 N 
ATOM      2  C   UNL     1       2.532   4.797  18.998  0.00  0.00    +0.000 A 
ATOM      3  C   UNL     1       2.250   4.822  20.308  0.00  0.00    +0.000 A 
ATOM      4  C   UNL     1       2.424   3.514  21.032  0.00  0.00    +0.000 A 
ATOM      5  O   UNL     1       2.328   3.421  22.249  0.00  0.00    +0.000 OA
ATOM      6  N   UNL     1       2.688   2.416  20.266  0.00  0.00    +0.000 N 
ATOM      7  C   UNL     1       2.992   2.423  18.936  0.00  0.00    +0.000 A 
ATOM      8  O   UNL     1       3.284   1.375  18.365  0.00  0.00    +0.000 OA
ATOM      9  H   UNL     1       2.776   1.535  20.748  0.00  0.00    +0.000 HD
ENDROOT
BRANCH   3  10
ATOM     10  N   UNL     1       1.807   5.922  21.042  0.00  0.00    +0.000 N 
ATOM     11  H   UNL     1       2.141   5.873  22.004  0.00  0.00    +0.000 HD
BRANCH  10  12
ATOM     12  C   UNL     1       1.794   7.271  20.476  0.00  0.00    +0.000 C 
BRANCH  12  13
ATOM     13  C   UNL     1       0.989   8.254  21.334  0.00  0.00    +0.000 C 
BRANCH  13  14
ATOM     14  C   UNL     1       0.581   9.466  20.526  0.00  0.00    +0.000 A 
ATOM     15  C   UNL     1       1.010   9.626  19.199  0.00  0.00    +0.000 A 
ATOM     16  C   UNL     1       0.686  10.782  18.482  0.00  0.00    +0.000 A 
ATOM     17  C   UNL     1      -0.070  11.788  19.081  0.00  0.00    +0.000 A 
ATOM     18  C   UNL     1      -0.509  11.639  20.393  0.00  0.00    +0.000 A 
ATOM     19  C   UNL     1      -0.186  10.485  21.110  0.00  0.00    +0.000 A 
ENDBRANCH  13  14
ENDBRANCH  12  13
ENDBRANCH  10  12
ENDBRANCH   3  10
BRANCH   1  20
ATOM     20  C   UNL     1       3.241   3.746  16.908  0.00  0.00    +0.000 C 
BRANCH  20  21
ATOM     21  O   UNL     1       4.231   4.749  16.721  0.00  0.00    +0.000 OA
BRANCH  21  23
ATOM     22  C   UNL     1       6.033   3.944  15.288  0.00  0.00    +0.000 C 
ATOM     23  C   UNL     1       5.569   4.239  16.715  0.00  0.00    +0.000 C 
BRANCH  23  24
ATOM     24  C   UNL     1       6.447   5.272  17.405  0.00  0.00    +0.000 A 
ATOM     25  C   UNL     1       6.615   6.549  16.844  0.00  0.00    +0.000 A 
ATOM     26  C   UNL     1       7.468   7.486  17.435  0.00  0.00    +0.000 A 
ATOM     27  C   UNL     1       8.162   7.166  18.600  0.00  0.00    +0.000 A 
ATOM     28  C   UNL     1       7.994   5.911  19.181  0.00  0.00    +0.000 A 
ATOM     29  C   UNL     1       7.142   4.972  18.589  0.00  0.00    +0.000 A 
ENDBRANCH  23  24
ENDBRANCH  21  23
ENDBRANCH  20  21
ENDBRANCH   1  20
TORSDOF 8
ENDMDL
MODEL 9
REMARK VINA RESULT:      -8.3      3.323      7.432
REMARK  Name = 
REMARK  9 active torsions:
REMARK  status: ('A' for Active; 'I' for Inactive)
REMARK    1  A    between atoms: C_1  and  C_2
REMARK    2  A    between atoms: C_2  and  O_3
REMARK    3  A    between atoms: C_2  and  C_22
REMARK    4  A    between atoms: O_3  and  C_4
REMARK    5  A    between atoms: C_4  and  N_5
REMARK    6  A    between atoms: C_7  and  N_8
REMARK    7  A    between atoms: N_8  and  C_9
REMARK    8  A    between atoms: C_9  and  C_10
REMARK    9  A    between atoms: C_10  and  C_11
REMARK                            x       y       z     vdW  Elec       q    Type
REMARK                         _______ _______ _______ _____ _____    ______ ____
ROOT
ATOM      1  N   UNL     1       3.191   4.475  18.211  0.00  0.00    +0.000 N 
ATOM      2  C   UNL     1       3.212   5.834  17.950  0.00  0.00    +0.000 A 
ATOM      3  C   UNL     1       2.651   6.752  18.749  0.00  0.00    +0.000 A 
ATOM      4  C   UNL     1       2.000   6.213  19.996  0.00  0.00    +0.000 A 
ATOM      5  O   UNL     1       1.566   6.945  20.876  0.00  0.00    +0.000 OA
ATOM      6  N   UNL     1       1.904   4.857  20.103  0.00  0.00    +0.000 N 
ATOM      7  C   UNL     1       2.503   3.945  19.284  0.00  0.00    +0.000 A 
ATOM      8  O   UNL     1       2.405   2.744  19.523  0.00  0.00    +0.000 OA
ATOM      9  H   UNL     1       1.442   4.497  20.924  0.00  0.00    +0.000 HD
ENDROOT
BRANCH   3  10
ATOM     10  N   UNL     1       2.606   8.128  18.531  0.00  0.00    +0.000 N 
ATOM     11  H   UNL     1       3.516   8.478  18.233  0.00  0.00    +0.000 HD
BRANCH  10  12
ATOM     12  C   UNL     1       1.468   8.765  17.866  0.00  0.00    +0.000 C 
BRANCH  12  13
ATOM     13  C   UNL     1       1.160  10.153  18.444  0.00  0.00    +0.000 C 
BRANCH  13  14
ATOM     14  C   UNL     1      -0.324  10.446  18.377  0.00  0.00    +0.000 A 
ATOM     15  C   UNL     1      -1.149   9.783  17.456  0.00  0.00    +0.000 A 
ATOM     16  C   UNL     1      -2.504  10.110  17.354  0.00  0.00    +0.000 A 
ATOM     17  C   UNL     1      -3.049  11.100  18.170  0.00  0.00    +0.000 A 
ATOM     18  C   UNL     1      -2.244  11.760  19.093  0.00  0.00    +0.000 A 
ATOM     19  C   UNL     1      -0.889  11.433  19.196  0.00  0.00    +0.000 A 
ENDBRANCH  13  14
ENDBRANCH  12  13
ENDBRANCH  10  12
ENDBRANCH   3  10
BRANCH   1  20
ATOM     20  C   UNL     1       3.851   3.569  17.293  0.00  0.00    +0.000 C 
BRANCH  20  21
ATOM     21  O   UNL     1       4.495   4.336  16.284  0.00  0.00    +0.000 OA
BRANCH  21  23
ATOM     22  C   UNL     1       6.295   4.049  14.662  0.00  0.00    +0.000 C 
ATOM     23  C   UNL     1       5.888   4.034  16.137  0.00  0.00    +0.000 C 
BRANCH  23  24
ATOM     24  C   UNL     1       6.658   5.057  16.958  0.00  0.00    +0.000 A 
ATOM     25  C   UNL     1       7.315   4.670  18.139  0.00  0.00    +0.000 A 
ATOM     26  C   UNL     1       7.974   5.613  18.935  0.00  0.00    +0.000 A 
ATOM     27  C   UNL     1       7.993   6.954  18.561  0.00  0.00    +0.000 A 
ATOM     28  C   UNL     1       7.364   7.353  17.384  0.00  0.00    +0.000 A 
ATOM     29  C   UNL     1       6.703   6.412  16.588  0.00  0.00    +0.000 A 
ENDBRANCH  23  24
ENDBRANCH  21  23
ENDBRANCH  20  21
ENDBRANCH   1  20
TORSDOF 8
ENDMDL
