MODEL 1
REMARK VINA RESULT:      -7.8      0.000      0.000
REMARK  Name = 
REMARK  6 active torsions:
REMARK  status: ('A' for Active; 'I' for Inactive)
REMARK    1  A    between atoms: C_1  and  O_2
REMARK    2  A    between atoms: O_2  and  C_3
REMARK    3  A    between atoms: C_5  and  C_6
REMARK    4  A    between atoms: C_8  and  C_9
REMARK    5  A    between atoms: C_17  and  N_18
REMARK    6  A    between atoms: C_21  and  O_22
REMARK                            x       y       z     vdW  Elec       q    Type
REMARK                         _______ _______ _______ _____ _____    ______ ____
ROOT
ATOM      1  C   UNL     1       3.781   5.482  18.664  0.00  0.00    +0.000 A 
ATOM      2  C   UNL     1       3.115   6.700  18.925  0.00  0.00    +0.000 A 
ATOM      3  C   UNL     1       2.143   6.840  19.932  0.00  0.00    +0.000 A 
ATOM      4  C   UNL     1       1.877   5.684  20.653  0.00  0.00    +0.000 A 
ATOM      5  N   UNL     1       2.492   4.493  20.470  0.00  0.00    +0.000 NA
ATOM      6  C   UNL     1       3.428   4.411  19.503  0.00  0.00    +0.000 A 
ENDROOT
BRANCH   1   9
ATOM      7  C   UNL     1       6.858   6.171  16.464  0.00  0.00    +0.000 A 
ATOM      8  C   UNL     1       5.912   6.227  17.502  0.00  0.00    +0.000 A 
ATOM      9  C   UNL     1       4.774   5.400  17.552  0.00  0.00    +0.000 A 
ATOM     10  C   UNL     1       4.640   4.467  16.508  0.00  0.00    +0.000 A 
ATOM     11  C   UNL     1       5.592   4.363  15.486  0.00  0.00    +0.000 A 
ATOM     12  C   UNL     1       6.694   5.219  15.459  0.00  0.00    +0.000 A 
BRANCH   7  14
ATOM     13  C   UNL     1       7.766   8.023  17.681  0.00  0.00    +0.000 C 
ATOM     14  O   UNL     1       7.848   7.108  16.601  0.00  0.00    +0.000 OA
ENDBRANCH   7  14
BRANCH  12  15
ATOM     15  O   UNL     1       7.592   5.089  14.438  0.00  0.00    +0.000 OA
ATOM     16  H   UNL     1       8.305   5.737  14.554  0.00  0.00    +0.000 HD
ENDBRANCH  12  15
ENDBRANCH   1   9
BRANCH   3  17
ATOM     17  C   UNL     1       1.455   8.121  20.198  0.00  0.00    +0.000 A 
ATOM     18  C   UNL     1       0.942   8.429  21.472  0.00  0.00    +0.000 A 
ATOM     19  C   UNL     1       0.278   9.634  21.725  0.00  0.00    +0.000 A 
ATOM     20  C   UNL     1       0.123  10.569  20.708  0.00  0.00    +0.000 A 
ATOM     21  C   UNL     1       0.625  10.298  19.441  0.00  0.00    +0.000 A 
ATOM     22  C   UNL     1       1.278   9.087  19.188  0.00  0.00    +0.000 A 
ENDBRANCH   3  17
BRANCH   6  23
ATOM     23  N   UNL     1       3.992   3.140  19.400  0.00  0.00    +0.000 N 
ATOM     24  H   UNL     1       4.913   3.255  18.987  0.00  0.00    +0.000 HD
ATOM     25  H   UNL     1       3.401   2.509  18.870  0.00  0.00    +0.000 HD
ENDBRANCH   6  23
TORSDOF 5
ENDMDL
MODEL 2
REMARK VINA RESULT:      -7.8      0.067      1.027
REMARK  Name = 
REMARK  6 active torsions:
REMARK  status: ('A' for Active; 'I' for Inactive)
REMARK    1  A    between atoms: C_1  and  O_2
REMARK    2  A    between atoms: O_2  and  C_3
REMARK    3  A    between atoms: C_5  and  C_6
REMARK    4  A    between atoms: C_8  and  C_9
REMARK    5  A    between atoms: C_17  and  N_18
REMARK    6  A    between atoms: C_21  and  O_22
REMARK                            x       y       z     vdW  Elec       q    Type
REMARK                         _______ _______ _______ _____ _____    ______ ____
ROOT
ATOM      1  C   UNL     1       3.764   5.483  18.720  0.00  0.00    +0.000 A 
ATOM      2  C   UNL     1       3.107   6.706  18.986  0.00  0.00    +0.000 A 
ATOM      3  C   UNL     1       2.139   6.850  19.995  0.00  0.00    +0.000 A 
ATOM      4  C   UNL     1       1.866   5.694  20.714  0.00  0.00    +0.000 A 
ATOM      5  N   UNL     1       2.472   4.499  20.528  0.00  0.00    +0.000 NA
ATOM      6  C   UNL     1       3.405   4.412  19.558  0.00  0.00    +0.000 A 
ENDROOT
BRANCH   1   9
ATOM      7  C   UNL     1       6.829   6.171  16.504  0.00  0.00    +0.000 A 
ATOM      8  C   UNL     1       5.886   6.230  17.545  0.00  0.00    +0.000 A 
ATOM      9  C   UNL     1       4.754   5.396  17.606  0.00  0.00    +0.000 A 
ATOM     10  C   UNL     1       4.622   4.453  16.572  0.00  0.00    +0.000 A 
ATOM     11  C   UNL     1       5.572   4.345  15.547  0.00  0.00    +0.000 A 
ATOM     12  C   UNL     1       6.669   5.207  15.509  0.00  0.00    +0.000 A 
BRANCH   7  14
ATOM     13  C   UNL     1       7.767   7.996  17.738  0.00  0.00    +0.000 C 
ATOM     14  O   UNL     1       7.814   7.115  16.629  0.00  0.00    +0.000 OA
ENDBRANCH   7  14
BRANCH  12  15
ATOM     15  O   UNL     1       7.563   5.074  14.486  0.00  0.00    +0.000 OA
ATOM     16  H   UNL     1       8.340   4.584  14.801  0.00  0.00    +0.000 HD
ENDBRANCH  12  15
ENDBRANCH   1   9
BRANCH   3  17
ATOM     17  C   UNL     1       1.461   8.135  20.266  0.00  0.00    +0.000 A 
ATOM     18  C   UNL     1       1.292   9.104  19.258  0.00  0.00    +0.000 A 
ATOM     19  C   UNL     1       0.664  10.327  19.514  0.00  0.00    +0.000 A 
ATOM     20  C   UNL     1       0.176  10.607  20.785  0.00  0.00    +0.000 A 
ATOM     21  C   UNL     1       0.320   9.668  21.800  0.00  0.00    +0.000 A 
ATOM     22  C   UNL     1       0.960   8.450  21.544  0.00  0.00    +0.000 A 
ENDBRANCH   3  17
BRANCH   6  23
ATOM     23  N   UNL     1       3.960   3.138  19.451  0.00  0.00    +0.000 N 
ATOM     24  H   UNL     1       3.840   2.684  20.352  0.00  0.00    +0.000 HD
ATOM     25  H   UNL     1       4.929   3.174  19.156  0.00  0.00    +0.000 HD
ENDBRANCH   6  23
TORSDOF 5
ENDMDL
MODEL 3
REMARK VINA RESULT:      -7.7      3.408      7.553
REMARK  Name = 
REMARK  6 active torsions:
REMARK  status: ('A' for Active; 'I' for Inactive)
REMARK    1  A    between atoms: C_1  and  O_2
REMARK    2  A    between atoms: O_2  and  C_3
REMARK    3  A    between atoms: C_5  and  C_6
REMARK    4  A    between atoms: C_8  and  C_9
REMARK    5  A    between atoms: C_17  and  N_18
REMARK    6  A    between atoms: C_21  and  O_22
REMARK                            x       y       z     vdW  Elec       q    Type
REMARK                         _______ _______ _______ _____ _____    ______ ____
ROOT
ATOM      1  C   UNL     1       5.247   4.329  17.728  0.00  0.00    +0.000 A 
ATOM      2  C   UNL     1       5.288   4.142  16.327  0.00  0.00    +0.000 A 
ATOM      3  C   UNL     1       6.418   4.448  15.548  0.00  0.00    +0.000 A 
ATOM      4  C   UNL     1       7.497   4.957  16.257  0.00  0.00    +0.000 A 
ATOM      5  N   UNL     1       7.534   5.140  17.597  0.00  0.00    +0.000 NA
ATOM      6  C   UNL     1       6.432   4.819  18.305  0.00  0.00    +0.000 A 
ENDROOT
BRANCH   1   9
ATOM      7  C   UNL     1       2.124   4.732  19.933  0.00  0.00    +0.000 A 
ATOM      8  C   UNL     1       3.299   5.001  19.209  0.00  0.00    +0.000 A 
ATOM      9  C   UNL     1       3.997   4.018  18.484  0.00  0.00    +0.000 A 
ATOM     10  C   UNL     1       3.435   2.729  18.485  0.00  0.00    +0.000 A 
ATOM     11  C   UNL     1       2.242   2.447  19.162  0.00  0.00    +0.000 A 
ATOM     12  C   UNL     1       1.591   3.444  19.891  0.00  0.00    +0.000 A 
BRANCH   7  14
ATOM     13  C   UNL     1       2.036   7.116  20.145  0.00  0.00    +0.000 C 
ATOM     14  O   UNL     1       1.654   5.830  20.603  0.00  0.00    +0.000 OA
ENDBRANCH   7  14
BRANCH  12  15
ATOM     15  O   UNL     1       0.437   3.122  20.545  0.00  0.00    +0.000 OA
ATOM     16  H   UNL     1       0.613   2.403  21.173  0.00  0.00    +0.000 HD
ENDBRANCH  12  15
ENDBRANCH   1   9
BRANCH   3  17
ATOM     17  C   UNL     1       6.450   4.245  14.084  0.00  0.00    +0.000 A 
ATOM     18  C   UNL     1       7.428   4.859  13.279  0.00  0.00    +0.000 A 
ATOM     19  C   UNL     1       7.453   4.682  11.891  0.00  0.00    +0.000 A 
ATOM     20  C   UNL     1       6.506   3.871  11.276  0.00  0.00    +0.000 A 
ATOM     21  C   UNL     1       5.532   3.244  12.045  0.00  0.00    +0.000 A 
ATOM     22  C   UNL     1       5.502   3.434  13.431  0.00  0.00    +0.000 A 
ENDBRANCH   3  17
BRANCH   6  23
ATOM     23  N   UNL     1       6.578   5.051  19.671  0.00  0.00    +0.000 N 
ATOM     24  H   UNL     1       6.365   4.178  20.146  0.00  0.00    +0.000 HD
ATOM     25  H   UNL     1       5.996   5.819  19.986  0.00  0.00    +0.000 HD
ENDBRANCH   6  23
TORSDOF 5
ENDMDL
MODEL 4
REMARK VINA RESULT:      -7.7      3.395      7.526
REMARK  Name = 
REMARK  6 active torsions:
REMARK  status: ('A' for Active; 'I' for Inactive)
REMARK    1  A    between atoms: C_1  and  O_2
REMARK    2  A    between atoms: O_2  and  C_3
REMARK    3  A    between atoms: C_5  and  C_6
REMARK    4  A    between atoms: C_8  and  C_9
REMARK    5  A    between atoms: C_17  and  N_18
REMARK    6  A    between atoms: C_21  and  O_22
REMARK                            x       y       z     vdW  Elec       q    Type
REMARK                         _______ _______ _______ _____ _____    ______ ____
ROOT
ATOM      1  C   UNL     1       5.202   4.373  17.690  0.00  0.00    +0.000 A 
ATOM      2  C   UNL     1       5.258   4.195  16.289  0.00  0.00    +0.000 A 
ATOM      3  C   UNL     1       6.413   4.457  15.531  0.00  0.00    +0.000 A 
ATOM      4  C   UNL     1       7.502   4.913  16.261  0.00  0.00    +0.000 A 
ATOM      5  N   UNL     1       7.524   5.084  17.602  0.00  0.00    +0.000 NA
ATOM      6  C   UNL     1       6.398   4.807  18.290  0.00  0.00    +0.000 A 
ENDROOT
BRANCH   1   9
ATOM      7  C   UNL     1       2.094   4.882  19.894  0.00  0.00    +0.000 A 
ATOM      8  C   UNL     1       3.290   5.105  19.191  0.00  0.00    +0.000 A 
ATOM      9  C   UNL     1       3.928   4.112  18.424  0.00  0.00    +0.000 A 
ATOM     10  C   UNL     1       3.281   2.866  18.362  0.00  0.00    +0.000 A 
ATOM     11  C   UNL     1       2.066   2.633  19.018  0.00  0.00    +0.000 A 
ATOM     12  C   UNL     1       1.477   3.636  19.789  0.00  0.00    +0.000 A 
BRANCH   7  14
ATOM     13  C   UNL     1       1.987   7.266  20.101  0.00  0.00    +0.000 C 
ATOM     14  O   UNL     1       1.692   5.977  20.613  0.00  0.00    +0.000 OA
ENDBRANCH   7  14
BRANCH  12  15
ATOM     15  O   UNL     1       0.298   3.362  20.420  0.00  0.00    +0.000 OA
ATOM     16  H   UNL     1      -0.325   2.977  19.784  0.00  0.00    +0.000 HD
ENDBRANCH  12  15
ENDBRANCH   1   9
BRANCH   3  17
ATOM     17  C   UNL     1       6.460   4.263  14.066  0.00  0.00    +0.000 A 
ATOM     18  C   UNL     1       5.536   3.432  13.404  0.00  0.00    +0.000 A 
ATOM     19  C   UNL     1       5.586   3.234  12.020  0.00  0.00    +0.000 A 
ATOM     20  C   UNL     1       6.557   3.877  11.261  0.00  0.00    +0.000 A 
ATOM     21  C   UNL     1       7.479   4.710  11.883  0.00  0.00    +0.000 A 
ATOM     22  C   UNL     1       7.434   4.896  13.269  0.00  0.00    +0.000 A 
ENDBRANCH   3  17
BRANCH   6  23
ATOM     23  N   UNL     1       6.532   5.022  19.661  0.00  0.00    +0.000 N 
ATOM     24  H   UNL     1       7.414   5.506  19.802  0.00  0.00    +0.000 HD
ATOM     25  H   UNL     1       6.471   4.156  20.184  0.00  0.00    +0.000 HD
ENDBRANCH   6  23
TORSDOF 5
ENDMDL
MODEL 5
REMARK VINA RESULT:      -7.6      3.212      4.560
REMARK  Name = 
REMARK  6 active torsions:
REMARK  status: ('A' for Active; 'I' for Inactive)
REMARK    1  A    between atoms: C_1  and  O_2
REMARK    2  A    between atoms: O_2  and  C_3
REMARK    3  A    between atoms: C_5  and  C_6
REMARK    4  A    between atoms: C_8  and  C_9
REMARK    5  A    between atoms: C_17  and  N_18
REMARK    6  A    between atoms: C_21  and  O_22
REMARK                            x       y       z     vdW  Elec       q    Type
REMARK                         _______ _______ _______ _____ _____    ______ ____
ROOT
ATOM      1  C   UNL     1       2.627   7.120  19.033  0.00  0.00    +0.000 A 
ATOM      2  C   UNL     1       1.852   7.726  20.047  0.00  0.00    +0.000 A 
ATOM      3  C   UNL     1       1.278   9.003  19.911  0.00  0.00    +0.000 A 
ATOM      4  C   UNL     1       1.537   9.635  18.703  0.00  0.00    +0.000 A 
ATOM      5  N   UNL     1       2.252   9.106  17.684  0.00  0.00    +0.000 NA
ATOM      6  C   UNL     1       2.769   7.872  17.854  0.00  0.00    +0.000 A 
ENDROOT
BRANCH   1   9
ATOM      7  C   UNL     1       3.018   3.390  19.877  0.00  0.00    +0.000 A 
ATOM      8  C   UNL     1       2.467   4.663  19.649  0.00  0.00    +0.000 A 
ATOM      9  C   UNL     1       3.237   5.777  19.264  0.00  0.00    +0.000 A 
ATOM     10  C   UNL     1       4.611   5.546  19.078  0.00  0.00    +0.000 A 
ATOM     11  C   UNL     1       5.176   4.277  19.256  0.00  0.00    +0.000 A 
ATOM     12  C   UNL     1       4.384   3.203  19.663  0.00  0.00    +0.000 A 
BRANCH   7  14
ATOM     13  C   UNL     1       1.536   2.624  21.595  0.00  0.00    +0.000 C 
ATOM     14  O   UNL     1       2.086   2.478  20.297  0.00  0.00    +0.000 OA
ENDBRANCH   7  14
BRANCH  12  15
ATOM     15  O   UNL     1       4.978   1.986  19.835  0.00  0.00    +0.000 OA
ATOM     16  H   UNL     1       5.663   2.057  20.519  0.00  0.00    +0.000 HD
ENDBRANCH  12  15
ENDBRANCH   1   9
BRANCH   3  17
ATOM     17  C   UNL     1       0.465   9.624  20.978  0.00  0.00    +0.000 A 
ATOM     18  C   UNL     1      -0.257  10.812  20.754  0.00  0.00    +0.000 A 
ATOM     19  C   UNL     1      -1.016  11.411  21.764  0.00  0.00    +0.000 A 
ATOM     20  C   UNL     1      -1.082  10.828  23.025  0.00  0.00    +0.000 A 
ATOM     21  C   UNL     1      -0.386   9.651  23.275  0.00  0.00    +0.000 A 
ATOM     22  C   UNL     1       0.382   9.060  22.266  0.00  0.00    +0.000 A 
ENDBRANCH   3  17
BRANCH   6  23
ATOM     23  N   UNL     1       3.488   7.428  16.745  0.00  0.00    +0.000 N 
ATOM     24  H   UNL     1       4.463   7.665  16.907  0.00  0.00    +0.000 HD
ATOM     25  H   UNL     1       3.128   7.820  15.882  0.00  0.00    +0.000 HD
ENDBRANCH   6  23
TORSDOF 5
ENDMDL
MODEL 6
REMARK VINA RESULT:      -7.6      2.549      3.779
REMARK  Name = 
REMARK  6 active torsions:
REMARK  status: ('A' for Active; 'I' for Inactive)
REMARK    1  A    between atoms: C_1  and  O_2
REMARK    2  A    between atoms: O_2  and  C_3
REMARK    3  A    between atoms: C_5  and  C_6
REMARK    4  A    between atoms: C_8  and  C_9
REMARK    5  A    between atoms: C_17  and  N_18
REMARK    6  A    between atoms: C_21  and  O_22
REMARK                            x       y       z     vdW  Elec       q    Type
REMARK                         _______ _______ _______ _____ _____    ______ ____
ROOT
ATOM      1  C   UNL     1       2.652   7.110  18.986  0.00  0.00    +0.000 A 
ATOM      2  C   UNL     1       1.880   7.700  20.012  0.00  0.00    +0.000 A 
ATOM      3  C   UNL     1       1.299   8.975  19.894  0.00  0.00    +0.000 A 
ATOM      4  C   UNL     1       1.547   9.623  18.691  0.00  0.00    +0.000 A 
ATOM      5  N   UNL     1       2.256   9.108  17.661  0.00  0.00    +0.000 NA
ATOM      6  C   UNL     1       2.782   7.875  17.813  0.00  0.00    +0.000 A 
ENDROOT
BRANCH   1   9
ATOM      7  C   UNL     1       5.251   4.286  19.207  0.00  0.00    +0.000 A 
ATOM      8  C   UNL     1       4.647   5.541  19.019  0.00  0.00    +0.000 A 
ATOM      9  C   UNL     1       3.270   5.767  19.198  0.00  0.00    +0.000 A 
ATOM     10  C   UNL     1       2.510   4.662  19.618  0.00  0.00    +0.000 A 
ATOM     11  C   UNL     1       3.096   3.412  19.855  0.00  0.00    +0.000 A 
ATOM     12  C   UNL     1       4.462   3.221  19.642  0.00  0.00    +0.000 A 
BRANCH   7  14
ATOM     13  C   UNL     1       7.004   4.750  17.644  0.00  0.00    +0.000 C 
ATOM     14  O   UNL     1       6.590   4.296  18.921  0.00  0.00    +0.000 OA
ENDBRANCH   7  14
BRANCH  12  15
ATOM     15  O   UNL     1       4.990   1.984  19.875  0.00  0.00    +0.000 OA
ATOM     16  H   UNL     1       4.269   1.349  20.013  0.00  0.00    +0.000 HD
ENDBRANCH  12  15
ENDBRANCH   1   9
BRANCH   3  17
ATOM     17  C   UNL     1       0.490   9.581  20.973  0.00  0.00    +0.000 A 
ATOM     18  C   UNL     1      -0.263  10.751  20.758  0.00  0.00    +0.000 A 
ATOM     19  C   UNL     1      -1.019  11.335  21.780  0.00  0.00    +0.000 A 
ATOM     20  C   UNL     1      -1.049  10.754  23.043  0.00  0.00    +0.000 A 
ATOM     21  C   UNL     1      -0.321   9.595  23.285  0.00  0.00    +0.000 A 
ATOM     22  C   UNL     1       0.443   9.019  22.263  0.00  0.00    +0.000 A 
ENDBRANCH   3  17
BRANCH   6  23
ATOM     23  N   UNL     1       3.495   7.447  16.695  0.00  0.00    +0.000 N 
ATOM     24  H   UNL     1       3.351   6.444  16.616  0.00  0.00    +0.000 HD
ATOM     25  H   UNL     1       4.475   7.698  16.756  0.00  0.00    +0.000 HD
ENDBRANCH   6  23
TORSDOF 5
ENDMDL
MODEL 7
REMARK VINA RESULT:      -7.6      3.202      4.460
REMARK  Name = 
REMARK  6 active torsions:
REMARK  status: ('A' for Active; 'I' for Inactive)
REMARK    1  A    between atoms: C_1  and  O_2
REMARK    2  A    between atoms: O_2  and  C_3
REMARK    3  A    between atoms: C_5  and  C_6
REMARK    4  A    between atoms: C_8  and  C_9
REMARK    5  A    between atoms: C_17  and  N_18
REMARK    6  A    between atoms: C_21  and  O_22
REMARK                            x       y       z     vdW  Elec       q    Type
REMARK                         _______ _______ _______ _____ _____    ______ ____
ROOT
ATOM      1  C   UNL     1       2.640   7.118  19.032  0.00  0.00    +0.000 A 
ATOM      2  C   UNL     1       1.869   7.721  20.052  0.00  0.00    +0.000 A 
ATOM      3  C   UNL     1       1.292   8.997  19.921  0.00  0.00    +0.000 A 
ATOM      4  C   UNL     1       1.541   9.631  18.712  0.00  0.00    +0.000 A 
ATOM      5  N   UNL     1       2.250   9.104  17.687  0.00  0.00    +0.000 NA
ATOM      6  C   UNL     1       2.772   7.872  17.852  0.00  0.00    +0.000 A 
ENDROOT
BRANCH   1   9
ATOM      7  C   UNL     1       3.044   3.388  19.867  0.00  0.00    +0.000 A 
ATOM      8  C   UNL     1       2.489   4.659  19.644  0.00  0.00    +0.000 A 
ATOM      9  C   UNL     1       3.254   5.776  19.258  0.00  0.00    +0.000 A 
ATOM     10  C   UNL     1       4.628   5.550  19.065  0.00  0.00    +0.000 A 
ATOM     11  C   UNL     1       5.197   4.282  19.238  0.00  0.00    +0.000 A 
ATOM     12  C   UNL     1       4.409   3.205  19.647  0.00  0.00    +0.000 A 
BRANCH   7  14
ATOM     13  C   UNL     1       1.361   2.764  21.452  0.00  0.00    +0.000 C 
ATOM     14  O   UNL     1       2.116   2.473  20.288  0.00  0.00    +0.000 OA
ENDBRANCH   7  14
BRANCH  12  15
ATOM     15  O   UNL     1       5.008   1.989  19.814  0.00  0.00    +0.000 OA
ATOM     16  H   UNL     1       4.609   1.536  20.574  0.00  0.00    +0.000 HD
ENDBRANCH  12  15
ENDBRANCH   1   9
BRANCH   3  17
ATOM     17  C   UNL     1       0.484   9.615  20.993  0.00  0.00    +0.000 A 
ATOM     18  C   UNL     1       0.411   9.047  22.279  0.00  0.00    +0.000 A 
ATOM     19  C   UNL     1      -0.364   9.621  23.293  0.00  0.00    +0.000 A 
ATOM     20  C   UNL     1      -1.076  10.789  23.047  0.00  0.00    +0.000 A 
ATOM     21  C   UNL     1      -1.019  11.379  21.790  0.00  0.00    +0.000 A 
ATOM     22  C   UNL     1      -0.252  10.796  20.775  0.00  0.00    +0.000 A 
ENDBRANCH   3  17
BRANCH   6  23
ATOM     23  N   UNL     1       3.485   7.430  16.739  0.00  0.00    +0.000 N 
ATOM     24  H   UNL     1       4.206   8.122  16.553  0.00  0.00    +0.000 HD
ATOM     25  H   UNL     1       2.877   7.273  15.942  0.00  0.00    +0.000 HD
ENDBRANCH   6  23
TORSDOF 5
ENDMDL
MODEL 8
REMARK VINA RESULT:      -7.6      2.551      3.671
REMARK  Name = 
REMARK  6 active torsions:
REMARK  status: ('A' for Active; 'I' for Inactive)
REMARK    1  A    between atoms: C_1  and  O_2
REMARK    2  A    between atoms: O_2  and  C_3
REMARK    3  A    between atoms: C_5  and  C_6
REMARK    4  A    between atoms: C_8  and  C_9
REMARK    5  A    between atoms: C_17  and  N_18
REMARK    6  A    between atoms: C_21  and  O_22
REMARK                            x       y       z     vdW  Elec       q    Type
REMARK                         _______ _______ _______ _____ _____    ______ ____
ROOT
ATOM      1  C   UNL     1       2.651   7.129  18.976  0.00  0.00    +0.000 A 
ATOM      2  C   UNL     1       1.885   7.717  20.008  0.00  0.00    +0.000 A 
ATOM      3  C   UNL     1       1.302   8.992  19.896  0.00  0.00    +0.000 A 
ATOM      4  C   UNL     1       1.542   9.642  18.693  0.00  0.00    +0.000 A 
ATOM      5  N   UNL     1       2.246   9.130  17.658  0.00  0.00    +0.000 NA
ATOM      6  C   UNL     1       2.774   7.897  17.805  0.00  0.00    +0.000 A 
ENDROOT
BRANCH   1   9
ATOM      7  C   UNL     1       5.260   4.316  19.211  0.00  0.00    +0.000 A 
ATOM      8  C   UNL     1       4.654   5.570  19.028  0.00  0.00    +0.000 A 
ATOM      9  C   UNL     1       3.272   5.787  19.182  0.00  0.00    +0.000 A 
ATOM     10  C   UNL     1       2.509   4.672  19.571  0.00  0.00    +0.000 A 
ATOM     11  C   UNL     1       3.097   3.421  19.802  0.00  0.00    +0.000 A 
ATOM     12  C   UNL     1       4.468   3.241  19.615  0.00  0.00    +0.000 A 
BRANCH   7  14
ATOM     13  C   UNL     1       7.036   4.682  17.648  0.00  0.00    +0.000 C 
ATOM     14  O   UNL     1       6.605   4.336  18.953  0.00  0.00    +0.000 OA
ENDBRANCH   7  14
BRANCH  12  15
ATOM     15  O   UNL     1       4.997   2.003  19.841  0.00  0.00    +0.000 OA
ATOM     16  H   UNL     1       5.318   1.633  19.003  0.00  0.00    +0.000 HD
ENDBRANCH  12  15
ENDBRANCH   1   9
BRANCH   3  17
ATOM     17  C   UNL     1       0.499   9.595  20.981  0.00  0.00    +0.000 A 
ATOM     18  C   UNL     1       0.461   9.028  22.269  0.00  0.00    +0.000 A 
ATOM     19  C   UNL     1      -0.309   9.586  23.295  0.00  0.00    +0.000 A 
ATOM     20  C   UNL     1      -1.052  10.737  23.059  0.00  0.00    +0.000 A 
ATOM     21  C   UNL     1      -1.030  11.326  21.799  0.00  0.00    +0.000 A 
ATOM     22  C   UNL     1      -0.268  10.757  20.772  0.00  0.00    +0.000 A 
ENDBRANCH   3  17
BRANCH   6  23
ATOM     23  N   UNL     1       3.481   7.472  16.682  0.00  0.00    +0.000 N 
ATOM     24  H   UNL     1       3.086   6.579  16.401  0.00  0.00    +0.000 HD
ATOM     25  H   UNL     1       4.477   7.420  16.863  0.00  0.00    +0.000 HD
ENDBRANCH   6  23
TORSDOF 5
ENDMDL
MODEL 9
REMARK VINA RESULT:      -7.5      3.663      7.946
REMARK  Name = 
REMARK  6 active torsions:
REMARK  status: ('A' for Active; 'I' for Inactive)
REMARK    1  A    between atoms: C_1  and  O_2
REMARK    2  A    between atoms: O_2  and  C_3
REMARK    3  A    between atoms: C_5  and  C_6
REMARK    4  A    between atoms: C_8  and  C_9
REMARK    5  A    between atoms: C_17  and  N_18
REMARK    6  A    between atoms: C_21  and  O_22
REMARK                            x       y       z     vdW  Elec       q    Type
REMARK                         _______ _______ _______ _____ _____    ______ ____
ROOT
ATOM      1  C   UNL     1       5.562   5.188  16.326  0.00  0.00    +0.000 A 
ATOM      2  C   UNL     1       5.171   4.455  15.182  0.00  0.00    +0.000 A 
ATOM      3  C   UNL     1       6.000   4.295  14.057  0.00  0.00    +0.000 A 
ATOM      4  C   UNL     1       7.236   4.920  14.147  0.00  0.00    +0.000 A 
ATOM      5  N   UNL     1       7.682   5.616  15.218  0.00  0.00    +0.000 NA
ATOM      6  C   UNL     1       6.859   5.730  16.280  0.00  0.00    +0.000 A 
ENDROOT
BRANCH   1   9
ATOM      7  C   UNL     1       3.509   4.449  19.491  0.00  0.00    +0.000 A 
ATOM      8  C   UNL     1       4.400   4.325  18.411  0.00  0.00    +0.000 A 
ATOM      9  C   UNL     1       4.614   5.347  17.468  0.00  0.00    +0.000 A 
ATOM     10  C   UNL     1       3.905   6.543  17.679  0.00  0.00    +0.000 A 
ATOM     11  C   UNL     1       3.045   6.707  18.772  0.00  0.00    +0.000 A 
ATOM     12  C   UNL     1       2.841   5.660  19.672  0.00  0.00    +0.000 A 
BRANCH   7  14
ATOM     13  C   UNL     1       4.383   2.284  20.022  0.00  0.00    +0.000 C 
ATOM     14  O   UNL     1       3.426   3.306  20.241  0.00  0.00    +0.000 OA
ENDBRANCH   7  14
BRANCH  12  15
ATOM     15  O   UNL     1       1.985   5.860  20.717  0.00  0.00    +0.000 OA
ATOM     16  H   UNL     1       1.979   6.801  20.951  0.00  0.00    +0.000 HD
ENDBRANCH  12  15
ENDBRANCH   1   9
BRANCH   3  17
ATOM     17  C   UNL     1       5.581   3.524  12.868  0.00  0.00    +0.000 A 
ATOM     18  C   UNL     1       6.394   2.510  12.326  0.00  0.00    +0.000 A 
ATOM     19  C   UNL     1       6.009   1.787  11.192  0.00  0.00    +0.000 A 
ATOM     20  C   UNL     1       4.790   2.053  10.578  0.00  0.00    +0.000 A 
ATOM     21  C   UNL     1       3.961   3.043  11.094  0.00  0.00    +0.000 A 
ATOM     22  C   UNL     1       4.355   3.772  12.221  0.00  0.00    +0.000 A 
ENDBRANCH   3  17
BRANCH   6  23
ATOM     23  N   UNL     1       7.416   6.469  17.322  0.00  0.00    +0.000 N 
ATOM     24  H   UNL     1       8.219   5.947  17.662  0.00  0.00    +0.000 HD
ATOM     25  H   UNL     1       6.738   6.663  18.050  0.00  0.00    +0.000 HD
ENDBRANCH   6  23
TORSDOF 5
ENDMDL
