MODEL 1
REMARK VINA RESULT:      -7.9      0.000      0.000
REMARK  Name = 
REMARK  4 active torsions:
REMARK  status: ('A' for Active; 'I' for Inactive)
REMARK    1  A    between atoms: C_1  and  O_2
REMARK    2  A    between atoms: O_2  and  C_3
REMARK    3  A    between atoms: C_12  and  C_13
REMARK    4  A    between atoms: C_21  and  C_22
REMARK                            x       y       z     vdW  Elec       q    Type
REMARK                         _______ _______ _______ _____ _____    ______ ____
ROOT
ATOM      1  C   UNL     1       1.631   3.705  19.360  0.00  0.00    +0.000 A 
ATOM      2  C   UNL     1       1.687   2.677  18.406  0.00  0.00    +0.000 A 
ATOM      3  C   UNL     1       2.599   2.705  17.283  0.00  0.00    +0.000 A 
ATOM      4  C   UNL     1       3.573   3.703  17.201  0.00  0.00    +0.000 A 
ATOM      5  C   UNL     1       3.562   4.580  18.320  0.00  0.00    +0.000 A 
ATOM      6  C   UNL     1       2.517   4.751  19.240  0.00  0.00    +0.000 A 
ATOM      7  S   UNL     1       5.187   4.470  19.092  0.00  0.00    +0.000 S 
ATOM      8  C   UNL     1       5.864   3.941  17.502  0.00  0.00    +0.000 C 
ATOM      9  N   UNL     1       6.963   4.578  17.253  0.00  0.00    +0.000 NA
ATOM     10  C   UNL     1       6.560   5.841  16.814  0.00  0.00    +0.000 C 
ATOM     11  C   UNL     1       5.571   5.805  15.827  0.00  0.00    +0.000 C 
ATOM     12  C   UNL     1       5.137   4.258  15.148  0.00  0.00    +0.000 C 
ATOM     13  C   UNL     1       5.933   3.744  13.881  0.00  0.00    +0.000 C 
ATOM     14  N   UNL     1       4.890   3.521  16.495  0.00  0.00    +0.000 N 
ENDROOT
BRANCH  10  15
ATOM     15  C   UNL     1       7.271   6.997  17.555  0.00  0.00    +0.000 A 
ATOM     16  C   UNL     1       8.130   6.827  18.648  0.00  0.00    +0.000 A 
ATOM     17  C   UNL     1       8.822   7.914  19.250  0.00  0.00    +0.000 A 
ATOM     18  C   UNL     1       8.706   9.210  18.751  0.00  0.00    +0.000 A 
ATOM     19  C   UNL     1       7.872   9.430  17.663  0.00  0.00    +0.000 A 
ATOM     20  C   UNL     1       7.167   8.337  17.079  0.00  0.00    +0.000 A 
ENDBRANCH  10  15
BRANCH   1  22
ATOM     21  C   UNL     1       1.242   2.942  21.608  0.00  0.00    +0.000 C 
ATOM     22  O   UNL     1       0.891   3.772  20.509  0.00  0.00    +0.000 OA
ENDBRANCH   1  22
BRANCH  13  23
ATOM     23  C   UNL     1       6.982   4.790  14.222  0.00  0.00    +0.000 C 
ATOM     24  N   UNL     1       7.853   5.656  14.505  0.00  0.00    +0.000 NA
ENDBRANCH  13  23
TORSDOF 3
ENDMDL
MODEL 2
REMARK VINA RESULT:      -6.6      3.175      5.437
REMARK  Name = 
REMARK  4 active torsions:
REMARK  status: ('A' for Active; 'I' for Inactive)
REMARK    1  A    between atoms: C_1  and  O_2
REMARK    2  A    between atoms: O_2  and  C_3
REMARK    3  A    between atoms: C_12  and  C_13
REMARK    4  A    between atoms: C_21  and  C_22
REMARK                            x       y       z     vdW  Elec       q    Type
REMARK                         _______ _______ _______ _____ _____    ______ ____
ROOT
ATOM      1  C   UNL     1       1.701   9.403  18.794  0.00  0.00    +0.000 A 
ATOM      2  C   UNL     1       1.314   8.784  19.993  0.00  0.00    +0.000 A 
ATOM      3  C   UNL     1       1.449   7.361  20.215  0.00  0.00    +0.000 A 
ATOM      4  C   UNL     1       2.120   6.571  19.279  0.00  0.00    +0.000 A 
ATOM      5  C   UNL     1       2.650   7.325  18.197  0.00  0.00    +0.000 A 
ATOM      6  C   UNL     1       2.275   8.622  17.817  0.00  0.00    +0.000 A 
ATOM      7  S   UNL     1       4.433   7.063  18.192  0.00  0.00    +0.000 S 
ATOM      8  C   UNL     1       4.166   5.493  19.046  0.00  0.00    +0.000 C 
ATOM      9  N   UNL     1       4.882   4.563  18.502  0.00  0.00    +0.000 NA
ATOM     10  C   UNL     1       4.192   4.204  17.342  0.00  0.00    +0.000 C 
ATOM     11  C   UNL     1       2.830   3.963  17.549  0.00  0.00    +0.000 C 
ATOM     12  C   UNL     1       2.235   3.935  19.189  0.00  0.00    +0.000 C 
ATOM     13  C   UNL     1       2.244   2.557  19.967  0.00  0.00    +0.000 C 
ATOM     14  N   UNL     1       2.840   5.297  19.635  0.00  0.00    +0.000 N 
ENDROOT
BRANCH  10  15
ATOM     15  C   UNL     1       5.085   4.198  16.080  0.00  0.00    +0.000 A 
ATOM     16  C   UNL     1       4.629   3.899  14.790  0.00  0.00    +0.000 A 
ATOM     17  C   UNL     1       5.471   3.981  13.646  0.00  0.00    +0.000 A 
ATOM     18  C   UNL     1       6.795   4.404  13.751  0.00  0.00    +0.000 A 
ATOM     19  C   UNL     1       7.293   4.720  15.009  0.00  0.00    +0.000 A 
ATOM     20  C   UNL     1       6.447   4.615  16.151  0.00  0.00    +0.000 A 
ENDBRANCH  10  15
BRANCH   1  22
ATOM     21  C   UNL     1       0.739  11.592  19.056  0.00  0.00    +0.000 C 
ATOM     22  O   UNL     1       1.714  10.734  18.478  0.00  0.00    +0.000 OA
ENDBRANCH   1  22
BRANCH  13  23
ATOM     23  C   UNL     1       3.207   2.058  18.902  0.00  0.00    +0.000 C 
ATOM     24  N   UNL     1       4.007   1.646  18.020  0.00  0.00    +0.000 NA
ENDBRANCH  13  23
TORSDOF 3
ENDMDL
MODEL 3
REMARK VINA RESULT:      -6.4      3.074      5.265
REMARK  Name = 
REMARK  4 active torsions:
REMARK  status: ('A' for Active; 'I' for Inactive)
REMARK    1  A    between atoms: C_1  and  O_2
REMARK    2  A    between atoms: O_2  and  C_3
REMARK    3  A    between atoms: C_12  and  C_13
REMARK    4  A    between atoms: C_21  and  C_22
REMARK                            x       y       z     vdW  Elec       q    Type
REMARK                         _______ _______ _______ _____ _____    ______ ____
ROOT
ATOM      1  C   UNL     1       1.495   9.043  19.610  0.00  0.00    +0.000 A 
ATOM      2  C   UNL     1       1.089   8.259  20.701  0.00  0.00    +0.000 A 
ATOM      3  C   UNL     1       1.252   6.821  20.730  0.00  0.00    +0.000 A 
ATOM      4  C   UNL     1       1.968   6.180  19.717  0.00  0.00    +0.000 A 
ATOM      5  C   UNL     1       2.510   7.085  18.764  0.00  0.00    +0.000 A 
ATOM      6  C   UNL     1       2.115   8.415  18.554  0.00  0.00    +0.000 A 
ATOM      7  S   UNL     1       4.298   6.861  18.780  0.00  0.00    +0.000 S 
ATOM      8  C   UNL     1       4.043   5.184  19.403  0.00  0.00    +0.000 C 
ATOM      9  N   UNL     1       4.797   4.351  18.760  0.00  0.00    +0.000 NA
ATOM     10  C   UNL     1       4.148   4.141  17.541  0.00  0.00    +0.000 C 
ATOM     11  C   UNL     1       2.787   3.848  17.670  0.00  0.00    +0.000 C 
ATOM     12  C   UNL     1       2.147   3.584  19.272  0.00  0.00    +0.000 C 
ATOM     13  C   UNL     1       2.165   2.113  19.854  0.00  0.00    +0.000 C 
ATOM     14  N   UNL     1       2.707   4.884  19.918  0.00  0.00    +0.000 N 
ENDROOT
BRANCH  10  15
ATOM     15  C   UNL     1       5.076   4.326  16.318  0.00  0.00    +0.000 A 
ATOM     16  C   UNL     1       6.417   4.724  16.396  0.00  0.00    +0.000 A 
ATOM     17  C   UNL     1       7.255   4.806  15.250  0.00  0.00    +0.000 A 
ATOM     18  C   UNL     1       6.787   4.455  13.985  0.00  0.00    +0.000 A 
ATOM     19  C   UNL     1       5.466   4.046  13.856  0.00  0.00    +0.000 A 
ATOM     20  C   UNL     1       4.629   3.986  15.008  0.00  0.00    +0.000 A 
ENDBRANCH  10  15
BRANCH   1  22
ATOM     21  C   UNL     1       0.425  11.024  18.764  0.00  0.00    +0.000 C 
ATOM     22  O   UNL     1       1.486  10.405  19.479  0.00  0.00    +0.000 OA
ENDBRANCH   1  22
BRANCH  13  23
ATOM     23  C   UNL     1       3.170   1.784  18.762  0.00  0.00    +0.000 C 
ATOM     24  N   UNL     1       4.003   1.510  17.857  0.00  0.00    +0.000 NA
ENDBRANCH  13  23
TORSDOF 3
ENDMDL
MODEL 4
REMARK VINA RESULT:      -5.8      7.173      9.052
REMARK  Name = 
REMARK  4 active torsions:
REMARK  status: ('A' for Active; 'I' for Inactive)
REMARK    1  A    between atoms: C_1  and  O_2
REMARK    2  A    between atoms: O_2  and  C_3
REMARK    3  A    between atoms: C_12  and  C_13
REMARK    4  A    between atoms: C_21  and  C_22
REMARK                            x       y       z     vdW  Elec       q    Type
REMARK                         _______ _______ _______ _____ _____    ______ ____
ROOT
ATOM      1  C   UNL     1      -3.576  10.845  16.626  0.00  0.00    +0.000 A 
ATOM      2  C   UNL     1      -3.873  11.804  17.608  0.00  0.00    +0.000 A 
ATOM      3  C   UNL     1      -3.253  11.797  18.915  0.00  0.00    +0.000 A 
ATOM      4  C   UNL     1      -2.211  10.908  19.188  0.00  0.00    +0.000 A 
ATOM      5  C   UNL     1      -1.850  10.117  18.064  0.00  0.00    +0.000 A 
ATOM      6  C   UNL     1      -2.621   9.898  16.912  0.00  0.00    +0.000 A 
ATOM      7  S   UNL     1      -0.116  10.459  17.712  0.00  0.00    +0.000 S 
ATOM      8  C   UNL     1       0.099  10.946  19.439  0.00  0.00    +0.000 C 
ATOM      9  N   UNL     1       1.179  10.418  19.918  0.00  0.00    +0.000 NA
ATOM     10  C   UNL     1       0.844   9.091  20.194  0.00  0.00    +0.000 C 
ATOM     11  C   UNL     1      -0.347   8.948  20.914  0.00  0.00    +0.000 C 
ATOM     12  C   UNL     1      -1.115  10.386  21.533  0.00  0.00    +0.000 C 
ATOM     13  C   UNL     1      -0.708  10.894  22.975  0.00  0.00    +0.000 C 
ATOM     14  N   UNL     1      -1.129  11.185  20.198  0.00  0.00    +0.000 N 
ENDROOT
BRANCH  10  15
ATOM     15  C   UNL     1       1.845   8.074  19.598  0.00  0.00    +0.000 A 
ATOM     16  C   UNL     1       2.125   6.820  20.156  0.00  0.00    +0.000 A 
ATOM     17  C   UNL     1       2.997   5.886  19.531  0.00  0.00    +0.000 A 
ATOM     18  C   UNL     1       3.593   6.162  18.302  0.00  0.00    +0.000 A 
ATOM     19  C   UNL     1       3.341   7.390  17.704  0.00  0.00    +0.000 A 
ATOM     20  C   UNL     1       2.481   8.327  18.347  0.00  0.00    +0.000 A 
ENDBRANCH  10  15
BRANCH   1  22
ATOM     21  C   UNL     1      -3.225  10.086  14.371  0.00  0.00    +0.000 C 
ATOM     22  O   UNL     1      -4.013  10.778  15.331  0.00  0.00    +0.000 OA
ENDBRANCH   1  22
BRANCH  13  23
ATOM     23  C   UNL     1       0.513   9.997  22.854  0.00  0.00    +0.000 C 
ATOM     24  N   UNL     1       1.525   9.253  22.752  0.00  0.00    +0.000 NA
ENDBRANCH  13  23
TORSDOF 3
ENDMDL
MODEL 5
REMARK VINA RESULT:      -5.7      3.276      5.539
REMARK  Name = 
REMARK  4 active torsions:
REMARK  status: ('A' for Active; 'I' for Inactive)
REMARK    1  A    between atoms: C_1  and  O_2
REMARK    2  A    between atoms: O_2  and  C_3
REMARK    3  A    between atoms: C_12  and  C_13
REMARK    4  A    between atoms: C_21  and  C_22
REMARK                            x       y       z     vdW  Elec       q    Type
REMARK                         _______ _______ _______ _____ _____    ______ ____
ROOT
ATOM      1  C   UNL     1       1.163   9.407  20.001  0.00  0.00    +0.000 A 
ATOM      2  C   UNL     1       0.709   8.641  21.086  0.00  0.00    +0.000 A 
ATOM      3  C   UNL     1       0.820   7.199  21.122  0.00  0.00    +0.000 A 
ATOM      4  C   UNL     1       1.533   6.530  20.124  0.00  0.00    +0.000 A 
ATOM      5  C   UNL     1       2.124   7.413  19.180  0.00  0.00    +0.000 A 
ATOM      6  C   UNL     1       1.781   8.755  18.959  0.00  0.00    +0.000 A 
ATOM      7  S   UNL     1       3.902   7.126  19.230  0.00  0.00    +0.000 S 
ATOM      8  C   UNL     1       3.577   5.460  19.852  0.00  0.00    +0.000 C 
ATOM      9  N   UNL     1       4.314   4.600  19.225  0.00  0.00    +0.000 NA
ATOM     10  C   UNL     1       3.681   4.410  17.994  0.00  0.00    +0.000 C 
ATOM     11  C   UNL     1       2.308   4.165  18.098  0.00  0.00    +0.000 C 
ATOM     12  C   UNL     1       1.629   3.927  19.687  0.00  0.00    +0.000 C 
ATOM     13  C   UNL     1       1.585   2.459  20.273  0.00  0.00    +0.000 C 
ATOM     14  N   UNL     1       2.222   5.209  20.341  0.00  0.00    +0.000 N 
ENDROOT
BRANCH  10  15
ATOM     15  C   UNL     1       4.639   4.558  16.789  0.00  0.00    +0.000 A 
ATOM     16  C   UNL     1       5.269   3.487  16.144  0.00  0.00    +0.000 A 
ATOM     17  C   UNL     1       6.082   3.665  14.990  0.00  0.00    +0.000 A 
ATOM     18  C   UNL     1       6.262   4.923  14.419  0.00  0.00    +0.000 A 
ATOM     19  C   UNL     1       5.651   6.017  15.017  0.00  0.00    +0.000 A 
ATOM     20  C   UNL     1       4.855   5.831  16.185  0.00  0.00    +0.000 A 
ENDBRANCH  10  15
BRANCH   1  22
ATOM     21  C   UNL     1       1.441  11.330  18.583  0.00  0.00    +0.000 C 
ATOM     22  O   UNL     1       1.204  10.768  19.867  0.00  0.00    +0.000 OA
ENDBRANCH   1  22
BRANCH  13  23
ATOM     23  C   UNL     1       2.598   2.091  19.202  0.00  0.00    +0.000 C 
ATOM     24  N   UNL     1       3.439   1.787  18.314  0.00  0.00    +0.000 NA
ENDBRANCH  13  23
TORSDOF 3
ENDMDL
MODEL 6
REMARK VINA RESULT:      -5.7      7.054      8.992
REMARK  Name = 
REMARK  4 active torsions:
REMARK  status: ('A' for Active; 'I' for Inactive)
REMARK    1  A    between atoms: C_1  and  O_2
REMARK    2  A    between atoms: O_2  and  C_3
REMARK    3  A    between atoms: C_12  and  C_13
REMARK    4  A    between atoms: C_21  and  C_22
REMARK                            x       y       z     vdW  Elec       q    Type
REMARK                         _______ _______ _______ _____ _____    ______ ____
ROOT
ATOM      1  C   UNL     1      -3.569  10.635  16.502  0.00  0.00    +0.000 A 
ATOM      2  C   UNL     1      -3.823  11.651  17.437  0.00  0.00    +0.000 A 
ATOM      3  C   UNL     1      -3.182  11.696  18.733  0.00  0.00    +0.000 A 
ATOM      4  C   UNL     1      -2.160  10.794  19.037  0.00  0.00    +0.000 A 
ATOM      5  C   UNL     1      -1.839   9.936  17.950  0.00  0.00    +0.000 A 
ATOM      6  C   UNL     1      -2.634   9.678  16.824  0.00  0.00    +0.000 A 
ATOM      7  S   UNL     1      -0.102  10.210  17.555  0.00  0.00    +0.000 S 
ATOM      8  C   UNL     1       0.154  10.780  19.250  0.00  0.00    +0.000 C 
ATOM      9  N   UNL     1       1.228  10.249  19.740  0.00  0.00    +0.000 NA
ATOM     10  C   UNL     1       0.861   8.947  20.090  0.00  0.00    +0.000 C 
ATOM     11  C   UNL     1      -0.320   8.875  20.835  0.00  0.00    +0.000 C 
ATOM     12  C   UNL     1      -1.040  10.365  21.389  0.00  0.00    +0.000 C 
ATOM     13  C   UNL     1      -0.596  10.936  22.796  0.00  0.00    +0.000 C 
ATOM     14  N   UNL     1      -1.054  11.093  20.014  0.00  0.00    +0.000 N 
ENDROOT
BRANCH  10  15
ATOM     15  C   UNL     1       1.825   7.874  19.534  0.00  0.00    +0.000 A 
ATOM     16  C   UNL     1       2.601   8.030  18.378  0.00  0.00    +0.000 A 
ATOM     17  C   UNL     1       3.532   7.045  17.947  0.00  0.00    +0.000 A 
ATOM     18  C   UNL     1       3.746   5.881  18.682  0.00  0.00    +0.000 A 
ATOM     19  C   UNL     1       3.006   5.682  19.841  0.00  0.00    +0.000 A 
ATOM     20  C   UNL     1       2.061   6.666  20.254  0.00  0.00    +0.000 A 
ENDBRANCH  10  15
BRANCH   1  22
ATOM     21  C   UNL     1      -3.115  10.158  14.189  0.00  0.00    +0.000 C 
ATOM     22  O   UNL     1      -4.028  10.513  15.219  0.00  0.00    +0.000 OA
ENDBRANCH   1  22
BRANCH  13  23
ATOM     23  C   UNL     1       0.599  10.000  22.703  0.00  0.00    +0.000 C 
ATOM     24  N   UNL     1       1.588   9.223  22.626  0.00  0.00    +0.000 NA
ENDBRANCH  13  23
TORSDOF 3
ENDMDL
MODEL 7
REMARK VINA RESULT:      -5.6      9.938     11.447
REMARK  Name = 
REMARK  4 active torsions:
REMARK  status: ('A' for Active; 'I' for Inactive)
REMARK    1  A    between atoms: C_1  and  O_2
REMARK    2  A    between atoms: O_2  and  C_3
REMARK    3  A    between atoms: C_12  and  C_13
REMARK    4  A    between atoms: C_21  and  C_22
REMARK                            x       y       z     vdW  Elec       q    Type
REMARK                         _______ _______ _______ _____ _____    ______ ____
ROOT
ATOM      1  C   UNL     1       1.267   9.926  18.822  0.00  0.00    +0.000 A 
ATOM      2  C   UNL     1       0.576   9.632  20.008  0.00  0.00    +0.000 A 
ATOM      3  C   UNL     1       0.152  10.657  20.938  0.00  0.00    +0.000 A 
ATOM      4  C   UNL     1       0.291  12.005  20.599  0.00  0.00    +0.000 A 
ATOM      5  C   UNL     1       0.818  12.196  19.292  0.00  0.00    +0.000 A 
ATOM      6  C   UNL     1       1.503  11.247  18.519  0.00  0.00    +0.000 A 
ATOM      7  S   UNL     1      -0.408  13.133  18.361  0.00  0.00    +0.000 S 
ATOM      8  C   UNL     1      -1.041  13.785  19.923  0.00  0.00    +0.000 C 
ATOM      9  N   UNL     1      -1.236  15.061  19.825  0.00  0.00    +0.000 NA
ATOM     10  C   UNL     1       0.033  15.632  19.946  0.00  0.00    +0.000 C 
ATOM     11  C   UNL     1       0.768  15.149  21.034  0.00  0.00    +0.000 C 
ATOM     12  C   UNL     1      -0.036  14.100  22.173  0.00  0.00    +0.000 C 
ATOM     13  C   UNL     1      -0.775  14.757  23.407  0.00  0.00    +0.000 C 
ATOM     14  N   UNL     1      -0.605  13.090  21.134  0.00  0.00    +0.000 N 
ENDROOT
BRANCH  10  15
ATOM     15  C   UNL     1       0.356  16.640  18.819  0.00  0.00    +0.000 A 
ATOM     16  C   UNL     1       1.636  16.854  18.292  0.00  0.00    +0.000 A 
ATOM     17  C   UNL     1       1.873  17.737  17.202  0.00  0.00    +0.000 A 
ATOM     18  C   UNL     1       0.827  18.410  16.575  0.00  0.00    +0.000 A 
ATOM     19  C   UNL     1      -0.464  18.225  17.055  0.00  0.00    +0.000 A 
ATOM     20  C   UNL     1      -0.688  17.353  18.161  0.00  0.00    +0.000 A 
ENDBRANCH  10  15
BRANCH   1  22
ATOM     21  C   UNL     1       2.424   7.932  18.137  0.00  0.00    +0.000 C 
ATOM     22  O   UNL     1       1.649   9.079  17.818  0.00  0.00    +0.000 OA
ENDBRANCH   1  22
BRANCH  13  23
ATOM     23  C   UNL     1      -0.704  16.069  22.643  0.00  0.00    +0.000 C 
ATOM     24  N   UNL     1      -0.644  17.157  22.008  0.00  0.00    +0.000 NA
ENDBRANCH  13  23
TORSDOF 3
ENDMDL
MODEL 8
REMARK VINA RESULT:      -5.6      8.730     10.231
REMARK  Name = 
REMARK  4 active torsions:
REMARK  status: ('A' for Active; 'I' for Inactive)
REMARK    1  A    between atoms: C_1  and  O_2
REMARK    2  A    between atoms: O_2  and  C_3
REMARK    3  A    between atoms: C_12  and  C_13
REMARK    4  A    between atoms: C_21  and  C_22
REMARK                            x       y       z     vdW  Elec       q    Type
REMARK                         _______ _______ _______ _____ _____    ______ ____
ROOT
ATOM      1  C   UNL     1      -3.218  12.674  23.497  0.00  0.00    +0.000 A 
ATOM      2  C   UNL     1      -3.184  14.008  23.061  0.00  0.00    +0.000 A 
ATOM      3  C   UNL     1      -2.164  14.508  22.164  0.00  0.00    +0.000 A 
ATOM      4  C   UNL     1      -1.256  13.623  21.578  0.00  0.00    +0.000 A 
ATOM      5  C   UNL     1      -1.501  12.267  21.928  0.00  0.00    +0.000 A 
ATOM      6  C   UNL     1      -2.269  11.807  23.008  0.00  0.00    +0.000 A 
ATOM      7  S   UNL     1      -1.810  11.374  20.394  0.00  0.00    +0.000 S 
ATOM      8  C   UNL     1      -0.862  12.635  19.513  0.00  0.00    +0.000 C 
ATOM      9  N   UNL     1      -0.044  12.075  18.680  0.00  0.00    +0.000 NA
ATOM     10  C   UNL     1       1.022  11.628  19.464  0.00  0.00    +0.000 C 
ATOM     11  C   UNL     1       1.521  12.595  20.342  0.00  0.00    +0.000 C 
ATOM     12  C   UNL     1       0.917  14.226  20.205  0.00  0.00    +0.000 C 
ATOM     13  C   UNL     1       1.664  15.224  19.230  0.00  0.00    +0.000 C 
ATOM     14  N   UNL     1      -0.598  13.872  20.247  0.00  0.00    +0.000 N 
ENDROOT
BRANCH  10  15
ATOM     15  C   UNL     1       1.382  10.145  19.213  0.00  0.00    +0.000 A 
ATOM     16  C   UNL     1       1.834   9.637  17.988  0.00  0.00    +0.000 A 
ATOM     17  C   UNL     1       2.226   8.279  17.825  0.00  0.00    +0.000 A 
ATOM     18  C   UNL     1       2.214   7.389  18.896  0.00  0.00    +0.000 A 
ATOM     19  C   UNL     1       1.780   7.846  20.134  0.00  0.00    +0.000 A 
ATOM     20  C   UNL     1       1.370   9.203  20.283  0.00  0.00    +0.000 A 
ENDBRANCH  10  15
BRANCH   1  22
ATOM     21  C   UNL     1      -5.447  12.631  24.399  0.00  0.00    +0.000 C 
ATOM     22  O   UNL     1      -4.159  12.045  24.265  0.00  0.00    +0.000 OA
ENDBRANCH   1  22
BRANCH  13  23
ATOM     23  C   UNL     1       2.309  13.997  18.606  0.00  0.00    +0.000 C 
ATOM     24  N   UNL     1       2.846  12.980  18.089  0.00  0.00    +0.000 NA
ENDBRANCH  13  23
TORSDOF 3
ENDMDL
MODEL 9
REMARK VINA RESULT:      -5.6     11.081     13.383
REMARK  Name = 
REMARK  4 active torsions:
REMARK  status: ('A' for Active; 'I' for Inactive)
REMARK    1  A    between atoms: C_1  and  O_2
REMARK    2  A    between atoms: O_2  and  C_3
REMARK    3  A    between atoms: C_12  and  C_13
REMARK    4  A    between atoms: C_21  and  C_22
REMARK                            x       y       z     vdW  Elec       q    Type
REMARK                         _______ _______ _______ _____ _____    ______ ____
ROOT
ATOM      1  C   UNL     1      -0.412  17.209  18.752  0.00  0.00    +0.000 A 
ATOM      2  C   UNL     1      -1.234  18.001  19.570  0.00  0.00    +0.000 A 
ATOM      3  C   UNL     1      -2.109  17.438  20.575  0.00  0.00    +0.000 A 
ATOM      4  C   UNL     1      -2.046  16.073  20.867  0.00  0.00    +0.000 A 
ATOM      5  C   UNL     1      -1.041  15.394  20.126  0.00  0.00    +0.000 A 
ATOM      6  C   UNL     1      -0.411  15.849  18.958  0.00  0.00    +0.000 A 
ATOM      7  S   UNL     1       0.097  14.669  21.320  0.00  0.00    +0.000 S 
ATOM      8  C   UNL     1      -1.237  14.677  22.539  0.00  0.00    +0.000 C 
ATOM      9  N   UNL     1      -1.275  13.544  23.164  0.00  0.00    +0.000 NA
ATOM     10  C   UNL     1      -1.905  12.664  22.281  0.00  0.00    +0.000 C 
ATOM     11  C   UNL     1      -3.090  13.165  21.734  0.00  0.00    +0.000 C 
ATOM     12  C   UNL     1      -3.715  14.670  22.356  0.00  0.00    +0.000 C 
ATOM     13  C   UNL     1      -4.710  14.619  23.585  0.00  0.00    +0.000 C 
ATOM     14  N   UNL     1      -2.405  15.496  22.210  0.00  0.00    +0.000 N 
ENDROOT
BRANCH  10  15
ATOM     15  C   UNL     1      -1.121  11.347  22.074  0.00  0.00    +0.000 A 
ATOM     16  C   UNL     1      -0.593  10.925  20.847  0.00  0.00    +0.000 A 
ATOM     17  C   UNL     1       0.188   9.742  20.720  0.00  0.00    +0.000 A 
ATOM     18  C   UNL     1       0.499   8.958  21.829  0.00  0.00    +0.000 A 
ATOM     19  C   UNL     1       0.005   9.338  23.070  0.00  0.00    +0.000 A 
ATOM     20  C   UNL     1      -0.793  10.514  23.184  0.00  0.00    +0.000 A 
ENDBRANCH  10  15
BRANCH   1  22
ATOM     21  C   UNL     1       1.862  17.157  17.972  0.00  0.00    +0.000 C 
ATOM     22  O   UNL     1       0.520  17.603  17.832  0.00  0.00    +0.000 OA
ENDBRANCH   1  22
BRANCH  13  23
ATOM     23  C   UNL     1      -4.225  13.196  23.811  0.00  0.00    +0.000 C 
ATOM     24  N   UNL     1      -3.821  12.017  23.998  0.00  0.00    +0.000 NA
ENDBRANCH  13  23
TORSDOF 3
ENDMDL
