MODEL 1
REMARK VINA RESULT:      -8.1      0.000      0.000
REMARK  Name = 
REMARK  6 active torsions:
REMARK  status: ('A' for Active; 'I' for Inactive)
REMARK    1  A    between atoms: N_1  and  C_2
REMARK    2  A    between atoms: C_6  and  N_7
REMARK    3  A    between atoms: N_10  and  C_11
REMARK    4  A    between atoms: C_11  and  C_12
REMARK    5  A    between atoms: C_12  and  C_13
REMARK    6  A    between atoms: C_13  and  N_14
REMARK                            x       y       z     vdW  Elec       q    Type
REMARK                         _______ _______ _______ _____ _____    ______ ____
ROOT
ATOM      1  N   UNL     1       4.375   4.296  17.900  0.00  0.00    +0.000 N 
ATOM      2  C   UNL     1       3.157   5.109  17.824  0.00  0.00    +0.000 C 
ATOM      3  C   UNL     1       1.970   4.293  18.383  0.00  0.00    +0.000 C 
ATOM      4  N   UNL     1       2.171   3.779  19.761  0.00  0.00    +0.000 NA
ATOM      5  C   UNL     1       3.422   2.981  19.770  0.00  0.00    +0.000 C 
ATOM      6  C   UNL     1       4.674   3.705  19.214  0.00  0.00    +0.000 C 
ENDROOT
BRANCH   1  11
ATOM      7  C   UNL     1       6.138   4.038  14.657  0.00  0.00    +0.000 A 
ATOM      8  C   UNL     1       7.255   4.833  14.895  0.00  0.00    +0.000 A 
ATOM      9  C   UNL     1       7.421   5.460  16.131  0.00  0.00    +0.000 A 
ATOM     10  C   UNL     1       6.476   5.271  17.139  0.00  0.00    +0.000 A 
ATOM     11  C   UNL     1       5.370   4.437  16.951  0.00  0.00    +0.000 A 
ATOM     12  C   UNL     1       5.248   3.795  15.709  0.00  0.00    +0.000 A 
BRANCH   7  13
ATOM     13  N   UNL     1       6.006   3.335  13.452  0.00  0.00    +0.000 N 
ATOM     14  H   UNL     1       5.320   2.586  13.500  0.00  0.00    +0.000 HD
ATOM     15  H   UNL     1       6.894   3.010  13.077  0.00  0.00    +0.000 HD
ENDBRANCH   7  13
ENDBRANCH   1  11
BRANCH   4  16
ATOM     16  C   UNL     1       2.214   4.847  20.768  0.00  0.00    +0.000 C 
BRANCH  16  17
ATOM     17  C   UNL     1       1.349   6.058  20.413  0.00  0.00    +0.000 C 
BRANCH  17  18
ATOM     18  C   UNL     1       2.102   7.380  20.575  0.00  0.00    +0.000 C 
BRANCH  18  19
ATOM     19  N   UNL     1       1.308   8.513  20.090  0.00  0.00    +0.000 N 
ATOM     20  C   UNL     1       1.516   8.889  18.766  0.00  0.00    +0.000 C 
ATOM     21  O   UNL     1       2.352   8.350  18.035  0.00  0.00    +0.000 OA
ATOM     22  C   UNL     1       0.589   9.914  18.178  0.00  0.00    +0.000 C 
ATOM     23  C   UNL     1       0.059  10.940  19.152  0.00  0.00    +0.000 C 
ATOM     24  C   UNL     1      -0.115  10.457  20.564  0.00  0.00    +0.000 A 
ATOM     25  C   UNL     1      -0.831  11.238  21.497  0.00  0.00    +0.000 A 
ATOM     26 CL   UNL     1      -1.579  12.734  21.052  0.00  0.00    +0.000 Cl
ATOM     27  C   UNL     1      -0.939  10.849  22.833  0.00  0.00    +0.000 A 
ATOM     28  C   UNL     1      -0.336   9.678  23.260  0.00  0.00    +0.000 A 
ATOM     29  C   UNL     1       0.375   8.896  22.348  0.00  0.00    +0.000 A 
ATOM     30  C   UNL     1       0.507   9.274  20.996  0.00  0.00    +0.000 A 
ENDBRANCH  18  19
ENDBRANCH  17  18
ENDBRANCH  16  17
ENDBRANCH   4  16
TORSDOF 6
ENDMDL
MODEL 2
REMARK VINA RESULT:      -7.9      1.157      1.468
REMARK  Name = 
REMARK  6 active torsions:
REMARK  status: ('A' for Active; 'I' for Inactive)
REMARK    1  A    between atoms: N_1  and  C_2
REMARK    2  A    between atoms: C_6  and  N_7
REMARK    3  A    between atoms: N_10  and  C_11
REMARK    4  A    between atoms: C_11  and  C_12
REMARK    5  A    between atoms: C_12  and  C_13
REMARK    6  A    between atoms: C_13  and  N_14
REMARK                            x       y       z     vdW  Elec       q    Type
REMARK                         _______ _______ _______ _____ _____    ______ ____
ROOT
ATOM      1  N   UNL     1       4.047   4.022  18.064  0.00  0.00    +0.000 N 
ATOM      2  C   UNL     1       2.631   4.374  17.911  0.00  0.00    +0.000 C 
ATOM      3  C   UNL     1       1.767   3.311  18.625  0.00  0.00    +0.000 C 
ATOM      4  N   UNL     1       2.104   3.105  20.057  0.00  0.00    +0.000 NA
ATOM      5  C   UNL     1       3.546   2.768  20.140  0.00  0.00    +0.000 C 
ATOM      6  C   UNL     1       4.502   3.766  19.440  0.00  0.00    +0.000 C 
ENDROOT
BRANCH   1  11
ATOM      7  C   UNL     1       6.881   5.666  16.345  0.00  0.00    +0.000 A 
ATOM      8  C   UNL     1       6.964   4.908  15.181  0.00  0.00    +0.000 A 
ATOM      9  C   UNL     1       6.084   3.848  14.969  0.00  0.00    +0.000 A 
ATOM     10  C   UNL     1       5.101   3.559  15.916  0.00  0.00    +0.000 A 
ATOM     11  C   UNL     1       4.955   4.333  17.070  0.00  0.00    +0.000 A 
ATOM     12  C   UNL     1       5.836   5.413  17.240  0.00  0.00    +0.000 A 
BRANCH   7  13
ATOM     13  N   UNL     1       7.702   6.787  16.528  0.00  0.00    +0.000 N 
ATOM     14  H   UNL     1       8.547   6.758  15.963  0.00  0.00    +0.000 HD
ATOM     15  H   UNL     1       7.908   6.980  17.506  0.00  0.00    +0.000 HD
ENDBRANCH   7  13
ENDBRANCH   1  11
BRANCH   4  16
ATOM     16  C   UNL     1       1.780   4.269  20.893  0.00  0.00    +0.000 C 
BRANCH  16  17
ATOM     17  C   UNL     1       1.411   5.516  20.087  0.00  0.00    +0.000 C 
BRANCH  17  18
ATOM     18  C   UNL     1       2.238   6.737  20.494  0.00  0.00    +0.000 C 
BRANCH  18  19
ATOM     19  N   UNL     1       1.692   7.972  19.921  0.00  0.00    +0.000 N 
ATOM     20  C   UNL     1       2.118   8.296  18.636  0.00  0.00    +0.000 C 
ATOM     21  O   UNL     1       2.950   7.630  18.014  0.00  0.00    +0.000 OA
ATOM     22  C   UNL     1       1.438   9.442  17.944  0.00  0.00    +0.000 C 
ATOM     23  C   UNL     1       0.950  10.547  18.851  0.00  0.00    +0.000 C 
ATOM     24  C   UNL     1       0.528  10.113  20.225  0.00  0.00    +0.000 A 
ATOM     25  C   UNL     1      -0.174  11.003  21.066  0.00  0.00    +0.000 A 
ATOM     26 CL   UNL     1      -0.626  12.589  20.541  0.00  0.00    +0.000 Cl
ATOM     27  C   UNL     1      -0.506  10.651  22.375  0.00  0.00    +0.000 A 
ATOM     28  C   UNL     1      -0.145   9.408  22.866  0.00  0.00    +0.000 A 
ATOM     29  C   UNL     1       0.549   8.517  22.046  0.00  0.00    +0.000 A 
ATOM     30  C   UNL     1       0.906   8.855  20.724  0.00  0.00    +0.000 A 
ENDBRANCH  18  19
ENDBRANCH  17  18
ENDBRANCH  16  17
ENDBRANCH   4  16
TORSDOF 6
ENDMDL
MODEL 3
REMARK VINA RESULT:      -7.9      1.395      2.206
REMARK  Name = 
REMARK  6 active torsions:
REMARK  status: ('A' for Active; 'I' for Inactive)
REMARK    1  A    between atoms: N_1  and  C_2
REMARK    2  A    between atoms: C_6  and  N_7
REMARK    3  A    between atoms: N_10  and  C_11
REMARK    4  A    between atoms: C_11  and  C_12
REMARK    5  A    between atoms: C_12  and  C_13
REMARK    6  A    between atoms: C_13  and  N_14
REMARK                            x       y       z     vdW  Elec       q    Type
REMARK                         _______ _______ _______ _____ _____    ______ ____
ROOT
ATOM      1  N   UNL     1       5.163   4.897  15.949  0.00  0.00    +0.000 N 
ATOM      2  C   UNL     1       4.342   3.831  16.534  0.00  0.00    +0.000 C 
ATOM      3  C   UNL     1       4.429   3.915  18.074  0.00  0.00    +0.000 C 
ATOM      4  N   UNL     1       4.054   5.236  18.641  0.00  0.00    +0.000 NA
ATOM      5  C   UNL     1       4.909   6.265  17.998  0.00  0.00    +0.000 C 
ATOM      6  C   UNL     1       4.905   6.257  16.449  0.00  0.00    +0.000 C 
ENDROOT
BRANCH   1  11
ATOM      7  C   UNL     1       7.752   5.126  13.316  0.00  0.00    +0.000 A 
ATOM      8  C   UNL     1       7.264   4.219  12.381  0.00  0.00    +0.000 A 
ATOM      9  C   UNL     1       6.078   3.527  12.626  0.00  0.00    +0.000 A 
ATOM     10  C   UNL     1       5.366   3.761  13.803  0.00  0.00    +0.000 A 
ATOM     11  C   UNL     1       5.801   4.704  14.739  0.00  0.00    +0.000 A 
ATOM     12  C   UNL     1       6.980   5.407  14.448  0.00  0.00    +0.000 A 
BRANCH   7  13
ATOM     13  N   UNL     1       8.894   5.890  13.041  0.00  0.00    +0.000 N 
ATOM     14  H   UNL     1       8.989   6.699  13.649  0.00  0.00    +0.000 HD
ATOM     15  H   UNL     1       8.982   6.144  12.059  0.00  0.00    +0.000 HD
ENDBRANCH   7  13
ENDBRANCH   1  11
BRANCH   4  16
ATOM     16  C   UNL     1       2.629   5.546  18.470  0.00  0.00    +0.000 C 
BRANCH  16  17
ATOM     17  C   UNL     1       2.002   6.236  19.684  0.00  0.00    +0.000 C 
BRANCH  17  18
ATOM     18  C   UNL     1       2.517   7.664  19.871  0.00  0.00    +0.000 C 
BRANCH  18  19
ATOM     19  N   UNL     1       1.467   8.653  19.600  0.00  0.00    +0.000 N 
ATOM     20  C   UNL     1       1.375   9.109  18.289  0.00  0.00    +0.000 C 
ATOM     21  O   UNL     1       2.152   8.760  17.397  0.00  0.00    +0.000 OA
ATOM     22  C   UNL     1       0.197   9.971  17.932  0.00  0.00    +0.000 C 
ATOM     23  C   UNL     1      -0.324  10.846  19.047  0.00  0.00    +0.000 C 
ATOM     24  C   UNL     1      -0.166  10.286  20.432  0.00  0.00    +0.000 A 
ATOM     25  C   UNL     1      -0.834  10.889  21.520  0.00  0.00    +0.000 A 
ATOM     26 CL   UNL     1      -1.894  12.240  21.306  0.00  0.00    +0.000 Cl
ATOM     27  C   UNL     1      -0.640  10.436  22.827  0.00  0.00    +0.000 A 
ATOM     28  C   UNL     1       0.220   9.379  23.068  0.00  0.00    +0.000 A 
ATOM     29  C   UNL     1       0.887   8.774  22.002  0.00  0.00    +0.000 A 
ATOM     30  C   UNL     1       0.716   9.221  20.675  0.00  0.00    +0.000 A 
ENDBRANCH  18  19
ENDBRANCH  17  18
ENDBRANCH  16  17
ENDBRANCH   4  16
TORSDOF 6
ENDMDL
MODEL 4
REMARK VINA RESULT:      -7.7      1.212      1.860
REMARK  Name = 
REMARK  6 active torsions:
REMARK  status: ('A' for Active; 'I' for Inactive)
REMARK    1  A    between atoms: N_1  and  C_2
REMARK    2  A    between atoms: C_6  and  N_7
REMARK    3  A    between atoms: N_10  and  C_11
REMARK    4  A    between atoms: C_11  and  C_12
REMARK    5  A    between atoms: C_12  and  C_13
REMARK    6  A    between atoms: C_13  and  N_14
REMARK                            x       y       z     vdW  Elec       q    Type
REMARK                         _______ _______ _______ _____ _____    ______ ____
ROOT
ATOM      1  N   UNL     1       5.210   4.746  16.070  0.00  0.00    +0.000 N 
ATOM      2  C   UNL     1       4.243   3.756  16.556  0.00  0.00    +0.000 C 
ATOM      3  C   UNL     1       4.245   3.767  18.101  0.00  0.00    +0.000 C 
ATOM      4  N   UNL     1       3.984   5.097  18.708  0.00  0.00    +0.000 NA
ATOM      5  C   UNL     1       4.985   6.048  18.164  0.00  0.00    +0.000 C 
ATOM      6  C   UNL     1       5.073   6.104  16.618  0.00  0.00    +0.000 C 
ENDROOT
BRANCH   1  11
ATOM      7  C   UNL     1       5.935   3.530  12.651  0.00  0.00    +0.000 A 
ATOM      8  C   UNL     1       7.127   4.193  12.378  0.00  0.00    +0.000 A 
ATOM      9  C   UNL     1       7.689   5.048  13.326  0.00  0.00    +0.000 A 
ATOM     10  C   UNL     1       7.065   5.223  14.562  0.00  0.00    +0.000 A 
ATOM     11  C   UNL     1       5.895   4.532  14.888  0.00  0.00    +0.000 A 
ATOM     12  C   UNL     1       5.373   3.654  13.926  0.00  0.00    +0.000 A 
BRANCH   7  13
ATOM     13  N   UNL     1       5.409   2.603  11.742  0.00  0.00    +0.000 N 
ATOM     14  H   UNL     1       6.018   2.437  10.944  0.00  0.00    +0.000 HD
ATOM     15  H   UNL     1       4.458   2.817  11.452  0.00  0.00    +0.000 HD
ENDBRANCH   7  13
ENDBRANCH   1  11
BRANCH   4  16
ATOM     16  C   UNL     1       2.615   5.572  18.473  0.00  0.00    +0.000 C 
BRANCH  16  17
ATOM     17  C   UNL     1       1.997   6.281  19.681  0.00  0.00    +0.000 C 
BRANCH  17  18
ATOM     18  C   UNL     1       2.504   7.716  19.836  0.00  0.00    +0.000 C 
BRANCH  18  19
ATOM     19  N   UNL     1       1.438   8.692  19.584  0.00  0.00    +0.000 N 
ATOM     20  C   UNL     1       1.320   9.152  18.276  0.00  0.00    +0.000 C 
ATOM     21  O   UNL     1       2.088   8.815  17.371  0.00  0.00    +0.000 OA
ATOM     22  C   UNL     1       0.127  10.000  17.941  0.00  0.00    +0.000 C 
ATOM     23  C   UNL     1      -0.389  10.865  19.067  0.00  0.00    +0.000 C 
ATOM     24  C   UNL     1      -0.202  10.302  20.447  0.00  0.00    +0.000 A 
ATOM     25  C   UNL     1      -0.860  10.893  21.548  0.00  0.00    +0.000 A 
ATOM     26 CL   UNL     1      -1.940  12.231  21.355  0.00  0.00    +0.000 Cl
ATOM     27  C   UNL     1      -0.641  10.439  22.849  0.00  0.00    +0.000 A 
ATOM     28  C   UNL     1       0.236   9.391  23.074  0.00  0.00    +0.000 A 
ATOM     29  C   UNL     1       0.894   8.798  21.995  0.00  0.00    +0.000 A 
ATOM     30  C   UNL     1       0.697   9.247  20.672  0.00  0.00    +0.000 A 
ENDBRANCH  18  19
ENDBRANCH  17  18
ENDBRANCH  16  17
ENDBRANCH   4  16
TORSDOF 6
ENDMDL
MODEL 5
REMARK VINA RESULT:      -7.2      2.404      3.593
REMARK  Name = 
REMARK  6 active torsions:
REMARK  status: ('A' for Active; 'I' for Inactive)
REMARK    1  A    between atoms: N_1  and  C_2
REMARK    2  A    between atoms: C_6  and  N_7
REMARK    3  A    between atoms: N_10  and  C_11
REMARK    4  A    between atoms: C_11  and  C_12
REMARK    5  A    between atoms: C_12  and  C_13
REMARK    6  A    between atoms: C_13  and  N_14
REMARK                            x       y       z     vdW  Elec       q    Type
REMARK                         _______ _______ _______ _____ _____    ______ ____
ROOT
ATOM      1  N   UNL     1       4.059   6.068  18.292  0.00  0.00    +0.000 N 
ATOM      2  C   UNL     1       3.654   7.415  17.875  0.00  0.00    +0.000 C 
ATOM      3  C   UNL     1       2.115   7.526  17.955  0.00  0.00    +0.000 C 
ATOM      4  N   UNL     1       1.543   7.196  19.286  0.00  0.00    +0.000 NA
ATOM      5  C   UNL     1       2.002   5.833  19.651  0.00  0.00    +0.000 C 
ATOM      6  C   UNL     1       3.534   5.610  19.588  0.00  0.00    +0.000 C 
ENDROOT
BRANCH   1  11
ATOM      7  C   UNL     1       6.236   4.457  15.771  0.00  0.00    +0.000 A 
ATOM      8  C   UNL     1       7.448   4.410  16.455  0.00  0.00    +0.000 A 
ATOM      9  C   UNL     1       7.544   4.919  17.750  0.00  0.00    +0.000 A 
ATOM     10  C   UNL     1       6.417   5.456  18.372  0.00  0.00    +0.000 A 
ATOM     11  C   UNL     1       5.173   5.470  17.735  0.00  0.00    +0.000 A 
ATOM     12  C   UNL     1       5.102   4.921  16.445  0.00  0.00    +0.000 A 
BRANCH   7  13
ATOM     13  N   UNL     1       6.108   3.871  14.506  0.00  0.00    +0.000 N 
ATOM     14  H   UNL     1       6.495   2.932  14.460  0.00  0.00    +0.000 HD
ATOM     15  H   UNL     1       6.455   4.460  13.752  0.00  0.00    +0.000 HD
ENDBRANCH   7  13
ENDBRANCH   1  11
BRANCH   4  16
ATOM     16  C   UNL     1       1.902   8.174  20.320  0.00  0.00    +0.000 C 
BRANCH  16  17
ATOM     17  C   UNL     1       0.790   9.180  20.625  0.00  0.00    +0.000 C 
BRANCH  17  18
ATOM     18  C   UNL     1       0.947  10.479  19.833  0.00  0.00    +0.000 C 
BRANCH  18  19
ATOM     19  N   UNL     1      -0.293  11.262  19.834  0.00  0.00    +0.000 N 
ATOM     20  C   UNL     1      -0.492  12.100  20.927  0.00  0.00    +0.000 C 
ATOM     21  O   UNL     1       0.289  12.159  21.881  0.00  0.00    +0.000 OA
ATOM     22  C   UNL     1      -1.649  13.055  20.873  0.00  0.00    +0.000 C 
ATOM     23  C   UNL     1      -2.852  12.570  20.098  0.00  0.00    +0.000 C 
ATOM     24  C   UNL     1      -2.549  11.654  18.947  0.00  0.00    +0.000 A 
ATOM     25  C   UNL     1      -3.554  11.342  18.006  0.00  0.00    +0.000 A 
ATOM     26 CL   UNL     1      -5.138  12.033  18.100  0.00  0.00    +0.000 Cl
ATOM     27  C   UNL     1      -3.320  10.432  16.974  0.00  0.00    +0.000 A 
ATOM     28  C   UNL     1      -2.083   9.820  16.863  0.00  0.00    +0.000 A 
ATOM     29  C   UNL     1      -1.080  10.119  17.786  0.00  0.00    +0.000 A 
ATOM     30  C   UNL     1      -1.296  11.027  18.844  0.00  0.00    +0.000 A 
ENDBRANCH  18  19
ENDBRANCH  17  18
ENDBRANCH  16  17
ENDBRANCH   4  16
TORSDOF 6
ENDMDL
MODEL 6
REMARK VINA RESULT:      -7.2      3.939      8.688
REMARK  Name = 
REMARK  6 active torsions:
REMARK  status: ('A' for Active; 'I' for Inactive)
REMARK    1  A    between atoms: N_1  and  C_2
REMARK    2  A    between atoms: C_6  and  N_7
REMARK    3  A    between atoms: N_10  and  C_11
REMARK    4  A    between atoms: C_11  and  C_12
REMARK    5  A    between atoms: C_12  and  C_13
REMARK    6  A    between atoms: C_13  and  N_14
REMARK                            x       y       z     vdW  Elec       q    Type
REMARK                         _______ _______ _______ _____ _____    ______ ____
ROOT
ATOM      1  N   UNL     1       1.275  12.198  19.385  0.00  0.00    +0.000 N 
ATOM      2  C   UNL     1       1.118  11.781  20.783  0.00  0.00    +0.000 C 
ATOM      3  C   UNL     1      -0.026  10.747  20.874  0.00  0.00    +0.000 C 
ATOM      4  N   UNL     1       0.139   9.565  19.990  0.00  0.00    +0.000 NA
ATOM      5  C   UNL     1       0.306  10.058  18.601  0.00  0.00    +0.000 C 
ATOM      6  C   UNL     1       1.423  11.113  18.402  0.00  0.00    +0.000 C 
ENDROOT
BRANCH   1  11
ATOM      7  C   UNL     1       3.308  14.947  17.971  0.00  0.00    +0.000 A 
ATOM      8  C   UNL     1       2.505  16.047  18.254  0.00  0.00    +0.000 A 
ATOM      9  C   UNL     1       1.285  15.877  18.909  0.00  0.00    +0.000 A 
ATOM     10  C   UNL     1       0.879  14.602  19.303  0.00  0.00    +0.000 A 
ATOM     11  C   UNL     1       1.686  13.482  19.082  0.00  0.00    +0.000 A 
ATOM     12  C   UNL     1       2.922  13.691  18.450  0.00  0.00    +0.000 A 
BRANCH   7  13
ATOM     13  N   UNL     1       4.573  15.116  17.393  0.00  0.00    +0.000 N 
ATOM     14  H   UNL     1       5.323  14.710  17.946  0.00  0.00    +0.000 HD
ATOM     15  H   UNL     1       4.773  16.081  17.138  0.00  0.00    +0.000 HD
ENDBRANCH   7  13
ENDBRANCH   1  11
BRANCH   4  16
ATOM     16  C   UNL     1       1.262   8.707  20.390  0.00  0.00    +0.000 C 
BRANCH  16  17
ATOM     17  C   UNL     1       1.752   7.781  19.274  0.00  0.00    +0.000 C 
BRANCH  17  18
ATOM     18  C   UNL     1       2.608   6.631  19.807  0.00  0.00    +0.000 C 
BRANCH  18  19
ATOM     19  N   UNL     1       2.837   5.611  18.778  0.00  0.00    +0.000 N 
ATOM     20  C   UNL     1       2.031   4.478  18.843  0.00  0.00    +0.000 C 
ATOM     21  O   UNL     1       1.200   4.292  19.737  0.00  0.00    +0.000 OA
ATOM     22  C   UNL     1       2.102   3.505  17.702  0.00  0.00    +0.000 C 
ATOM     23  C   UNL     1       3.446   3.404  17.021  0.00  0.00    +0.000 C 
ATOM     24  C   UNL     1       4.260   4.667  17.013  0.00  0.00    +0.000 A 
ATOM     25  C   UNL     1       5.408   4.765  16.198  0.00  0.00    +0.000 A 
ATOM     26 CL   UNL     1       5.891   3.481  15.143  0.00  0.00    +0.000 Cl
ATOM     27  C   UNL     1       6.224   5.897  16.233  0.00  0.00    +0.000 A 
ATOM     28  C   UNL     1       5.910   6.946  17.080  0.00  0.00    +0.000 A 
ATOM     29  C   UNL     1       4.778   6.862  17.892  0.00  0.00    +0.000 A 
ATOM     30  C   UNL     1       3.944   5.724  17.882  0.00  0.00    +0.000 A 
ENDBRANCH  18  19
ENDBRANCH  17  18
ENDBRANCH  16  17
ENDBRANCH   4  16
TORSDOF 6
ENDMDL
MODEL 7
REMARK VINA RESULT:      -7.2      3.850      8.929
REMARK  Name = 
REMARK  6 active torsions:
REMARK  status: ('A' for Active; 'I' for Inactive)
REMARK    1  A    between atoms: N_1  and  C_2
REMARK    2  A    between atoms: C_6  and  N_7
REMARK    3  A    between atoms: N_10  and  C_11
REMARK    4  A    between atoms: C_11  and  C_12
REMARK    5  A    between atoms: C_12  and  C_13
REMARK    6  A    between atoms: C_13  and  N_14
REMARK                            x       y       z     vdW  Elec       q    Type
REMARK                         _______ _______ _______ _____ _____    ______ ____
ROOT
ATOM      1  N   UNL     1      -1.027  10.285  18.449  0.00  0.00    +0.000 N 
ATOM      2  C   UNL     1       0.126   9.650  17.802  0.00  0.00    +0.000 C 
ATOM      3  C   UNL     1       1.422  10.167  18.463  0.00  0.00    +0.000 C 
ATOM      4  N   UNL     1       1.480   9.982  19.936  0.00  0.00    +0.000 NA
ATOM      5  C   UNL     1       0.282  10.633  20.521  0.00  0.00    +0.000 C 
ATOM      6  C   UNL     1      -1.075  10.193  19.916  0.00  0.00    +0.000 C 
ENDROOT
BRANCH   1  11
ATOM      7  C   UNL     1      -4.285  11.786  17.540  0.00  0.00    +0.000 A 
ATOM      8  C   UNL     1      -4.448  11.308  16.244  0.00  0.00    +0.000 A 
ATOM      9  C   UNL     1      -3.474  10.492  15.668  0.00  0.00    +0.000 A 
ATOM     10  C   UNL     1      -2.343  10.135  16.402  0.00  0.00    +0.000 A 
ATOM     11  C   UNL     1      -2.174  10.553  17.725  0.00  0.00    +0.000 A 
ATOM     12  C   UNL     1      -3.187  11.346  18.286  0.00  0.00    +0.000 A 
BRANCH   7  13
ATOM     13  N   UNL     1      -5.297  12.532  18.158  0.00  0.00    +0.000 N 
ATOM     14  H   UNL     1      -5.573  13.351  17.622  0.00  0.00    +0.000 HD
ATOM     15  H   UNL     1      -5.090  12.768  19.126  0.00  0.00    +0.000 HD
ENDBRANCH   7  13
ENDBRANCH   1  11
BRANCH   4  16
ATOM     16  C   UNL     1       1.565   8.570  20.330  0.00  0.00    +0.000 C 
BRANCH  16  17
ATOM     17  C   UNL     1       2.085   7.655  19.220  0.00  0.00    +0.000 C 
BRANCH  17  18
ATOM     18  C   UNL     1       2.650   6.342  19.764  0.00  0.00    +0.000 C 
BRANCH  18  19
ATOM     19  N   UNL     1       2.935   5.391  18.685  0.00  0.00    +0.000 N 
ATOM     20  C   UNL     1       2.157   4.237  18.659  0.00  0.00    +0.000 C 
ATOM     21  O   UNL     1       1.306   3.978  19.514  0.00  0.00    +0.000 OA
ATOM     22  C   UNL     1       2.287   3.336  17.464  0.00  0.00    +0.000 C 
ATOM     23  C   UNL     1       3.653   3.308  16.820  0.00  0.00    +0.000 C 
ATOM     24  C   UNL     1       4.433   4.588  16.912  0.00  0.00    +0.000 A 
ATOM     25  C   UNL     1       5.602   4.763  16.140  0.00  0.00    +0.000 A 
ATOM     26 CL   UNL     1       6.148   3.556  15.026  0.00  0.00    +0.000 Cl
ATOM     27  C   UNL     1       6.387   5.910  16.267  0.00  0.00    +0.000 A 
ATOM     28  C   UNL     1       6.021   6.899  17.164  0.00  0.00    +0.000 A 
ATOM     29  C   UNL     1       4.868   6.739  17.934  0.00  0.00    +0.000 A 
ATOM     30  C   UNL     1       4.065   5.584  17.832  0.00  0.00    +0.000 A 
ENDBRANCH  18  19
ENDBRANCH  17  18
ENDBRANCH  16  17
ENDBRANCH   4  16
TORSDOF 6
ENDMDL
MODEL 8
REMARK VINA RESULT:      -7.2      3.651      9.899
REMARK  Name = 
REMARK  6 active torsions:
REMARK  status: ('A' for Active; 'I' for Inactive)
REMARK    1  A    between atoms: N_1  and  C_2
REMARK    2  A    between atoms: C_6  and  N_7
REMARK    3  A    between atoms: N_10  and  C_11
REMARK    4  A    between atoms: C_11  and  C_12
REMARK    5  A    between atoms: C_12  and  C_13
REMARK    6  A    between atoms: C_13  and  N_14
REMARK                            x       y       z     vdW  Elec       q    Type
REMARK                         _______ _______ _______ _____ _____    ______ ____
ROOT
ATOM      1  N   UNL     1      -0.967  11.214  21.898  0.00  0.00    +0.000 N 
ATOM      2  C   UNL     1      -0.320  10.086  22.578  0.00  0.00    +0.000 C 
ATOM      3  C   UNL     1      -0.542   8.803  21.747  0.00  0.00    +0.000 C 
ATOM      4  N   UNL     1      -0.086   8.895  20.336  0.00  0.00    +0.000 NA
ATOM      5  C   UNL     1      -0.765  10.059  19.716  0.00  0.00    +0.000 C 
ATOM      6  C   UNL     1      -0.616  11.399  20.481  0.00  0.00    +0.000 C 
ENDROOT
BRANCH   1  11
ATOM      7  C   UNL     1      -3.266  13.059  24.133  0.00  0.00    +0.000 A 
ATOM      8  C   UNL     1      -2.576  14.256  24.298  0.00  0.00    +0.000 A 
ATOM      9  C   UNL     1      -1.345  14.449  23.672  0.00  0.00    +0.000 A 
ATOM     10  C   UNL     1      -0.813  13.448  22.859  0.00  0.00    +0.000 A 
ATOM     11  C   UNL     1      -1.504  12.256  22.630  0.00  0.00    +0.000 A 
ATOM     12  C   UNL     1      -2.755  12.105  23.247  0.00  0.00    +0.000 A 
BRANCH   7  13
ATOM     13  N   UNL     1      -4.542  12.889  24.685  0.00  0.00    +0.000 N 
ATOM     14  H   UNL     1      -5.258  13.433  24.211  0.00  0.00    +0.000 HD
ATOM     15  H   UNL     1      -4.567  13.031  25.693  0.00  0.00    +0.000 HD
ENDBRANCH   7  13
ENDBRANCH   1  11
BRANCH   4  16
ATOM     16  C   UNL     1       1.373   9.002  20.215  0.00  0.00    +0.000 C 
BRANCH  16  17
ATOM     17  C   UNL     1       1.974   8.045  19.184  0.00  0.00    +0.000 C 
BRANCH  17  18
ATOM     18  C   UNL     1       2.507   6.761  19.822  0.00  0.00    +0.000 C 
BRANCH  18  19
ATOM     19  N   UNL     1       2.733   5.715  18.819  0.00  0.00    +0.000 N 
ATOM     20  C   UNL     1       1.933   4.581  18.919  0.00  0.00    +0.000 C 
ATOM     21  O   UNL     1       1.109   4.416  19.823  0.00  0.00    +0.000 OA
ATOM     22  C   UNL     1       2.000   3.579  17.803  0.00  0.00    +0.000 C 
ATOM     23  C   UNL     1       3.340   3.466  17.116  0.00  0.00    +0.000 C 
ATOM     24  C   UNL     1       4.148   4.732  17.070  0.00  0.00    +0.000 A 
ATOM     25  C   UNL     1       5.290   4.814  16.243  0.00  0.00    +0.000 A 
ATOM     26 CL   UNL     1       5.771   3.505  15.219  0.00  0.00    +0.000 Cl
ATOM     27  C   UNL     1       6.101   5.950  16.244  0.00  0.00    +0.000 A 
ATOM     28  C   UNL     1       5.788   7.019  17.065  0.00  0.00    +0.000 A 
ATOM     29  C   UNL     1       4.662   6.952  17.887  0.00  0.00    +0.000 A 
ATOM     30  C   UNL     1       3.834   5.810  17.913  0.00  0.00    +0.000 A 
ENDBRANCH  18  19
ENDBRANCH  17  18
ENDBRANCH  16  17
ENDBRANCH   4  16
TORSDOF 6
ENDMDL
MODEL 9
REMARK VINA RESULT:      -7.1      3.467      9.226
REMARK  Name = 
REMARK  6 active torsions:
REMARK  status: ('A' for Active; 'I' for Inactive)
REMARK    1  A    between atoms: N_1  and  C_2
REMARK    2  A    between atoms: C_6  and  N_7
REMARK    3  A    between atoms: N_10  and  C_11
REMARK    4  A    between atoms: C_11  and  C_12
REMARK    5  A    between atoms: C_12  and  C_13
REMARK    6  A    between atoms: C_13  and  N_14
REMARK                            x       y       z     vdW  Elec       q    Type
REMARK                         _______ _______ _______ _____ _____    ______ ____
ROOT
ATOM      1  N   UNL     1      -0.736  11.364  19.936  0.00  0.00    +0.000 N 
ATOM      2  C   UNL     1      -0.021  11.983  18.814  0.00  0.00    +0.000 C 
ATOM      3  C   UNL     1       1.481  11.637  18.921  0.00  0.00    +0.000 C 
ATOM      4  N   UNL     1       1.774  10.183  18.991  0.00  0.00    +0.000 NA
ATOM      5  C   UNL     1       1.012   9.620  20.133  0.00  0.00    +0.000 C 
ATOM      6  C   UNL     1      -0.508   9.924  20.129  0.00  0.00    +0.000 C 
ENDROOT
BRANCH   1  11
ATOM      7  C   UNL     1      -4.140  12.795  20.174  0.00  0.00    +0.000 A 
ATOM      8  C   UNL     1      -4.228  13.050  21.539  0.00  0.00    +0.000 A 
ATOM      9  C   UNL     1      -3.160  12.742  22.382  0.00  0.00    +0.000 A 
ATOM     10  C   UNL     1      -1.990  12.197  21.853  0.00  0.00    +0.000 A 
ATOM     11  C   UNL     1      -1.848  11.978  20.479  0.00  0.00    +0.000 A 
ATOM     12  C   UNL     1      -2.928  12.328  19.654  0.00  0.00    +0.000 A 
BRANCH   7  13
ATOM     13  N   UNL     1      -5.171  13.181  19.307  0.00  0.00    +0.000 N 
ATOM     14  H   UNL     1      -6.097  12.970  19.670  0.00  0.00    +0.000 HD
ATOM     15  H   UNL     1      -5.049  12.836  18.358  0.00  0.00    +0.000 HD
ENDBRANCH   7  13
ENDBRANCH   1  11
BRANCH   4  16
ATOM     16  C   UNL     1       1.460   9.477  17.742  0.00  0.00    +0.000 C 
BRANCH  16  17
ATOM     17  C   UNL     1       1.918   8.017  17.731  0.00  0.00    +0.000 C 
BRANCH  17  18
ATOM     18  C   UNL     1       3.436   7.882  17.857  0.00  0.00    +0.000 C 
BRANCH  18  19
ATOM     19  N   UNL     1       3.870   6.494  17.666  0.00  0.00    +0.000 N 
ATOM     20  C   UNL     1       4.660   6.244  16.548  0.00  0.00    +0.000 C 
ATOM     21  O   UNL     1       4.950   7.111  15.720  0.00  0.00    +0.000 OA
ATOM     22  C   UNL     1       5.280   4.882  16.424  0.00  0.00    +0.000 C 
ATOM     23  C   UNL     1       4.475   3.749  17.016  0.00  0.00    +0.000 C 
ATOM     24  C   UNL     1       3.635   4.111  18.207  0.00  0.00    +0.000 A 
ATOM     25  C   UNL     1       3.043   3.097  18.991  0.00  0.00    +0.000 A 
ATOM     26 CL   UNL     1       3.302   1.418  18.658  0.00  0.00    +0.000 Cl
ATOM     27  C   UNL     1       2.194   3.409  20.054  0.00  0.00    +0.000 A 
ATOM     28  C   UNL     1       1.921   4.733  20.351  0.00  0.00    +0.000 A 
ATOM     29  C   UNL     1       2.499   5.746  19.584  0.00  0.00    +0.000 A 
ATOM     30  C   UNL     1       3.351   5.455  18.498  0.00  0.00    +0.000 A 
ENDBRANCH  18  19
ENDBRANCH  17  18
ENDBRANCH  16  17
ENDBRANCH   4  16
TORSDOF 6
ENDMDL
