MODEL 1
REMARK VINA RESULT:      -7.6      0.000      0.000
REMARK  Name = 
REMARK  11 active torsions:
REMARK  status: ('A' for Active; 'I' for Inactive)
REMARK    1  A    between atoms: C_1  and  O_2
REMARK    2  A    between atoms: O_2  and  C_3
REMARK    3  A    between atoms: C_5  and  C_6
REMARK    4  A    between atoms: C_7  and  C_8
REMARK    5  A    between atoms: C_7  and  C_10
REMARK    6  A    between atoms: N_12  and  C_13
REMARK    7  A    between atoms: C_17  and  C_18
REMARK    8  A    between atoms: C_18  and  O_20
REMARK    9  A    between atoms: C_24  and  O_25
REMARK   10  A    between atoms: O_25  and  C_26
REMARK   11  A    between atoms: C_26  and  C_27
REMARK                            x       y       z     vdW  Elec       q    Type
REMARK                         _______ _______ _______ _____ _____    ______ ____
ROOT
ATOM      1  C   UNL     1       1.941   8.755  17.827  0.00  0.00    +0.000 C 
ATOM      2  C   UNL     1       2.254   7.916  18.840  0.00  0.00    +0.000 C 
ENDROOT
BRANCH   1   5
ATOM      3  C   UNL     1      -1.231  10.765  18.015  0.00  0.00    +0.000 A 
ATOM      4  C   UNL     1      -0.296   9.795  17.618  0.00  0.00    +0.000 A 
ATOM      5  C   UNL     1       1.040   9.889  18.016  0.00  0.00    +0.000 A 
ATOM      6  C   UNL     1       1.480  11.001  18.719  0.00  0.00    +0.000 A 
ATOM      7  C   UNL     1       0.569  11.989  19.078  0.00  0.00    +0.000 A 
ATOM      8  C   UNL     1      -0.790  11.897  18.728  0.00  0.00    +0.000 A 
BRANCH   3  10
ATOM      9  C   UNL     1      -2.945   9.707  16.741  0.00  0.00    +0.000 C 
ATOM     10  O   UNL     1      -2.573  10.647  17.751  0.00  0.00    +0.000 OA
ENDBRANCH   3  10
BRANCH   8  11
ATOM     11  O   UNL     1      -1.719  12.871  19.062  0.00  0.00    +0.000 OA
BRANCH  11  12
ATOM     12  C   UNL     1      -1.400  13.578  20.266  0.00  0.00    +0.000 C 
BRANCH  12  13
ATOM     13  C   UNL     1      -2.177  13.208  21.507  0.00  0.00    +0.000 A 
ATOM     14  C   UNL     1      -1.849  12.141  22.345  0.00  0.00    +0.000 A 
ATOM     15  C   UNL     1      -2.645  11.862  23.462  0.00  0.00    +0.000 A 
ATOM     16  C   UNL     1      -3.761  12.652  23.746  0.00  0.00    +0.000 A 
ATOM     17 CL   UNL     1      -4.758  12.283  25.098  0.00  0.00    +0.000 Cl
ATOM     18  C   UNL     1      -4.081  13.737  22.938  0.00  0.00    +0.000 A 
ATOM     19  C   UNL     1      -3.287  14.017  21.831  0.00  0.00    +0.000 A 
ENDBRANCH  12  13
ENDBRANCH  11  12
ENDBRANCH   8  11
ENDBRANCH   1   5
BRANCH   2  20
ATOM     20  C   UNL     1       3.228   6.829  18.518  0.00  0.00    +0.000 C 
ATOM     21  O   UNL     1       2.910   5.667  18.776  0.00  0.00    +0.000 OA
ATOM     22  N   UNL     1       4.453   7.194  17.989  0.00  0.00    +0.000 N 
ATOM     23  H   UNL     1       4.733   8.171  18.003  0.00  0.00    +0.000 HD
BRANCH  22  24
ATOM     24  C   UNL     1       5.434   6.265  17.537  0.00  0.00    +0.000 A 
ATOM     25  C   UNL     1       6.307   5.604  18.411  0.00  0.00    +0.000 A 
ATOM     26  C   UNL     1       7.262   4.698  17.945  0.00  0.00    +0.000 A 
ATOM     27  C   UNL     1       7.366   4.437  16.585  0.00  0.00    +0.000 A 
ATOM     28  C   UNL     1       6.511   5.094  15.693  0.00  0.00    +0.000 A 
ATOM     29  C   UNL     1       5.524   5.980  16.171  0.00  0.00    +0.000 A 
BRANCH  28  30
ATOM     30  C   UNL     1       6.600   4.852  14.233  0.00  0.00    +0.000 C 
ATOM     31  O   UNL     1       7.463   5.362  13.538  0.00  0.00    +0.000 OA
BRANCH  30  32
ATOM     32  O   UNL     1       5.681   3.988  13.753  0.00  0.00    +0.000 OA
ATOM     33  H   UNL     1       5.503   3.206  14.308  0.00  0.00    +0.000 HD
ENDBRANCH  30  32
ENDBRANCH  28  30
ENDBRANCH  22  24
ENDBRANCH   2  20
BRANCH   2  34
ATOM     34  C   UNL     1       1.681   8.162  20.226  0.00  0.00    +0.000 C 
ATOM     35  N   UNL     1       1.205   8.365  21.375  0.00  0.00    +0.000 NA
ENDBRANCH   2  34
TORSDOF 10
ENDMDL
MODEL 2
REMARK VINA RESULT:      -7.5      4.264     11.371
REMARK  Name = 
REMARK  11 active torsions:
REMARK  status: ('A' for Active; 'I' for Inactive)
REMARK    1  A    between atoms: C_1  and  O_2
REMARK    2  A    between atoms: O_2  and  C_3
REMARK    3  A    between atoms: C_5  and  C_6
REMARK    4  A    between atoms: C_7  and  C_8
REMARK    5  A    between atoms: C_7  and  C_10
REMARK    6  A    between atoms: N_12  and  C_13
REMARK    7  A    between atoms: C_17  and  C_18
REMARK    8  A    between atoms: C_18  and  O_20
REMARK    9  A    between atoms: C_24  and  O_25
REMARK   10  A    between atoms: O_25  and  C_26
REMARK   11  A    between atoms: C_26  and  C_27
REMARK                            x       y       z     vdW  Elec       q    Type
REMARK                         _______ _______ _______ _____ _____    ______ ____
ROOT
ATOM      1  C   UNL     1       1.527   8.067  21.027  0.00  0.00    +0.000 C 
ATOM      2  C   UNL     1       0.891   9.159  20.547  0.00  0.00    +0.000 C 
ENDROOT
BRANCH   1   5
ATOM      3  C   UNL     1       2.008   4.700  19.425  0.00  0.00    +0.000 A 
ATOM      4  C   UNL     1       1.739   5.684  20.390  0.00  0.00    +0.000 A 
ATOM      5  C   UNL     1       2.044   7.024  20.145  0.00  0.00    +0.000 A 
ATOM      6  C   UNL     1       2.717   7.384  18.985  0.00  0.00    +0.000 A 
ATOM      7  C   UNL     1       3.028   6.409  18.044  0.00  0.00    +0.000 A 
ATOM      8  C   UNL     1       2.692   5.057  18.247  0.00  0.00    +0.000 A 
BRANCH   3  10
ATOM      9  C   UNL     1       1.110   3.021  20.859  0.00  0.00    +0.000 C 
ATOM     10  O   UNL     1       1.614   3.393  19.575  0.00  0.00    +0.000 OA
ENDBRANCH   3  10
BRANCH   8  11
ATOM     11  O   UNL     1       2.999   4.062  17.333  0.00  0.00    +0.000 OA
BRANCH  11  12
ATOM     12  C   UNL     1       4.367   3.640  17.382  0.00  0.00    +0.000 C 
BRANCH  12  13
ATOM     13  C   UNL     1       5.260   4.069  16.242  0.00  0.00    +0.000 A 
ATOM     14  C   UNL     1       5.151   3.580  14.939  0.00  0.00    +0.000 A 
ATOM     15  C   UNL     1       6.043   4.020  13.954  0.00  0.00    +0.000 A 
ATOM     16  C   UNL     1       7.034   4.951  14.267  0.00  0.00    +0.000 A 
ATOM     17 CL   UNL     1       8.151   5.461  13.062  0.00  0.00    +0.000 Cl
ATOM     18  C   UNL     1       7.135   5.470  15.553  0.00  0.00    +0.000 A 
ATOM     19  C   UNL     1       6.246   5.036  16.531  0.00  0.00    +0.000 A 
ENDBRANCH  12  13
ENDBRANCH  11  12
ENDBRANCH   8  11
ENDBRANCH   1   5
BRANCH   2  20
ATOM     20  C   UNL     1       0.459  10.170  21.559  0.00  0.00    +0.000 C 
ATOM     21  O   UNL     1       0.949  10.110  22.688  0.00  0.00    +0.000 OA
ATOM     22  N   UNL     1      -0.505  11.089  21.184  0.00  0.00    +0.000 N 
ATOM     23  H   UNL     1      -1.019  10.950  20.320  0.00  0.00    +0.000 HD
BRANCH  22  24
ATOM     24  C   UNL     1      -0.933  12.171  22.005  0.00  0.00    +0.000 A 
ATOM     25  C   UNL     1      -0.232  13.382  22.086  0.00  0.00    +0.000 A 
ATOM     26  C   UNL     1      -0.671  14.429  22.899  0.00  0.00    +0.000 A 
ATOM     27  C   UNL     1      -1.826  14.283  23.657  0.00  0.00    +0.000 A 
ATOM     28  C   UNL     1      -2.536  13.078  23.599  0.00  0.00    +0.000 A 
ATOM     29  C   UNL     1      -2.110  12.037  22.750  0.00  0.00    +0.000 A 
BRANCH  28  30
ATOM     30  C   UNL     1      -3.766  12.879  24.404  0.00  0.00    +0.000 C 
ATOM     31  O   UNL     1      -4.486  11.904  24.266  0.00  0.00    +0.000 OA
BRANCH  30  32
ATOM     32  O   UNL     1      -3.990  13.837  25.327  0.00  0.00    +0.000 OA
ATOM     33  H   UNL     1      -3.300  13.937  26.010  0.00  0.00    +0.000 HD
ENDBRANCH  30  32
ENDBRANCH  28  30
ENDBRANCH  22  24
ENDBRANCH   2  20
BRANCH   2  34
ATOM     34  C   UNL     1       0.725   9.333  19.046  0.00  0.00    +0.000 C 
ATOM     35  N   UNL     1       0.588   9.478  17.801  0.00  0.00    +0.000 NA
ENDBRANCH   2  34
TORSDOF 10
ENDMDL
MODEL 3
REMARK VINA RESULT:      -7.5      1.258      1.425
REMARK  Name = 
REMARK  11 active torsions:
REMARK  status: ('A' for Active; 'I' for Inactive)
REMARK    1  A    between atoms: C_1  and  O_2
REMARK    2  A    between atoms: O_2  and  C_3
REMARK    3  A    between atoms: C_5  and  C_6
REMARK    4  A    between atoms: C_7  and  C_8
REMARK    5  A    between atoms: C_7  and  C_10
REMARK    6  A    between atoms: N_12  and  C_13
REMARK    7  A    between atoms: C_17  and  C_18
REMARK    8  A    between atoms: C_18  and  O_20
REMARK    9  A    between atoms: C_24  and  O_25
REMARK   10  A    between atoms: O_25  and  C_26
REMARK   11  A    between atoms: C_26  and  C_27
REMARK                            x       y       z     vdW  Elec       q    Type
REMARK                         _______ _______ _______ _____ _____    ______ ____
ROOT
ATOM      1  C   UNL     1       1.905   8.544  17.683  0.00  0.00    +0.000 C 
ATOM      2  C   UNL     1       2.262   7.693  18.671  0.00  0.00    +0.000 C 
ENDROOT
BRANCH   1   5
ATOM      3  C   UNL     1      -1.307  10.450  18.111  0.00  0.00    +0.000 A 
ATOM      4  C   UNL     1      -0.380   9.496  17.661  0.00  0.00    +0.000 A 
ATOM      5  C   UNL     1       0.984   9.653  17.915  0.00  0.00    +0.000 A 
ATOM      6  C   UNL     1       1.450  10.812  18.521  0.00  0.00    +0.000 A 
ATOM      7  C   UNL     1       0.543  11.783  18.929  0.00  0.00    +0.000 A 
ATOM      8  C   UNL     1      -0.841  11.629  18.725  0.00  0.00    +0.000 A 
BRANCH   3  10
ATOM      9  C   UNL     1      -3.207  10.376  16.674  0.00  0.00    +0.000 C 
ATOM     10  O   UNL     1      -2.663  10.274  17.991  0.00  0.00    +0.000 OA
ENDBRANCH   3  10
BRANCH   8  11
ATOM     11  O   UNL     1      -1.768  12.584  19.111  0.00  0.00    +0.000 OA
BRANCH  11  12
ATOM     12  C   UNL     1      -1.996  12.623  20.525  0.00  0.00    +0.000 C 
BRANCH  12  13
ATOM     13  C   UNL     1      -3.428  12.740  20.989  0.00  0.00    +0.000 A 
ATOM     14  C   UNL     1      -3.802  13.117  22.280  0.00  0.00    +0.000 A 
ATOM     15  C   UNL     1      -5.158  13.174  22.623  0.00  0.00    +0.000 A 
ATOM     16  C   UNL     1      -6.137  12.862  21.678  0.00  0.00    +0.000 A 
ATOM     17 CL   UNL     1      -7.801  12.897  22.115  0.00  0.00    +0.000 Cl
ATOM     18  C   UNL     1      -5.780  12.515  20.380  0.00  0.00    +0.000 A 
ATOM     19  C   UNL     1      -4.433  12.463  20.038  0.00  0.00    +0.000 A 
ENDBRANCH  12  13
ENDBRANCH  11  12
ENDBRANCH   8  11
ENDBRANCH   1   5
BRANCH   2  20
ATOM     20  C   UNL     1       3.251   6.634  18.305  0.00  0.00    +0.000 C 
ATOM     21  O   UNL     1       2.844   5.481  18.162  0.00  0.00    +0.000 OA
ATOM     22  N   UNL     1       4.580   7.003  18.192  0.00  0.00    +0.000 N 
ATOM     23  H   UNL     1       4.877   7.913  18.531  0.00  0.00    +0.000 HD
BRANCH  22  24
ATOM     24  C   UNL     1       5.613   6.129  17.748  0.00  0.00    +0.000 A 
ATOM     25  C   UNL     1       6.556   5.569  18.621  0.00  0.00    +0.000 A 
ATOM     26  C   UNL     1       7.561   4.715  18.163  0.00  0.00    +0.000 A 
ATOM     27  C   UNL     1       7.647   4.406  16.811  0.00  0.00    +0.000 A 
ATOM     28  C   UNL     1       6.722   4.962  15.920  0.00  0.00    +0.000 A 
ATOM     29  C   UNL     1       5.687   5.795  16.392  0.00  0.00    +0.000 A 
BRANCH  28  30
ATOM     30  C   UNL     1       6.790   4.667  14.469  0.00  0.00    +0.000 C 
ATOM     31  O   UNL     1       7.357   5.402  13.678  0.00  0.00    +0.000 OA
BRANCH  30  32
ATOM     32  O   UNL     1       6.217   3.499  14.109  0.00  0.00    +0.000 OA
ATOM     33  H   UNL     1       5.586   3.547  13.367  0.00  0.00    +0.000 HD
ENDBRANCH  30  32
ENDBRANCH  28  30
ENDBRANCH  22  24
ENDBRANCH   2  20
BRANCH   2  34
ATOM     34  C   UNL     1       1.716   7.900  20.075  0.00  0.00    +0.000 C 
ATOM     35  N   UNL     1       1.264   8.071  21.239  0.00  0.00    +0.000 NA
ENDBRANCH   2  34
TORSDOF 10
ENDMDL
MODEL 4
REMARK VINA RESULT:      -7.4      1.282      1.693
REMARK  Name = 
REMARK  11 active torsions:
REMARK  status: ('A' for Active; 'I' for Inactive)
REMARK    1  A    between atoms: C_1  and  O_2
REMARK    2  A    between atoms: O_2  and  C_3
REMARK    3  A    between atoms: C_5  and  C_6
REMARK    4  A    between atoms: C_7  and  C_8
REMARK    5  A    between atoms: C_7  and  C_10
REMARK    6  A    between atoms: N_12  and  C_13
REMARK    7  A    between atoms: C_17  and  C_18
REMARK    8  A    between atoms: C_18  and  O_20
REMARK    9  A    between atoms: C_24  and  O_25
REMARK   10  A    between atoms: O_25  and  C_26
REMARK   11  A    between atoms: C_26  and  C_27
REMARK                            x       y       z     vdW  Elec       q    Type
REMARK                         _______ _______ _______ _____ _____    ______ ____
ROOT
ATOM      1  C   UNL     1       1.536   9.162  18.303  0.00  0.00    +0.000 C 
ATOM      2  C   UNL     1       1.751   8.338  19.353  0.00  0.00    +0.000 C 
ENDROOT
BRANCH   1   5
ATOM      3  C   UNL     1      -1.236  11.633  18.887  0.00  0.00    +0.000 A 
ATOM      4  C   UNL     1      -0.559  10.468  18.494  0.00  0.00    +0.000 A 
ATOM      5  C   UNL     1       0.837  10.435  18.452  0.00  0.00    +0.000 A 
ATOM      6  C   UNL     1       1.567  11.590  18.694  0.00  0.00    +0.000 A 
ATOM      7  C   UNL     1       0.902  12.761  19.041  0.00  0.00    +0.000 A 
ATOM      8  C   UNL     1      -0.501  12.809  19.133  0.00  0.00    +0.000 A 
BRANCH   3  10
ATOM      9  C   UNL     1      -3.396  11.488  17.888  0.00  0.00    +0.000 C 
ATOM     10  O   UNL     1      -2.598  11.672  19.059  0.00  0.00    +0.000 OA
ENDBRANCH   3  10
BRANCH   8  11
ATOM     11  O   UNL     1      -1.193  13.964  19.464  0.00  0.00    +0.000 OA
BRANCH  11  12
ATOM     12  C   UNL     1      -1.037  14.352  20.834  0.00  0.00    +0.000 C 
BRANCH  12  13
ATOM     13  C   UNL     1      -2.067  13.843  21.815  0.00  0.00    +0.000 A 
ATOM     14  C   UNL     1      -3.275  14.489  22.083  0.00  0.00    +0.000 A 
ATOM     15  C   UNL     1      -4.156  13.952  23.029  0.00  0.00    +0.000 A 
ATOM     16  C   UNL     1      -3.836  12.770  23.698  0.00  0.00    +0.000 A 
ATOM     17 CL   UNL     1      -4.906  12.134  24.886  0.00  0.00    +0.000 Cl
ATOM     18  C   UNL     1      -2.651  12.100  23.418  0.00  0.00    +0.000 A 
ATOM     19  C   UNL     1      -1.777  12.631  22.476  0.00  0.00    +0.000 A 
ENDBRANCH  12  13
ENDBRANCH  11  12
ENDBRANCH   8  11
ENDBRANCH   1   5
BRANCH   2  20
ATOM     20  C   UNL     1       2.524   7.091  19.066  0.00  0.00    +0.000 C 
ATOM     21  O   UNL     1       2.631   6.253  19.962  0.00  0.00    +0.000 OA
ATOM     22  N   UNL     1       3.115   6.970  17.820  0.00  0.00    +0.000 N 
ATOM     23  H   UNL     1       3.171   7.781  17.212  0.00  0.00    +0.000 HD
BRANCH  22  24
ATOM     24  C   UNL     1       3.788   5.798  17.371  0.00  0.00    +0.000 A 
ATOM     25  C   UNL     1       3.384   4.507  17.736  0.00  0.00    +0.000 A 
ATOM     26  C   UNL     1       4.061   3.373  17.284  0.00  0.00    +0.000 A 
ATOM     27  C   UNL     1       5.167   3.508  16.456  0.00  0.00    +0.000 A 
ATOM     28  C   UNL     1       5.595   4.788  16.087  0.00  0.00    +0.000 A 
ATOM     29  C   UNL     1       4.888   5.929  16.516  0.00  0.00    +0.000 A 
BRANCH  28  30
ATOM     30  C   UNL     1       6.780   4.974  15.215  0.00  0.00    +0.000 C 
ATOM     31  O   UNL     1       6.922   4.367  14.166  0.00  0.00    +0.000 OA
BRANCH  30  32
ATOM     32  O   UNL     1       7.657   5.900  15.655  0.00  0.00    +0.000 OA
ATOM     33  H   UNL     1       7.367   6.428  16.423  0.00  0.00    +0.000 HD
ENDBRANCH  30  32
ENDBRANCH  28  30
ENDBRANCH  22  24
ENDBRANCH   2  20
BRANCH   2  34
ATOM     34  C   UNL     1       1.281   8.748  20.739  0.00  0.00    +0.000 C 
ATOM     35  N   UNL     1       0.891   9.087  21.889  0.00  0.00    +0.000 NA
ENDBRANCH   2  34
TORSDOF 10
ENDMDL
MODEL 5
REMARK VINA RESULT:      -7.4      0.776      1.197
REMARK  Name = 
REMARK  11 active torsions:
REMARK  status: ('A' for Active; 'I' for Inactive)
REMARK    1  A    between atoms: C_1  and  O_2
REMARK    2  A    between atoms: O_2  and  C_3
REMARK    3  A    between atoms: C_5  and  C_6
REMARK    4  A    between atoms: C_7  and  C_8
REMARK    5  A    between atoms: C_7  and  C_10
REMARK    6  A    between atoms: N_12  and  C_13
REMARK    7  A    between atoms: C_17  and  C_18
REMARK    8  A    between atoms: C_18  and  O_20
REMARK    9  A    between atoms: C_24  and  O_25
REMARK   10  A    between atoms: O_25  and  C_26
REMARK   11  A    between atoms: C_26  and  C_27
REMARK                            x       y       z     vdW  Elec       q    Type
REMARK                         _______ _______ _______ _____ _____    ______ ____
ROOT
ATOM      1  C   UNL     1       1.949   8.585  17.882  0.00  0.00    +0.000 C 
ATOM      2  C   UNL     1       2.248   7.718  18.876  0.00  0.00    +0.000 C 
ENDROOT
BRANCH   1   5
ATOM      3  C   UNL     1      -1.251  10.558  17.836  0.00  0.00    +0.000 A 
ATOM      4  C   UNL     1      -0.248   9.648  17.465  0.00  0.00    +0.000 A 
ATOM      5  C   UNL     1       1.008   9.685  18.075  0.00  0.00    +0.000 A 
ATOM      6  C   UNL     1       1.313  10.693  18.979  0.00  0.00    +0.000 A 
ATOM      7  C   UNL     1       0.339  11.626  19.319  0.00  0.00    +0.000 A 
ATOM      8  C   UNL     1      -0.948  11.584  18.751  0.00  0.00    +0.000 A 
BRANCH   3  10
ATOM      9  C   UNL     1      -3.377   9.485  17.936  0.00  0.00    +0.000 C 
ATOM     10  O   UNL     1      -2.533  10.479  17.352  0.00  0.00    +0.000 OA
ENDBRANCH   3  10
BRANCH   8  11
ATOM     11  O   UNL     1      -1.936  12.507  19.062  0.00  0.00    +0.000 OA
BRANCH  11  12
ATOM     12  C   UNL     1      -1.829  13.036  20.388  0.00  0.00    +0.000 C 
BRANCH  12  13
ATOM     13  C   UNL     1      -3.056  12.947  21.265  0.00  0.00    +0.000 A 
ATOM     14  C   UNL     1      -4.364  13.019  20.786  0.00  0.00    +0.000 A 
ATOM     15  C   UNL     1      -5.438  12.951  21.681  0.00  0.00    +0.000 A 
ATOM     16  C   UNL     1      -5.206  12.804  23.050  0.00  0.00    +0.000 A 
ATOM     17 CL   UNL     1      -6.527  12.759  24.150  0.00  0.00    +0.000 Cl
ATOM     18  C   UNL     1      -3.908  12.700  23.538  0.00  0.00    +0.000 A 
ATOM     19  C   UNL     1      -2.841  12.763  22.648  0.00  0.00    +0.000 A 
ENDBRANCH  12  13
ENDBRANCH  11  12
ENDBRANCH   8  11
ENDBRANCH   1   5
BRANCH   2  20
ATOM     20  C   UNL     1       3.265   6.671  18.554  0.00  0.00    +0.000 C 
ATOM     21  O   UNL     1       3.021   5.506  18.870  0.00  0.00    +0.000 OA
ATOM     22  N   UNL     1       4.446   7.079  17.959  0.00  0.00    +0.000 N 
ATOM     23  H   UNL     1       4.672   8.069  17.924  0.00  0.00    +0.000 HD
BRANCH  22  24
ATOM     24  C   UNL     1       5.456   6.185  17.502  0.00  0.00    +0.000 A 
ATOM     25  C   UNL     1       6.405   5.614  18.360  0.00  0.00    +0.000 A 
ATOM     26  C   UNL     1       7.387   4.741  17.888  0.00  0.00    +0.000 A 
ATOM     27  C   UNL     1       7.443   4.424  16.537  0.00  0.00    +0.000 A 
ATOM     28  C   UNL     1       6.511   4.990  15.660  0.00  0.00    +0.000 A 
ATOM     29  C   UNL     1       5.499   5.843  16.146  0.00  0.00    +0.000 A 
BRANCH  28  30
ATOM     30  C   UNL     1       6.547   4.687  14.209  0.00  0.00    +0.000 C 
ATOM     31  O   UNL     1       5.753   3.927  13.681  0.00  0.00    +0.000 OA
BRANCH  30  32
ATOM     32  O   UNL     1       7.497   5.355  13.522  0.00  0.00    +0.000 OA
ATOM     33  H   UNL     1       7.356   6.316  13.430  0.00  0.00    +0.000 HD
ENDBRANCH  30  32
ENDBRANCH  28  30
ENDBRANCH  22  24
ENDBRANCH   2  20
BRANCH   2  34
ATOM     34  C   UNL     1       1.614   7.897  20.246  0.00  0.00    +0.000 C 
ATOM     35  N   UNL     1       1.088   8.045  21.382  0.00  0.00    +0.000 NA
ENDBRANCH   2  34
TORSDOF 10
ENDMDL
MODEL 6
REMARK VINA RESULT:      -7.3      7.054      9.684
REMARK  Name = 
REMARK  11 active torsions:
REMARK  status: ('A' for Active; 'I' for Inactive)
REMARK    1  A    between atoms: C_1  and  O_2
REMARK    2  A    between atoms: O_2  and  C_3
REMARK    3  A    between atoms: C_5  and  C_6
REMARK    4  A    between atoms: C_7  and  C_8
REMARK    5  A    between atoms: C_7  and  C_10
REMARK    6  A    between atoms: N_12  and  C_13
REMARK    7  A    between atoms: C_17  and  C_18
REMARK    8  A    between atoms: C_18  and  O_20
REMARK    9  A    between atoms: C_24  and  O_25
REMARK   10  A    between atoms: O_25  and  C_26
REMARK   11  A    between atoms: C_26  and  C_27
REMARK                            x       y       z     vdW  Elec       q    Type
REMARK                         _______ _______ _______ _____ _____    ______ ____
ROOT
ATOM      1  C   UNL     1       6.930   8.121  17.273  0.00  0.00    +0.000 C 
ATOM      2  C   UNL     1       7.892   8.003  18.216  0.00  0.00    +0.000 C 
ENDROOT
BRANCH   1   5
ATOM      3  C   UNL     1       5.842   4.804  15.879  0.00  0.00    +0.000 A 
ATOM      4  C   UNL     1       6.548   6.006  16.045  0.00  0.00    +0.000 A 
ATOM      5  C   UNL     1       6.071   7.000  16.902  0.00  0.00    +0.000 A 
ATOM      6  C   UNL     1       4.835   6.855  17.516  0.00  0.00    +0.000 A 
ATOM      7  C   UNL     1       4.107   5.687  17.322  0.00  0.00    +0.000 A 
ATOM      8  C   UNL     1       4.586   4.651  16.498  0.00  0.00    +0.000 A 
BRANCH   3  10
ATOM      9  C   UNL     1       6.231   3.864  13.724  0.00  0.00    +0.000 C 
ATOM     10  O   UNL     1       6.334   3.754  15.145  0.00  0.00    +0.000 OA
ENDBRANCH   3  10
BRANCH   8  11
ATOM     11  O   UNL     1       3.877   3.480  16.277  0.00  0.00    +0.000 OA
BRANCH  11  12
ATOM     12  C   UNL     1       4.137   2.461  17.249  0.00  0.00    +0.000 C 
BRANCH  12  13
ATOM     13  C   UNL     1       3.285   2.467  18.496  0.00  0.00    +0.000 A 
ATOM     14  C   UNL     1       1.890   2.429  18.488  0.00  0.00    +0.000 A 
ATOM     15  C   UNL     1       1.186   2.463  19.698  0.00  0.00    +0.000 A 
ATOM     16  C   UNL     1       1.874   2.526  20.911  0.00  0.00    +0.000 A 
ATOM     17 CL   UNL     1       1.004   2.605  22.393  0.00  0.00    +0.000 Cl
ATOM     18  C   UNL     1       3.263   2.534  20.935  0.00  0.00    +0.000 A 
ATOM     19  C   UNL     1       3.963   2.496  19.733  0.00  0.00    +0.000 A 
ENDBRANCH  12  13
ENDBRANCH  11  12
ENDBRANCH   8  11
ENDBRANCH   1   5
BRANCH   2  20
ATOM     20  C   UNL     1       8.663   9.244  18.532  0.00  0.00    +0.000 C 
ATOM     21  O   UNL     1       9.265   9.298  19.605  0.00  0.00    +0.000 OA
ATOM     22  N   UNL     1       8.618  10.282  17.618  0.00  0.00    +0.000 N 
ATOM     23  H   UNL     1       7.937  10.257  16.865  0.00  0.00    +0.000 HD
BRANCH  22  24
ATOM     24  C   UNL     1       9.385  11.477  17.734  0.00  0.00    +0.000 A 
ATOM     25  C   UNL     1      10.786  11.476  17.764  0.00  0.00    +0.000 A 
ATOM     26  C   UNL     1      11.516  12.661  17.881  0.00  0.00    +0.000 A 
ATOM     27  C   UNL     1      10.854  13.878  17.976  0.00  0.00    +0.000 A 
ATOM     28  C   UNL     1       9.455  13.902  17.958  0.00  0.00    +0.000 A 
ATOM     29  C   UNL     1       8.722  12.708  17.804  0.00  0.00    +0.000 A 
BRANCH  28  30
ATOM     30  C   UNL     1       8.713  15.180  18.071  0.00  0.00    +0.000 C 
ATOM     31  O   UNL     1       7.806  15.341  18.870  0.00  0.00    +0.000 OA
BRANCH  30  32
ATOM     32  O   UNL     1       9.157  16.157  17.253  0.00  0.00    +0.000 OA
ATOM     33  H   UNL     1       9.365  15.884  16.340  0.00  0.00    +0.000 HD
ENDBRANCH  30  32
ENDBRANCH  28  30
ENDBRANCH  22  24
ENDBRANCH   2  20
BRANCH   2  34
ATOM     34  C   UNL     1       8.079   6.679  18.938  0.00  0.00    +0.000 C 
ATOM     35  N   UNL     1       8.233   5.580  19.536  0.00  0.00    +0.000 NA
ENDBRANCH   2  34
TORSDOF 10
ENDMDL
MODEL 7
REMARK VINA RESULT:      -7.1      4.285     11.230
REMARK  Name = 
REMARK  11 active torsions:
REMARK  status: ('A' for Active; 'I' for Inactive)
REMARK    1  A    between atoms: C_1  and  O_2
REMARK    2  A    between atoms: O_2  and  C_3
REMARK    3  A    between atoms: C_5  and  C_6
REMARK    4  A    between atoms: C_7  and  C_8
REMARK    5  A    between atoms: C_7  and  C_10
REMARK    6  A    between atoms: N_12  and  C_13
REMARK    7  A    between atoms: C_17  and  C_18
REMARK    8  A    between atoms: C_18  and  O_20
REMARK    9  A    between atoms: C_24  and  O_25
REMARK   10  A    between atoms: O_25  and  C_26
REMARK   11  A    between atoms: C_26  and  C_27
REMARK                            x       y       z     vdW  Elec       q    Type
REMARK                         _______ _______ _______ _____ _____    ______ ____
ROOT
ATOM      1  C   UNL     1       1.291   8.040  21.281  0.00  0.00    +0.000 C 
ATOM      2  C   UNL     1       0.723   9.165  20.791  0.00  0.00    +0.000 C 
ENDROOT
BRANCH   1   5
ATOM      3  C   UNL     1       1.833   4.733  19.576  0.00  0.00    +0.000 A 
ATOM      4  C   UNL     1       1.497   5.682  20.555  0.00  0.00    +0.000 A 
ATOM      5  C   UNL     1       1.864   7.021  20.405  0.00  0.00    +0.000 A 
ATOM      6  C   UNL     1       2.660   7.409  19.337  0.00  0.00    +0.000 A 
ATOM      7  C   UNL     1       3.036   6.466  18.386  0.00  0.00    +0.000 A 
ATOM      8  C   UNL     1       2.643   5.120  18.491  0.00  0.00    +0.000 A 
BRANCH   3  10
ATOM      9  C   UNL     1       1.306   2.835  20.918  0.00  0.00    +0.000 C 
ATOM     10  O   UNL     1       1.388   3.435  19.624  0.00  0.00    +0.000 OA
ENDBRANCH   3  10
BRANCH   8  11
ATOM     11  O   UNL     1       3.011   4.156  17.564  0.00  0.00    +0.000 OA
BRANCH  11  12
ATOM     12  C   UNL     1       4.400   3.811  17.618  0.00  0.00    +0.000 C 
BRANCH  12  13
ATOM     13  C   UNL     1       5.248   4.181  16.424  0.00  0.00    +0.000 A 
ATOM     14  C   UNL     1       4.896   3.904  15.102  0.00  0.00    +0.000 A 
ATOM     15  C   UNL     1       5.760   4.265  14.062  0.00  0.00    +0.000 A 
ATOM     16  C   UNL     1       6.968   4.909  14.341  0.00  0.00    +0.000 A 
ATOM     17 CL   UNL     1       8.043   5.318  13.062  0.00  0.00    +0.000 Cl
ATOM     18  C   UNL     1       7.316   5.218  15.651  0.00  0.00    +0.000 A 
ATOM     19  C   UNL     1       6.455   4.863  16.684  0.00  0.00    +0.000 A 
ENDBRANCH  12  13
ENDBRANCH  11  12
ENDBRANCH   8  11
ENDBRANCH   1   5
BRANCH   2  20
ATOM     20  C   UNL     1       0.223  10.146  21.803  0.00  0.00    +0.000 C 
ATOM     21  O   UNL     1       0.684  10.092  22.943  0.00  0.00    +0.000 OA
ATOM     22  N   UNL     1      -0.766  11.030  21.410  0.00  0.00    +0.000 N 
ATOM     23  H   UNL     1      -1.250  10.881  20.530  0.00  0.00    +0.000 HD
BRANCH  22  24
ATOM     24  C   UNL     1      -1.261  12.084  22.230  0.00  0.00    +0.000 A 
ATOM     25  C   UNL     1      -2.452  11.978  22.960  0.00  0.00    +0.000 A 
ATOM     26  C   UNL     1      -2.919  13.025  23.757  0.00  0.00    +0.000 A 
ATOM     27  C   UNL     1      -2.200  14.211  23.836  0.00  0.00    +0.000 A 
ATOM     28  C   UNL     1      -1.013  14.343  23.108  0.00  0.00    +0.000 A 
ATOM     29  C   UNL     1      -0.526  13.270  22.333  0.00  0.00    +0.000 A 
BRANCH  28  30
ATOM     30  C   UNL     1      -0.224  15.598  23.156  0.00  0.00    +0.000 C 
ATOM     31  O   UNL     1      -0.699  16.653  23.543  0.00  0.00    +0.000 OA
BRANCH  30  32
ATOM     32  O   UNL     1       1.065  15.462  22.782  0.00  0.00    +0.000 OA
ATOM     33  H   UNL     1       1.269  14.677  22.241  0.00  0.00    +0.000 HD
ENDBRANCH  30  32
ENDBRANCH  28  30
ENDBRANCH  22  24
ENDBRANCH   2  20
BRANCH   2  34
ATOM     34  C   UNL     1       0.697   9.403  19.290  0.00  0.00    +0.000 C 
ATOM     35  N   UNL     1       0.676   9.600  18.045  0.00  0.00    +0.000 NA
ENDBRANCH   2  34
TORSDOF 10
ENDMDL
MODEL 8
REMARK VINA RESULT:      -7.1      2.420      3.211
REMARK  Name = 
REMARK  11 active torsions:
REMARK  status: ('A' for Active; 'I' for Inactive)
REMARK    1  A    between atoms: C_1  and  O_2
REMARK    2  A    between atoms: O_2  and  C_3
REMARK    3  A    between atoms: C_5  and  C_6
REMARK    4  A    between atoms: C_7  and  C_8
REMARK    5  A    between atoms: C_7  and  C_10
REMARK    6  A    between atoms: N_12  and  C_13
REMARK    7  A    between atoms: C_17  and  C_18
REMARK    8  A    between atoms: C_18  and  O_20
REMARK    9  A    between atoms: C_24  and  O_25
REMARK   10  A    between atoms: O_25  and  C_26
REMARK   11  A    between atoms: C_26  and  C_27
REMARK                            x       y       z     vdW  Elec       q    Type
REMARK                         _______ _______ _______ _____ _____    ______ ____
ROOT
ATOM      1  C   UNL     1       1.088   9.945  18.340  0.00  0.00    +0.000 C 
ATOM      2  C   UNL     1       1.598   8.864  18.972  0.00  0.00    +0.000 C 
ENDROOT
BRANCH   1   5
ATOM      3  C   UNL     1       0.239  13.269  19.877  0.00  0.00    +0.000 A 
ATOM      4  C   UNL     1       0.984  12.170  19.421  0.00  0.00    +0.000 A 
ATOM      5  C   UNL     1       0.349  10.980  19.056  0.00  0.00    +0.000 A 
ATOM      6  C   UNL     1      -1.019  10.836  19.245  0.00  0.00    +0.000 A 
ATOM      7  C   UNL     1      -1.758  11.905  19.739  0.00  0.00    +0.000 A 
ATOM      8  C   UNL     1      -1.149  13.128  20.072  0.00  0.00    +0.000 A 
BRANCH   3  10
ATOM      9  C   UNL     1       1.200  15.261  18.989  0.00  0.00    +0.000 C 
ATOM     10  O   UNL     1       0.808  14.492  20.128  0.00  0.00    +0.000 OA
ENDBRANCH   3  10
BRANCH   8  11
ATOM     11  O   UNL     1      -1.858  14.208  20.577  0.00  0.00    +0.000 OA
BRANCH  11  12
ATOM     12  C   UNL     1      -2.671  13.879  21.709  0.00  0.00    +0.000 C 
BRANCH  12  13
ATOM     13  C   UNL     1      -2.292  14.501  23.032  0.00  0.00    +0.000 A 
ATOM     14  C   UNL     1      -3.035  14.354  24.205  0.00  0.00    +0.000 A 
ATOM     15  C   UNL     1      -2.615  14.990  25.379  0.00  0.00    +0.000 A 
ATOM     16  C   UNL     1      -1.452  15.763  25.384  0.00  0.00    +0.000 A 
ATOM     17 CL   UNL     1      -0.960  16.572  26.820  0.00  0.00    +0.000 Cl
ATOM     18  C   UNL     1      -0.686  15.892  24.231  0.00  0.00    +0.000 A 
ATOM     19  C   UNL     1      -1.101  15.257  23.066  0.00  0.00    +0.000 A 
ENDBRANCH  12  13
ENDBRANCH  11  12
ENDBRANCH   8  11
ENDBRANCH   1   5
BRANCH   2  20
ATOM     20  C   UNL     1       2.375   7.909  18.125  0.00  0.00    +0.000 C 
ATOM     21  O   UNL     1       2.694   8.265  16.990  0.00  0.00    +0.000 OA
ATOM     22  N   UNL     1       2.653   6.659  18.649  0.00  0.00    +0.000 N 
ATOM     23  H   UNL     1       2.180   6.355  19.495  0.00  0.00    +0.000 HD
BRANCH  22  24
ATOM     24  C   UNL     1       3.471   5.689  18.002  0.00  0.00    +0.000 A 
ATOM     25  C   UNL     1       2.976   4.453  17.566  0.00  0.00    +0.000 A 
ATOM     26  C   UNL     1       3.799   3.517  16.935  0.00  0.00    +0.000 A 
ATOM     27  C   UNL     1       5.143   3.799  16.730  0.00  0.00    +0.000 A 
ATOM     28  C   UNL     1       5.660   5.025  17.166  0.00  0.00    +0.000 A 
ATOM     29  C   UNL     1       4.820   5.981  17.770  0.00  0.00    +0.000 A 
BRANCH  28  30
ATOM     30  C   UNL     1       7.093   5.357  16.977  0.00  0.00    +0.000 C 
ATOM     31  O   UNL     1       7.469   6.477  16.673  0.00  0.00    +0.000 OA
BRANCH  30  32
ATOM     32  O   UNL     1       7.940   4.334  17.216  0.00  0.00    +0.000 OA
ATOM     33  H   UNL     1       7.618   3.654  17.836  0.00  0.00    +0.000 HD
ENDBRANCH  30  32
ENDBRANCH  28  30
ENDBRANCH  22  24
ENDBRANCH   2  20
BRANCH   2  34
ATOM     34  C   UNL     1       1.427   8.722  20.476  0.00  0.00    +0.000 C 
ATOM     35  N   UNL     1       1.285   8.605  21.723  0.00  0.00    +0.000 NA
ENDBRANCH   2  34
TORSDOF 10
ENDMDL
MODEL 9
REMARK VINA RESULT:      -7.1      2.048      3.020
REMARK  Name = 
REMARK  11 active torsions:
REMARK  status: ('A' for Active; 'I' for Inactive)
REMARK    1  A    between atoms: C_1  and  O_2
REMARK    2  A    between atoms: O_2  and  C_3
REMARK    3  A    between atoms: C_5  and  C_6
REMARK    4  A    between atoms: C_7  and  C_8
REMARK    5  A    between atoms: C_7  and  C_10
REMARK    6  A    between atoms: N_12  and  C_13
REMARK    7  A    between atoms: C_17  and  C_18
REMARK    8  A    between atoms: C_18  and  O_20
REMARK    9  A    between atoms: C_24  and  O_25
REMARK   10  A    between atoms: O_25  and  C_26
REMARK   11  A    between atoms: C_26  and  C_27
REMARK                            x       y       z     vdW  Elec       q    Type
REMARK                         _______ _______ _______ _____ _____    ______ ____
ROOT
ATOM      1  C   UNL     1       0.803   9.676  19.550  0.00  0.00    +0.000 C 
ATOM      2  C   UNL     1       1.193   8.819  20.521  0.00  0.00    +0.000 C 
ENDROOT
BRANCH   1   5
ATOM      3  C   UNL     1       0.486  13.382  20.096  0.00  0.00    +0.000 A 
ATOM      4  C   UNL     1       1.032  12.089  20.052  0.00  0.00    +0.000 A 
ATOM      5  C   UNL     1       0.213  10.975  19.859  0.00  0.00    +0.000 A 
ATOM      6  C   UNL     1      -1.167  11.125  19.817  0.00  0.00    +0.000 A 
ATOM      7  C   UNL     1      -1.720  12.398  19.906  0.00  0.00    +0.000 A 
ATOM      8  C   UNL     1      -0.913  13.541  20.056  0.00  0.00    +0.000 A 
BRANCH   3  10
ATOM      9  C   UNL     1       1.884  14.930  18.944  0.00  0.00    +0.000 C 
ATOM     10  O   UNL     1       1.265  14.510  20.161  0.00  0.00    +0.000 OA
ENDBRANCH   3  10
BRANCH   8  11
ATOM     11  O   UNL     1      -1.436  14.821  20.158  0.00  0.00    +0.000 OA
BRANCH  11  12
ATOM     12  C   UNL     1      -1.675  15.236  21.508  0.00  0.00    +0.000 C 
BRANCH  12  13
ATOM     13  C   UNL     1      -2.801  14.553  22.249  0.00  0.00    +0.000 A 
ATOM     14  C   UNL     1      -2.612  13.666  23.309  0.00  0.00    +0.000 A 
ATOM     15  C   UNL     1      -3.719  13.063  23.918  0.00  0.00    +0.000 A 
ATOM     16  C   UNL     1      -5.011  13.353  23.475  0.00  0.00    +0.000 A 
ATOM     17 CL   UNL     1      -6.366  12.582  24.202  0.00  0.00    +0.000 Cl
ATOM     18  C   UNL     1      -5.215  14.258  22.440  0.00  0.00    +0.000 A 
ATOM     19  C   UNL     1      -4.115  14.861  21.838  0.00  0.00    +0.000 A 
ENDBRANCH  12  13
ENDBRANCH  11  12
ENDBRANCH   8  11
ENDBRANCH   1   5
BRANCH   2  20
ATOM     20  C   UNL     1       1.828   7.546  20.062  0.00  0.00    +0.000 C 
ATOM     21  O   UNL     1       1.829   6.586  20.833  0.00  0.00    +0.000 OA
ATOM     22  N   UNL     1       2.420   7.534  18.811  0.00  0.00    +0.000 N 
ATOM     23  H   UNL     1       2.573   8.410  18.322  0.00  0.00    +0.000 HD
BRANCH  22  24
ATOM     24  C   UNL     1       2.967   6.368  18.202  0.00  0.00    +0.000 A 
ATOM     25  C   UNL     1       2.228   5.190  18.029  0.00  0.00    +0.000 A 
ATOM     26  C   UNL     1       2.786   4.058  17.430  0.00  0.00    +0.000 A 
ATOM     27  C   UNL     1       4.105   4.082  16.995  0.00  0.00    +0.000 A 
ATOM     28  C   UNL     1       4.864   5.245  17.167  0.00  0.00    +0.000 A 
ATOM     29  C   UNL     1       4.286   6.396  17.739  0.00  0.00    +0.000 A 
BRANCH  28  30
ATOM     30  C   UNL     1       6.279   5.304  16.728  0.00  0.00    +0.000 C 
ATOM     31  O   UNL     1       7.003   4.322  16.721  0.00  0.00    +0.000 OA
BRANCH  30  32
ATOM     32  O   UNL     1       6.678   6.518  16.293  0.00  0.00    +0.000 OA
ATOM     33  H   UNL     1       6.439   6.739  15.374  0.00  0.00    +0.000 HD
ENDBRANCH  30  32
ENDBRANCH  28  30
ENDBRANCH  22  24
ENDBRANCH   2  20
BRANCH   2  34
ATOM     34  C   UNL     1       1.043   9.218  21.980  0.00  0.00    +0.000 C 
ATOM     35  N   UNL     1       0.919   9.549  23.190  0.00  0.00    +0.000 NA
ENDBRANCH   2  34
TORSDOF 10
ENDMDL
