MODEL 1
REMARK VINA RESULT:      -7.8      0.000      0.000
REMARK  Name = 
REMARK  5 active torsions:
REMARK  status: ('A' for Active; 'I' for Inactive)
REMARK    1  A    between atoms: C_2  and  C_3
REMARK    2  A    between atoms: C_3  and  N_4
REMARK    3  A    between atoms: N_4  and  C_5
REMARK    4  A    between atoms: C_5  and  C_6
REMARK    5  A    between atoms: C_21  and  C_22
REMARK                            x       y       z     vdW  Elec       q    Type
REMARK                         _______ _______ _______ _____ _____    ______ ____
ROOT
ATOM      1  O   UNL     1       8.400   5.686  19.123  0.00  0.00    +0.000 OA
ATOM      2  C   UNL     1       7.424   6.191  18.546  0.00  0.00    +0.000 C 
ATOM      3  N   UNL     1       6.188   5.531  18.501  0.00  0.00    +0.000 N 
ATOM      4  C   UNL     1       6.099   4.365  19.397  0.00  0.00    +0.000 C 
ATOM      5  C   UNL     1       4.741   3.675  19.521  0.00  0.00    +0.000 C 
ATOM      6  C   UNL     1       3.654   4.699  19.668  0.00  0.00    +0.000 A 
ATOM      7  C   UNL     1       2.538   4.442  20.472  0.00  0.00    +0.000 A 
ATOM      8  C   UNL     1       1.585   5.438  20.675  0.00  0.00    +0.000 A 
ATOM      9  C   UNL     1       1.743   6.681  20.066  0.00  0.00    +0.000 A 
ATOM     10  C   UNL     1       2.823   6.918  19.210  0.00  0.00    +0.000 A 
ATOM     11  C   UNL     1       3.778   5.918  18.976  0.00  0.00    +0.000 A 
ATOM     12  C   UNL     1       4.938   6.138  17.994  0.00  0.00    +0.000 C 
ENDROOT
BRANCH  12  13
ATOM     13  C   UNL     1       4.527   5.762  16.508  0.00  0.00    +0.000 C 
ATOM     14  C   UNL     1       5.381   6.379  15.382  0.00  0.00    +0.000 C 
ATOM     15  C   UNL     1       6.715   5.671  15.144  0.00  0.00    +0.000 C 
ATOM     16  C   UNL     1       6.548   4.173  14.914  0.00  0.00    +0.000 C 
ATOM     17  C   UNL     1       5.638   3.511  15.938  0.00  0.00    +0.000 C 
ATOM     18  C   UNL     1       4.335   4.273  16.168  0.00  0.00    +0.000 C 
ENDBRANCH  12  13
BRANCH   2  19
ATOM     19  C   UNL     1       7.594   7.582  17.912  0.00  0.00    +0.000 C 
BRANCH  19  20
ATOM     20  N   UNL     1       8.606   8.335  18.656  0.00  0.00    +0.000 NA
ATOM     21  H   UNL     1       9.530   7.970  18.402  0.00  0.00    +0.000 HD
BRANCH  20  22
ATOM     22  C   UNL     1       8.550   9.773  18.390  0.00  0.00    +0.000 C 
BRANCH  22  23
ATOM     23  C   UNL     1       9.877  10.430  18.824  0.00  0.00    +0.000 C 
ATOM     24  C   UNL     1      10.416  11.419  17.776  0.00  0.00    +0.000 C 
ATOM     25  C   UNL     1       9.652  12.743  17.719  0.00  0.00    +0.000 C 
ATOM     26  C   UNL     1       9.429  13.376  19.092  0.00  0.00    +0.000 C 
ATOM     27  C   UNL     1       8.905  12.386  20.127  0.00  0.00    +0.000 C 
ATOM     28  C   UNL     1       9.778  11.138  20.189  0.00  0.00    +0.000 C 
ENDBRANCH  22  23
ENDBRANCH  20  22
ENDBRANCH  19  20
ENDBRANCH   2  19
TORSDOF 5
ENDMDL
MODEL 2
REMARK VINA RESULT:      -7.8      4.028      7.015
REMARK  Name = 
REMARK  5 active torsions:
REMARK  status: ('A' for Active; 'I' for Inactive)
REMARK    1  A    between atoms: C_2  and  C_3
REMARK    2  A    between atoms: C_3  and  N_4
REMARK    3  A    between atoms: N_4  and  C_5
REMARK    4  A    between atoms: C_5  and  C_6
REMARK    5  A    between atoms: C_21  and  C_22
REMARK                            x       y       z     vdW  Elec       q    Type
REMARK                         _______ _______ _______ _____ _____    ______ ____
ROOT
ATOM      1  O   UNL     1       1.795   8.785  17.959  0.00  0.00    +0.000 OA
ATOM      2  C   UNL     1       2.104   7.693  18.463  0.00  0.00    +0.000 C 
ATOM      3  N   UNL     1       3.083   6.877  17.877  0.00  0.00    +0.000 N 
ATOM      4  C   UNL     1       3.856   7.539  16.813  0.00  0.00    +0.000 C 
ATOM      5  C   UNL     1       5.039   6.772  16.222  0.00  0.00    +0.000 C 
ATOM      6  C   UNL     1       5.842   6.137  17.319  0.00  0.00    +0.000 A 
ATOM      7  C   UNL     1       7.233   6.028  17.211  0.00  0.00    +0.000 A 
ATOM      8  C   UNL     1       7.975   5.524  18.278  0.00  0.00    +0.000 A 
ATOM      9  C   UNL     1       7.325   5.122  19.443  0.00  0.00    +0.000 A 
ATOM     10  C   UNL     1       5.930   5.170  19.528  0.00  0.00    +0.000 A 
ATOM     11  C   UNL     1       5.167   5.651  18.454  0.00  0.00    +0.000 A 
ATOM     12  C   UNL     1       3.632   5.656  18.505  0.00  0.00    +0.000 C 
ENDROOT
BRANCH  12  13
ATOM     13  C   UNL     1       3.026   4.276  18.010  0.00  0.00    +0.000 C 
ATOM     14  C   UNL     1       3.715   2.997  18.527  0.00  0.00    +0.000 C 
ATOM     15  C   UNL     1       3.327   2.605  19.953  0.00  0.00    +0.000 C 
ATOM     16  C   UNL     1       1.818   2.497  20.138  0.00  0.00    +0.000 C 
ATOM     17  C   UNL     1       1.060   3.687  19.566  0.00  0.00    +0.000 C 
ATOM     18  C   UNL     1       1.508   4.063  18.155  0.00  0.00    +0.000 C 
ENDBRANCH  12  13
BRANCH   2  19
ATOM     19  C   UNL     1       1.413   7.274  19.772  0.00  0.00    +0.000 C 
BRANCH  19  20
ATOM     20  N   UNL     1       2.150   7.828  20.909  0.00  0.00    +0.000 NA
ATOM     21  H   UNL     1       3.117   8.000  20.613  0.00  0.00    +0.000 HD
BRANCH  20  22
ATOM     22  C   UNL     1       1.558   9.066  21.418  0.00  0.00    +0.000 C 
BRANCH  22  23
ATOM     23  C   UNL     1       0.035   9.046  21.175  0.00  0.00    +0.000 C 
ATOM     24  C   UNL     1      -0.771   8.975  22.485  0.00  0.00    +0.000 C 
ATOM     25  C   UNL     1      -0.801  10.288  23.268  0.00  0.00    +0.000 C 
ATOM     26  C   UNL     1      -1.150  11.501  22.408  0.00  0.00    +0.000 C 
ATOM     27  C   UNL     1      -0.356  11.558  21.108  0.00  0.00    +0.000 C 
ATOM     28  C   UNL     1      -0.456  10.245  20.340  0.00  0.00    +0.000 C 
ENDBRANCH  22  23
ENDBRANCH  20  22
ENDBRANCH  19  20
ENDBRANCH   2  19
TORSDOF 5
ENDMDL
MODEL 3
REMARK VINA RESULT:      -7.8      4.309      5.722
REMARK  Name = 
REMARK  5 active torsions:
REMARK  status: ('A' for Active; 'I' for Inactive)
REMARK    1  A    between atoms: C_2  and  C_3
REMARK    2  A    between atoms: C_3  and  N_4
REMARK    3  A    between atoms: N_4  and  C_5
REMARK    4  A    between atoms: C_5  and  C_6
REMARK    5  A    between atoms: C_21  and  C_22
REMARK                            x       y       z     vdW  Elec       q    Type
REMARK                         _______ _______ _______ _____ _____    ______ ____
ROOT
ATOM      1  O   UNL     1       1.036   9.069  20.176  0.00  0.00    +0.000 OA
ATOM      2  C   UNL     1       1.680   8.451  19.312  0.00  0.00    +0.000 C 
ATOM      3  N   UNL     1       2.230   7.189  19.584  0.00  0.00    +0.000 N 
ATOM      4  C   UNL     1       1.758   6.589  20.843  0.00  0.00    +0.000 C 
ATOM      5  C   UNL     1       2.192   5.155  21.144  0.00  0.00    +0.000 C 
ATOM      6  C   UNL     1       2.048   4.303  19.917  0.00  0.00    +0.000 A 
ATOM      7  C   UNL     1       1.669   2.960  20.023  0.00  0.00    +0.000 A 
ATOM      8  C   UNL     1       1.447   2.210  18.871  0.00  0.00    +0.000 A 
ATOM      9  C   UNL     1       1.615   2.798  17.619  0.00  0.00    +0.000 A 
ATOM     10  C   UNL     1       2.056   4.120  17.511  0.00  0.00    +0.000 A 
ATOM     11  C   UNL     1       2.308   4.882  18.661  0.00  0.00    +0.000 A 
ATOM     12  C   UNL     1       2.850   6.316  18.565  0.00  0.00    +0.000 C 
ENDROOT
BRANCH  12  13
ATOM     13  C   UNL     1       4.435   6.338  18.490  0.00  0.00    +0.000 C 
ATOM     14  C   UNL     1       5.165   5.080  19.002  0.00  0.00    +0.000 C 
ATOM     15  C   UNL     1       5.180   3.914  18.012  0.00  0.00    +0.000 C 
ATOM     16  C   UNL     1       5.724   4.315  16.646  0.00  0.00    +0.000 C 
ATOM     17  C   UNL     1       5.113   5.605  16.117  0.00  0.00    +0.000 C 
ATOM     18  C   UNL     1       5.088   6.728  17.151  0.00  0.00    +0.000 C 
ENDBRANCH  12  13
BRANCH   2  19
ATOM     19  C   UNL     1       1.825   9.087  17.919  0.00  0.00    +0.000 C 
BRANCH  19  20
ATOM     20  N   UNL     1       1.133  10.377  17.900  0.00  0.00    +0.000 NA
ATOM     21  H   UNL     1       0.412  10.367  18.628  0.00  0.00    +0.000 HD
BRANCH  20  22
ATOM     22  C   UNL     1       2.038  11.507  18.112  0.00  0.00    +0.000 C 
BRANCH  22  23
ATOM     23  C   UNL     1       1.663  12.229  19.424  0.00  0.00    +0.000 C 
ATOM     24  C   UNL     1       2.458  13.530  19.630  0.00  0.00    +0.000 C 
ATOM     25  C   UNL     1       2.004  14.684  18.736  0.00  0.00    +0.000 C 
ATOM     26  C   UNL     1       0.491  14.893  18.735  0.00  0.00    +0.000 C 
ATOM     27  C   UNL     1      -0.290  13.598  18.541  0.00  0.00    +0.000 C 
ATOM     28  C   UNL     1       0.156  12.530  19.534  0.00  0.00    +0.000 C 
ENDBRANCH  22  23
ENDBRANCH  20  22
ENDBRANCH  19  20
ENDBRANCH   2  19
TORSDOF 5
ENDMDL
MODEL 4
REMARK VINA RESULT:      -7.7      4.443      7.284
REMARK  Name = 
REMARK  5 active torsions:
REMARK  status: ('A' for Active; 'I' for Inactive)
REMARK    1  A    between atoms: C_2  and  C_3
REMARK    2  A    between atoms: C_3  and  N_4
REMARK    3  A    between atoms: N_4  and  C_5
REMARK    4  A    between atoms: C_5  and  C_6
REMARK    5  A    between atoms: C_21  and  C_22
REMARK                            x       y       z     vdW  Elec       q    Type
REMARK                         _______ _______ _______ _____ _____    ______ ____
ROOT
ATOM      1  O   UNL     1       1.050   9.157  20.263  0.00  0.00    +0.000 OA
ATOM      2  C   UNL     1       1.645   8.536  19.368  0.00  0.00    +0.000 C 
ATOM      3  N   UNL     1       2.209   7.275  19.613  0.00  0.00    +0.000 N 
ATOM      4  C   UNL     1       1.806   6.680  20.899  0.00  0.00    +0.000 C 
ATOM      5  C   UNL     1       2.256   5.247  21.181  0.00  0.00    +0.000 C 
ATOM      6  C   UNL     1       2.045   4.391  19.968  0.00  0.00    +0.000 A 
ATOM      7  C   UNL     1       1.672   3.048  20.099  0.00  0.00    +0.000 A 
ATOM      8  C   UNL     1       1.387   2.293  18.964  0.00  0.00    +0.000 A 
ATOM      9  C   UNL     1       1.486   2.876  17.702  0.00  0.00    +0.000 A 
ATOM     10  C   UNL     1       1.921   4.198  17.566  0.00  0.00    +0.000 A 
ATOM     11  C   UNL     1       2.236   4.964  18.696  0.00  0.00    +0.000 A 
ATOM     12  C   UNL     1       2.772   6.397  18.565  0.00  0.00    +0.000 C 
ENDROOT
BRANCH  12  13
ATOM     13  C   UNL     1       4.350   6.419  18.403  0.00  0.00    +0.000 C 
ATOM     14  C   UNL     1       5.121   5.236  19.024  0.00  0.00    +0.000 C 
ATOM     15  C   UNL     1       5.098   3.959  18.185  0.00  0.00    +0.000 C 
ATOM     16  C   UNL     1       5.564   4.193  16.753  0.00  0.00    +0.000 C 
ATOM     17  C   UNL     1       4.911   5.405  16.104  0.00  0.00    +0.000 C 
ATOM     18  C   UNL     1       4.927   6.646  16.994  0.00  0.00    +0.000 C 
ENDBRANCH  12  13
BRANCH   2  19
ATOM     19  C   UNL     1       1.713   9.167  17.966  0.00  0.00    +0.000 C 
BRANCH  19  20
ATOM     20  N   UNL     1       0.727  10.244  17.869  0.00  0.00    +0.000 NA
ATOM     21  H   UNL     1       0.909  10.771  17.009  0.00  0.00    +0.000 HD
BRANCH  20  22
ATOM     22  C   UNL     1      -0.651   9.750  17.868  0.00  0.00    +0.000 C 
BRANCH  22  23
ATOM     23  C   UNL     1      -1.530  10.677  17.001  0.00  0.00    +0.000 C 
ATOM     24  C   UNL     1      -2.844  10.005  16.566  0.00  0.00    +0.000 C 
ATOM     25  C   UNL     1      -3.881   9.884  17.683  0.00  0.00    +0.000 C 
ATOM     26  C   UNL     1      -4.092  11.183  18.460  0.00  0.00    +0.000 C 
ATOM     27  C   UNL     1      -2.785  11.847  18.878  0.00  0.00    +0.000 C 
ATOM     28  C   UNL     1      -1.847  12.019  17.689  0.00  0.00    +0.000 C 
ENDBRANCH  22  23
ENDBRANCH  20  22
ENDBRANCH  19  20
ENDBRANCH   2  19
TORSDOF 5
ENDMDL
MODEL 5
REMARK VINA RESULT:      -7.7      4.197      5.570
REMARK  Name = 
REMARK  5 active torsions:
REMARK  status: ('A' for Active; 'I' for Inactive)
REMARK    1  A    between atoms: C_2  and  C_3
REMARK    2  A    between atoms: C_3  and  N_4
REMARK    3  A    between atoms: N_4  and  C_5
REMARK    4  A    between atoms: C_5  and  C_6
REMARK    5  A    between atoms: C_21  and  C_22
REMARK                            x       y       z     vdW  Elec       q    Type
REMARK                         _______ _______ _______ _____ _____    ______ ____
ROOT
ATOM      1  O   UNL     1       1.026   9.406  20.139  0.00  0.00    +0.000 OA
ATOM      2  C   UNL     1       1.636   8.734  19.292  0.00  0.00    +0.000 C 
ATOM      3  N   UNL     1       2.126   7.456  19.598  0.00  0.00    +0.000 N 
ATOM      4  C   UNL     1       1.629   6.914  20.875  0.00  0.00    +0.000 C 
ATOM      5  C   UNL     1       1.995   5.469  21.215  0.00  0.00    +0.000 C 
ATOM      6  C   UNL     1       1.807   4.592  20.013  0.00  0.00    +0.000 A 
ATOM      7  C   UNL     1       1.363   3.272  20.156  0.00  0.00    +0.000 A 
ATOM      8  C   UNL     1       1.102   2.501  19.026  0.00  0.00    +0.000 A 
ATOM      9  C   UNL     1       1.294   3.046  17.758  0.00  0.00    +0.000 A 
ATOM     10  C   UNL     1       1.798   4.342  17.613  0.00  0.00    +0.000 A 
ATOM     11  C   UNL     1       2.090   5.122  18.740  0.00  0.00    +0.000 A 
ATOM     12  C   UNL     1       2.701   6.525  18.603  0.00  0.00    +0.000 C 
ENDROOT
BRANCH  12  13
ATOM     13  C   UNL     1       4.284   6.469  18.525  0.00  0.00    +0.000 C 
ATOM     14  C   UNL     1       4.960   5.229  19.147  0.00  0.00    +0.000 C 
ATOM     15  C   UNL     1       4.917   3.980  18.266  0.00  0.00    +0.000 C 
ATOM     16  C   UNL     1       5.472   4.232  16.869  0.00  0.00    +0.000 C 
ATOM     17  C   UNL     1       4.917   5.496  16.226  0.00  0.00    +0.000 C 
ATOM     18  C   UNL     1       4.947   6.707  17.156  0.00  0.00    +0.000 C 
ENDBRANCH  12  13
BRANCH   2  19
ATOM     19  C   UNL     1       1.808   9.323  17.882  0.00  0.00    +0.000 C 
BRANCH  19  20
ATOM     20  N   UNL     1       1.273  10.686  17.856  0.00  0.00    +0.000 NA
ATOM     21  H   UNL     1       0.493  10.738  18.519  0.00  0.00    +0.000 HD
BRANCH  20  22
ATOM     22  C   UNL     1       2.279  11.694  18.193  0.00  0.00    +0.000 C 
BRANCH  22  23
ATOM     23  C   UNL     1       1.598  13.070  18.348  0.00  0.00    +0.000 C 
ATOM     24  C   UNL     1       0.548  13.086  19.473  0.00  0.00    +0.000 C 
ATOM     25  C   UNL     1       1.145  13.102  20.880  0.00  0.00    +0.000 C 
ATOM     26  C   UNL     1       2.245  14.146  21.063  0.00  0.00    +0.000 C 
ATOM     27  C   UNL     1       3.275  14.130  19.939  0.00  0.00    +0.000 C 
ATOM     28  C   UNL     1       2.603  14.216  18.573  0.00  0.00    +0.000 C 
ENDBRANCH  22  23
ENDBRANCH  20  22
ENDBRANCH  19  20
ENDBRANCH   2  19
TORSDOF 5
ENDMDL
MODEL 6
REMARK VINA RESULT:      -7.6      4.273      7.340
REMARK  Name = 
REMARK  5 active torsions:
REMARK  status: ('A' for Active; 'I' for Inactive)
REMARK    1  A    between atoms: C_2  and  C_3
REMARK    2  A    between atoms: C_3  and  N_4
REMARK    3  A    between atoms: N_4  and  C_5
REMARK    4  A    between atoms: C_5  and  C_6
REMARK    5  A    between atoms: C_21  and  C_22
REMARK                            x       y       z     vdW  Elec       q    Type
REMARK                         _______ _______ _______ _____ _____    ______ ____
ROOT
ATOM      1  O   UNL     1       2.196   9.529  17.414  0.00  0.00    +0.000 OA
ATOM      2  C   UNL     1       2.264   8.472  18.061  0.00  0.00    +0.000 C 
ATOM      3  N   UNL     1       3.018   7.385  17.594  0.00  0.00    +0.000 N 
ATOM      4  C   UNL     1       3.893   7.709  16.454  0.00  0.00    +0.000 C 
ATOM      5  C   UNL     1       4.856   6.623  15.977  0.00  0.00    +0.000 C 
ATOM      6  C   UNL     1       5.525   5.972  17.152  0.00  0.00    +0.000 A 
ATOM      7  C   UNL     1       6.852   5.537  17.066  0.00  0.00    +0.000 A 
ATOM      8  C   UNL     1       7.488   5.023  18.194  0.00  0.00    +0.000 A 
ATOM      9  C   UNL     1       6.794   4.935  19.399  0.00  0.00    +0.000 A 
ATOM     10  C   UNL     1       5.449   5.309  19.471  0.00  0.00    +0.000 A 
ATOM     11  C   UNL     1       4.787   5.805  18.339  0.00  0.00    +0.000 A 
ATOM     12  C   UNL     1       3.295   6.164  18.382  0.00  0.00    +0.000 C 
ENDROOT
BRANCH  12  13
ATOM     13  C   UNL     1       2.380   4.905  18.073  0.00  0.00    +0.000 C 
ATOM     14  C   UNL     1       3.049   3.739  17.317  0.00  0.00    +0.000 C 
ATOM     15  C   UNL     1       3.918   2.836  18.193  0.00  0.00    +0.000 C 
ATOM     16  C   UNL     1       3.169   2.309  19.412  0.00  0.00    +0.000 C 
ATOM     17  C   UNL     1       2.406   3.394  20.158  0.00  0.00    +0.000 C 
ATOM     18  C   UNL     1       1.581   4.292  19.238  0.00  0.00    +0.000 C 
ENDBRANCH  12  13
BRANCH   2  19
ATOM     19  C   UNL     1       1.531   8.396  19.411  0.00  0.00    +0.000 C 
BRANCH  19  20
ATOM     20  N   UNL     1       1.047   9.729  19.777  0.00  0.00    +0.000 NA
ATOM     21  H   UNL     1       1.537  10.419  19.198  0.00  0.00    +0.000 HD
BRANCH  20  22
ATOM     22  C   UNL     1      -0.399   9.872  19.604  0.00  0.00    +0.000 C 
BRANCH  22  23
ATOM     23  C   UNL     1      -0.687  10.704  18.337  0.00  0.00    +0.000 C 
ATOM     24  C   UNL     1      -1.537   9.938  17.308  0.00  0.00    +0.000 C 
ATOM     25  C   UNL     1      -3.012   9.810  17.692  0.00  0.00    +0.000 C 
ATOM     26  C   UNL     1      -3.641  11.128  18.136  0.00  0.00    +0.000 C 
ATOM     27  C   UNL     1      -2.788  11.886  19.147  0.00  0.00    +0.000 C 
ATOM     28  C   UNL     1      -1.358  12.057  18.646  0.00  0.00    +0.000 C 
ENDBRANCH  22  23
ENDBRANCH  20  22
ENDBRANCH  19  20
ENDBRANCH   2  19
TORSDOF 5
ENDMDL
MODEL 7
REMARK VINA RESULT:      -7.5      4.391      7.272
REMARK  Name = 
REMARK  5 active torsions:
REMARK  status: ('A' for Active; 'I' for Inactive)
REMARK    1  A    between atoms: C_2  and  C_3
REMARK    2  A    between atoms: C_3  and  N_4
REMARK    3  A    between atoms: N_4  and  C_5
REMARK    4  A    between atoms: C_5  and  C_6
REMARK    5  A    between atoms: C_21  and  C_22
REMARK                            x       y       z     vdW  Elec       q    Type
REMARK                         _______ _______ _______ _____ _____    ______ ____
ROOT
ATOM      1  O   UNL     1       1.070   9.146  20.240  0.00  0.00    +0.000 OA
ATOM      2  C   UNL     1       1.688   8.517  19.366  0.00  0.00    +0.000 C 
ATOM      3  N   UNL     1       2.210   7.241  19.626  0.00  0.00    +0.000 N 
ATOM      4  C   UNL     1       1.739   6.646  20.888  0.00  0.00    +0.000 C 
ATOM      5  C   UNL     1       2.141   5.201  21.177  0.00  0.00    +0.000 C 
ATOM      6  C   UNL     1       1.962   4.359  19.949  0.00  0.00    +0.000 A 
ATOM      7  C   UNL     1       1.552   3.025  20.053  0.00  0.00    +0.000 A 
ATOM      8  C   UNL     1       1.297   2.285  18.900  0.00  0.00    +0.000 A 
ATOM      9  C   UNL     1       1.464   2.875  17.649  0.00  0.00    +0.000 A 
ATOM     10  C   UNL     1       1.937   4.187  17.542  0.00  0.00    +0.000 A 
ATOM     11  C   UNL     1       2.221   4.937  18.691  0.00  0.00    +0.000 A 
ATOM     12  C   UNL     1       2.797   6.357  18.595  0.00  0.00    +0.000 C 
ENDROOT
BRANCH  12  13
ATOM     13  C   UNL     1       4.381   6.342  18.501  0.00  0.00    +0.000 C 
ATOM     14  C   UNL     1       5.090   5.090  19.058  0.00  0.00    +0.000 C 
ATOM     15  C   UNL     1       5.067   3.883  18.119  0.00  0.00    +0.000 C 
ATOM     16  C   UNL     1       5.603   4.214  16.731  0.00  0.00    +0.000 C 
ATOM     17  C   UNL     1       5.013   5.493  16.154  0.00  0.00    +0.000 C 
ATOM     18  C   UNL     1       5.025   6.660  17.140  0.00  0.00    +0.000 C 
ENDBRANCH  12  13
BRANCH   2  19
ATOM     19  C   UNL     1       1.832   9.156  17.975  0.00  0.00    +0.000 C 
BRANCH  19  20
ATOM     20  N   UNL     1       0.869  10.251  17.840  0.00  0.00    +0.000 NA
ATOM     21  H   UNL     1       1.146  10.826  17.038  0.00  0.00    +0.000 HD
BRANCH  20  22
ATOM     22  C   UNL     1      -0.504   9.777  17.662  0.00  0.00    +0.000 C 
BRANCH  22  23
ATOM     23  C   UNL     1      -1.490  10.920  17.981  0.00  0.00    +0.000 C 
ATOM     24  C   UNL     1      -1.844  11.758  16.741  0.00  0.00    +0.000 C 
ATOM     25  C   UNL     1      -2.797  11.060  15.770  0.00  0.00    +0.000 C 
ATOM     26  C   UNL     1      -4.017  10.444  16.452  0.00  0.00    +0.000 C 
ATOM     27  C   UNL     1      -3.658   9.624  17.687  0.00  0.00    +0.000 C 
ATOM     28  C   UNL     1      -2.787  10.425  18.649  0.00  0.00    +0.000 C 
ENDBRANCH  22  23
ENDBRANCH  20  22
ENDBRANCH  19  20
ENDBRANCH   2  19
TORSDOF 5
ENDMDL
MODEL 8
REMARK VINA RESULT:      -7.4      4.055      6.894
REMARK  Name = 
REMARK  5 active torsions:
REMARK  status: ('A' for Active; 'I' for Inactive)
REMARK    1  A    between atoms: C_2  and  C_3
REMARK    2  A    between atoms: C_3  and  N_4
REMARK    3  A    between atoms: N_4  and  C_5
REMARK    4  A    between atoms: C_5  and  C_6
REMARK    5  A    between atoms: C_21  and  C_22
REMARK                            x       y       z     vdW  Elec       q    Type
REMARK                         _______ _______ _______ _____ _____    ______ ____
ROOT
ATOM      1  O   UNL     1       1.700   8.753  18.522  0.00  0.00    +0.000 OA
ATOM      2  C   UNL     1       2.107   7.701  19.041  0.00  0.00    +0.000 C 
ATOM      3  N   UNL     1       2.984   6.848  18.356  0.00  0.00    +0.000 N 
ATOM      4  C   UNL     1       3.555   7.434  17.131  0.00  0.00    +0.000 C 
ATOM      5  C   UNL     1       4.632   6.630  16.403  0.00  0.00    +0.000 C 
ATOM      6  C   UNL     1       5.620   6.079  17.389  0.00  0.00    +0.000 A 
ATOM      7  C   UNL     1       6.974   5.967  17.053  0.00  0.00    +0.000 A 
ATOM      8  C   UNL     1       7.893   5.544  18.011  0.00  0.00    +0.000 A 
ATOM      9  C   UNL     1       7.457   5.224  19.295  0.00  0.00    +0.000 A 
ATOM     10  C   UNL     1       6.097   5.274  19.613  0.00  0.00    +0.000 A 
ATOM     11  C   UNL     1       5.155   5.673  18.654  0.00  0.00    +0.000 A 
ATOM     12  C   UNL     1       3.652   5.677  18.966  0.00  0.00    +0.000 C 
ENDROOT
BRANCH  12  13
ATOM     13  C   UNL     1       2.991   4.263  18.680  0.00  0.00    +0.000 C 
ATOM     14  C   UNL     1       3.565   3.065  19.463  0.00  0.00    +0.000 C 
ATOM     15  C   UNL     1       3.066   2.957  20.904  0.00  0.00    +0.000 C 
ATOM     16  C   UNL     1       1.544   2.961  20.996  0.00  0.00    +0.000 C 
ATOM     17  C   UNL     1       0.900   4.065  20.170  0.00  0.00    +0.000 C 
ATOM     18  C   UNL     1       1.457   4.157  18.750  0.00  0.00    +0.000 C 
ENDBRANCH  12  13
BRANCH   2  19
ATOM     19  C   UNL     1       1.655   7.375  20.475  0.00  0.00    +0.000 C 
BRANCH  19  20
ATOM     20  N   UNL     1       1.554   8.616  21.246  0.00  0.00    +0.000 NA
ATOM     21  H   UNL     1       2.191   9.304  20.833  0.00  0.00    +0.000 HD
BRANCH  20  22
ATOM     22  C   UNL     1       0.194   9.153  21.277  0.00  0.00    +0.000 C 
BRANCH  22  23
ATOM     23  C   UNL     1       0.234  10.634  21.711  0.00  0.00    +0.000 C 
ATOM     24  C   UNL     1       1.265  11.453  20.916  0.00  0.00    +0.000 C 
ATOM     25  C   UNL     1       0.836  11.771  19.483  0.00  0.00    +0.000 C 
ATOM     26  C   UNL     1      -0.584  12.322  19.381  0.00  0.00    +0.000 C 
ATOM     27  C   UNL     1      -1.598  11.511  20.180  0.00  0.00    +0.000 C 
ATOM     28  C   UNL     1      -1.142  11.323  21.622  0.00  0.00    +0.000 C 
ENDBRANCH  22  23
ENDBRANCH  20  22
ENDBRANCH  19  20
ENDBRANCH   2  19
TORSDOF 5
ENDMDL
MODEL 9
REMARK VINA RESULT:      -7.4      4.305      6.691
REMARK  Name = 
REMARK  5 active torsions:
REMARK  status: ('A' for Active; 'I' for Inactive)
REMARK    1  A    between atoms: C_2  and  C_3
REMARK    2  A    between atoms: C_3  and  N_4
REMARK    3  A    between atoms: N_4  and  C_5
REMARK    4  A    between atoms: C_5  and  C_6
REMARK    5  A    between atoms: C_21  and  C_22
REMARK                            x       y       z     vdW  Elec       q    Type
REMARK                         _______ _______ _______ _____ _____    ______ ____
ROOT
ATOM      1  O   UNL     1       7.473   4.606  17.592  0.00  0.00    +0.000 OA
ATOM      2  C   UNL     1       6.372   4.837  17.066  0.00  0.00    +0.000 C 
ATOM      3  N   UNL     1       5.187   4.781  17.813  0.00  0.00    +0.000 N 
ATOM      4  C   UNL     1       5.400   4.693  19.268  0.00  0.00    +0.000 C 
ATOM      5  C   UNL     1       4.166   4.775  20.166  0.00  0.00    +0.000 C 
ATOM      6  C   UNL     1       3.262   5.880  19.701  0.00  0.00    +0.000 A 
ATOM      7  C   UNL     1       2.531   6.637  20.623  0.00  0.00    +0.000 A 
ATOM      8  C   UNL     1       1.772   7.720  20.184  0.00  0.00    +0.000 A 
ATOM      9  C   UNL     1       1.736   8.035  18.827  0.00  0.00    +0.000 A 
ATOM     10  C   UNL     1       2.414   7.240  17.898  0.00  0.00    +0.000 A 
ATOM     11  C   UNL     1       3.163   6.133  18.320  0.00  0.00    +0.000 A 
ATOM     12  C   UNL     1       3.865   5.213  17.310  0.00  0.00    +0.000 C 
ENDROOT
BRANCH  12  13
ATOM     13  C   UNL     1       2.899   4.065  16.794  0.00  0.00    +0.000 C 
ATOM     14  C   UNL     1       3.418   2.618  16.928  0.00  0.00    +0.000 C 
ATOM     15  C   UNL     1       3.292   2.031  18.334  0.00  0.00    +0.000 C 
ATOM     16  C   UNL     1       1.873   2.130  18.882  0.00  0.00    +0.000 C 
ATOM     17  C   UNL     1       1.259   3.511  18.701  0.00  0.00    +0.000 C 
ATOM     18  C   UNL     1       1.442   4.071  17.292  0.00  0.00    +0.000 C 
ENDBRANCH  12  13
BRANCH   2  19
ATOM     19  C   UNL     1       6.344   5.225  15.578  0.00  0.00    +0.000 C 
BRANCH  19  20
ATOM     20  N   UNL     1       6.794   4.090  14.770  0.00  0.00    +0.000 NA
ATOM     21  H   UNL     1       7.233   3.405  15.394  0.00  0.00    +0.000 HD
BRANCH  20  22
ATOM     22  C   UNL     1       5.704   3.457  14.027  0.00  0.00    +0.000 C 
BRANCH  22  23
ATOM     23  C   UNL     1       5.724   3.948  12.564  0.00  0.00    +0.000 C 
ATOM     24  C   UNL     1       7.142   3.968  11.967  0.00  0.00    +0.000 C 
ATOM     25  C   UNL     1       7.692   2.582  11.625  0.00  0.00    +0.000 C 
ATOM     26  C   UNL     1       6.713   1.718  10.832  0.00  0.00    +0.000 C 
ATOM     27  C   UNL     1       5.308   1.713  11.424  0.00  0.00    +0.000 C 
ATOM     28  C   UNL     1       4.795   3.132  11.644  0.00  0.00    +0.000 C 
ENDBRANCH  22  23
ENDBRANCH  20  22
ENDBRANCH  19  20
ENDBRANCH   2  19
TORSDOF 5
ENDMDL
