MODEL 1
REMARK VINA RESULT:      -7.2      0.000      0.000
REMARK  Name = 
REMARK  7 active torsions:
REMARK  status: ('A' for Active; 'I' for Inactive)
REMARK    1  A    between atoms: C_1  and  C_2
REMARK    2  A    between atoms: C_2  and  C_3
REMARK    3  A    between atoms: C_3  and  N_4
REMARK    4  A    between atoms: N_7  and  C_8
REMARK    5  A    between atoms: N_14  and  S_15
REMARK    6  A    between atoms: S_15  and  C_18
REMARK    7  A    between atoms: C_18  and  C_19
REMARK                            x       y       z     vdW  Elec       q    Type
REMARK                         _______ _______ _______ _____ _____    ______ ____
ROOT
ATOM      1  C   UNL     1       5.549   4.904  15.631  0.00  0.00    +0.000 A 
ATOM      2  C   UNL     1       5.376   6.297  15.738  0.00  0.00    +0.000 A 
ATOM      3  C   UNL     1       4.648   6.861  16.781  0.00  0.00    +0.000 A 
ATOM      4  C   UNL     1       4.083   6.013  17.711  0.00  0.00    +0.000 A 
ATOM      5  C   UNL     1       4.197   4.623  17.605  0.00  0.00    +0.000 A 
ATOM      6  C   UNL     1       4.903   4.055  16.551  0.00  0.00    +0.000 A 
ATOM      7  N   UNL     1       3.375   4.029  18.619  0.00  0.00    +0.000 N 
ATOM      8  C   UNL     1       3.105   5.093  19.634  0.00  0.00    +0.000 C 
ATOM      9  C   UNL     1       3.231   6.416  18.871  0.00  0.00    +0.000 C 
ENDROOT
BRANCH   1  13
ATOM     10  N   UNL     1       6.888   3.292  12.639  0.00  0.00    +0.000 N 
ATOM     11  C   UNL     1       5.877   3.804  13.430  0.00  0.00    +0.000 C 
ATOM     12  O   UNL     1       4.711   3.789  13.060  0.00  0.00    +0.000 OA
ATOM     13  N   UNL     1       6.357   4.334  14.614  0.00  0.00    +0.000 N 
ATOM     14  H   UNL     1       7.639   2.844  13.143  0.00  0.00    +0.000 HD
ATOM     15  H   UNL     1       7.339   4.573  14.619  0.00  0.00    +0.000 HD
BRANCH  10  16
ATOM     16  C   UNL     1       6.502   2.711  11.362  0.00  0.00    +0.000 C 
BRANCH  16  18
ATOM     17  C   UNL     1       6.139   0.206  11.221  0.00  0.00    +0.000 C 
ATOM     18  C   UNL     1       7.131   1.351  11.091  0.00  0.00    +0.000 C 
ENDBRANCH  16  18
ENDBRANCH  10  16
ENDBRANCH   1  13
BRANCH   7  19
ATOM     19  S   UNL     1       3.558   2.449  19.174  0.00  0.00    +0.000 S 
ATOM     20  O   UNL     1       3.552   1.532  18.053  0.00  0.00    +0.000 OA
ATOM     21  O   UNL     1       4.625   2.432  20.156  0.00  0.00    +0.000 OA
BRANCH  19  22
ATOM     22  C   UNL     1       1.998   2.245  20.033  0.00  0.00    +0.000 C 
ATOM     23  C   UNL     1       0.801   2.436  19.125  0.00  0.00    +0.000 C 
ENDBRANCH  19  22
ENDBRANCH   7  19
TORSDOF 5
ENDMDL
MODEL 2
REMARK VINA RESULT:      -7.0      0.861      1.017
REMARK  Name = 
REMARK  7 active torsions:
REMARK  status: ('A' for Active; 'I' for Inactive)
REMARK    1  A    between atoms: C_1  and  C_2
REMARK    2  A    between atoms: C_2  and  C_3
REMARK    3  A    between atoms: C_3  and  N_4
REMARK    4  A    between atoms: N_7  and  C_8
REMARK    5  A    between atoms: N_14  and  S_15
REMARK    6  A    between atoms: S_15  and  C_18
REMARK    7  A    between atoms: C_18  and  C_19
REMARK                            x       y       z     vdW  Elec       q    Type
REMARK                         _______ _______ _______ _____ _____    ______ ____
ROOT
ATOM      1  C   UNL     1       5.287   4.719  15.738  0.00  0.00    +0.000 A 
ATOM      2  C   UNL     1       5.348   6.120  15.861  0.00  0.00    +0.000 A 
ATOM      3  C   UNL     1       4.629   6.796  16.840  0.00  0.00    +0.000 A 
ATOM      4  C   UNL     1       3.836   6.055  17.691  0.00  0.00    +0.000 A 
ATOM      5  C   UNL     1       3.717   4.667  17.565  0.00  0.00    +0.000 A 
ATOM      6  C   UNL     1       4.415   3.990  16.571  0.00  0.00    +0.000 A 
ATOM      7  N   UNL     1       2.707   4.220  18.480  0.00  0.00    +0.000 N 
ATOM      8  C   UNL     1       2.526   5.308  19.488  0.00  0.00    +0.000 C 
ATOM      9  C   UNL     1       2.955   6.593  18.772  0.00  0.00    +0.000 C 
ENDROOT
BRANCH   1  13
ATOM     10  N   UNL     1       6.646   2.999  12.816  0.00  0.00    +0.000 N 
ATOM     11  C   UNL     1       5.680   3.706  13.507  0.00  0.00    +0.000 C 
ATOM     12  O   UNL     1       4.620   4.013  12.979  0.00  0.00    +0.000 OA
ATOM     13  N   UNL     1       6.081   4.022  14.792  0.00  0.00    +0.000 N 
ATOM     14  H   UNL     1       7.175   2.344  13.372  0.00  0.00    +0.000 HD
ATOM     15  H   UNL     1       7.078   4.000  14.955  0.00  0.00    +0.000 HD
BRANCH  10  16
ATOM     16  C   UNL     1       6.338   2.615  11.447  0.00  0.00    +0.000 C 
BRANCH  16  18
ATOM     17  C   UNL     1       6.148   0.091  11.302  0.00  0.00    +0.000 C 
ATOM     18  C   UNL     1       7.000   1.316  11.009  0.00  0.00    +0.000 C 
ENDBRANCH  16  18
ENDBRANCH  10  16
ENDBRANCH   1  13
BRANCH   7  19
ATOM     19  S   UNL     1       2.557   2.629  19.012  0.00  0.00    +0.000 S 
ATOM     20  O   UNL     1       1.201   2.167  18.802  0.00  0.00    +0.000 OA
ATOM     21  O   UNL     1       3.694   1.875  18.521  0.00  0.00    +0.000 OA
BRANCH  19  22
ATOM     22  C   UNL     1       2.764   2.876  20.776  0.00  0.00    +0.000 C 
ATOM     23  C   UNL     1       1.507   2.565  21.562  0.00  0.00    +0.000 C 
ENDBRANCH  19  22
ENDBRANCH   7  19
TORSDOF 5
ENDMDL
MODEL 3
REMARK VINA RESULT:      -7.0      3.944      8.407
REMARK  Name = 
REMARK  7 active torsions:
REMARK  status: ('A' for Active; 'I' for Inactive)
REMARK    1  A    between atoms: C_1  and  C_2
REMARK    2  A    between atoms: C_2  and  C_3
REMARK    3  A    between atoms: C_3  and  N_4
REMARK    4  A    between atoms: N_7  and  C_8
REMARK    5  A    between atoms: N_14  and  S_15
REMARK    6  A    between atoms: S_15  and  C_18
REMARK    7  A    between atoms: C_18  and  C_19
REMARK                            x       y       z     vdW  Elec       q    Type
REMARK                         _______ _______ _______ _____ _____    ______ ____
ROOT
ATOM      1  C   UNL     1       2.451   5.738  19.745  0.00  0.00    +0.000 A 
ATOM      2  C   UNL     1       1.526   4.857  19.154  0.00  0.00    +0.000 A 
ATOM      3  C   UNL     1       1.892   4.008  18.115  0.00  0.00    +0.000 A 
ATOM      4  C   UNL     1       3.194   4.059  17.663  0.00  0.00    +0.000 A 
ATOM      5  C   UNL     1       4.124   4.957  18.198  0.00  0.00    +0.000 A 
ATOM      6  C   UNL     1       3.756   5.824  19.219  0.00  0.00    +0.000 A 
ATOM      7  N   UNL     1       5.323   4.877  17.415  0.00  0.00    +0.000 N 
ATOM      8  C   UNL     1       5.263   3.586  16.663  0.00  0.00    +0.000 C 
ATOM      9  C   UNL     1       3.770   3.268  16.534  0.00  0.00    +0.000 C 
ENDROOT
BRANCH   1  13
ATOM     10  N   UNL     1       1.372   8.391  22.013  0.00  0.00    +0.000 N 
ATOM     11  C   UNL     1       1.599   7.833  20.769  0.00  0.00    +0.000 C 
ATOM     12  O   UNL     1       1.341   8.444  19.742  0.00  0.00    +0.000 OA
ATOM     13  N   UNL     1       2.099   6.546  20.857  0.00  0.00    +0.000 N 
ATOM     14  H   UNL     1       2.045   8.141  22.723  0.00  0.00    +0.000 HD
ATOM     15  H   UNL     1       1.938   6.074  21.736  0.00  0.00    +0.000 HD
BRANCH  10  16
ATOM     16  C   UNL     1       0.839   9.744  22.047  0.00  0.00    +0.000 C 
BRANCH  16  18
ATOM     17  C   UNL     1      -1.023  11.268  22.843  0.00  0.00    +0.000 C 
ATOM     18  C   UNL     1      -0.348   9.914  22.985  0.00  0.00    +0.000 C 
ENDBRANCH  16  18
ENDBRANCH  10  16
ENDBRANCH   1  13
BRANCH   7  19
ATOM     19  S   UNL     1       6.833   5.400  17.948  0.00  0.00    +0.000 S 
ATOM     20  O   UNL     1       6.879   5.371  19.396  0.00  0.00    +0.000 OA
ATOM     21  O   UNL     1       7.850   4.746  17.149  0.00  0.00    +0.000 OA
BRANCH  19  22
ATOM     22  C   UNL     1       6.750   7.123  17.457  0.00  0.00    +0.000 C 
ATOM     23  C   UNL     1       7.985   7.904  17.856  0.00  0.00    +0.000 C 
ENDBRANCH  19  22
ENDBRANCH   7  19
TORSDOF 5
ENDMDL
MODEL 4
REMARK VINA RESULT:      -7.0      3.814      8.277
REMARK  Name = 
REMARK  7 active torsions:
REMARK  status: ('A' for Active; 'I' for Inactive)
REMARK    1  A    between atoms: C_1  and  C_2
REMARK    2  A    between atoms: C_2  and  C_3
REMARK    3  A    between atoms: C_3  and  N_4
REMARK    4  A    between atoms: N_7  and  C_8
REMARK    5  A    between atoms: N_14  and  S_15
REMARK    6  A    between atoms: S_15  and  C_18
REMARK    7  A    between atoms: C_18  and  C_19
REMARK                            x       y       z     vdW  Elec       q    Type
REMARK                         _______ _______ _______ _____ _____    ______ ____
ROOT
ATOM      1  C   UNL     1       1.903   5.757  20.375  0.00  0.00    +0.000 A 
ATOM      2  C   UNL     1       0.975   4.699  20.425  0.00  0.00    +0.000 A 
ATOM      3  C   UNL     1       1.151   3.542  19.674  0.00  0.00    +0.000 A 
ATOM      4  C   UNL     1       2.263   3.458  18.862  0.00  0.00    +0.000 A 
ATOM      5  C   UNL     1       3.177   4.511  18.755  0.00  0.00    +0.000 A 
ATOM      6  C   UNL     1       2.992   5.680  19.485  0.00  0.00    +0.000 A 
ATOM      7  N   UNL     1       4.118   4.183  17.723  0.00  0.00    +0.000 N 
ATOM      8  C   UNL     1       4.024   2.707  17.506  0.00  0.00    +0.000 C 
ATOM      9  C   UNL     1       2.607   2.327  17.948  0.00  0.00    +0.000 C 
ENDROOT
BRANCH   1  13
ATOM     10  N   UNL     1       1.390   9.095  21.768  0.00  0.00    +0.000 N 
ATOM     11  C   UNL     1       1.423   8.164  20.747  0.00  0.00    +0.000 C 
ATOM     12  O   UNL     1       1.144   8.472  19.596  0.00  0.00    +0.000 OA
ATOM     13  N   UNL     1       1.765   6.903  21.200  0.00  0.00    +0.000 N 
ATOM     14  H   UNL     1       2.093   8.972  22.482  0.00  0.00    +0.000 HD
ATOM     15  H   UNL     1       1.632   6.745  22.190  0.00  0.00    +0.000 HD
BRANCH  10  16
ATOM     16  C   UNL     1       1.036  10.460  21.410  0.00  0.00    +0.000 C 
BRANCH  16  18
ATOM     17  C   UNL     1      -0.760  10.102  23.162  0.00  0.00    +0.000 C 
ATOM     18  C   UNL     1      -0.314  10.907  21.953  0.00  0.00    +0.000 C 
ENDBRANCH  16  18
ENDBRANCH  10  16
ENDBRANCH   1  13
BRANCH   7  19
ATOM     19  S   UNL     1       5.633   4.901  17.567  0.00  0.00    +0.000 S 
ATOM     20  O   UNL     1       5.482   6.311  17.276  0.00  0.00    +0.000 OA
ATOM     21  O   UNL     1       6.468   4.443  18.661  0.00  0.00    +0.000 OA
BRANCH  19  22
ATOM     22  C   UNL     1       6.194   4.107  16.060  0.00  0.00    +0.000 C 
ATOM     23  C   UNL     1       5.796   4.872  14.814  0.00  0.00    +0.000 C 
ENDBRANCH  19  22
ENDBRANCH   7  19
TORSDOF 5
ENDMDL
MODEL 5
REMARK VINA RESULT:      -6.9      1.674      2.354
REMARK  Name = 
REMARK  7 active torsions:
REMARK  status: ('A' for Active; 'I' for Inactive)
REMARK    1  A    between atoms: C_1  and  C_2
REMARK    2  A    between atoms: C_2  and  C_3
REMARK    3  A    between atoms: C_3  and  N_4
REMARK    4  A    between atoms: N_7  and  C_8
REMARK    5  A    between atoms: N_14  and  S_15
REMARK    6  A    between atoms: S_15  and  C_18
REMARK    7  A    between atoms: C_18  and  C_19
REMARK                            x       y       z     vdW  Elec       q    Type
REMARK                         _______ _______ _______ _____ _____    ______ ____
ROOT
ATOM      1  C   UNL     1       4.199   6.333  17.133  0.00  0.00    +0.000 A 
ATOM      2  C   UNL     1       3.528   7.527  17.459  0.00  0.00    +0.000 A 
ATOM      3  C   UNL     1       2.703   7.616  18.575  0.00  0.00    +0.000 A 
ATOM      4  C   UNL     1       2.545   6.491  19.357  0.00  0.00    +0.000 A 
ATOM      5  C   UNL     1       3.161   5.277  19.033  0.00  0.00    +0.000 A 
ATOM      6  C   UNL     1       3.967   5.178  17.905  0.00  0.00    +0.000 A 
ATOM      7  N   UNL     1       2.676   4.276  19.938  0.00  0.00    +0.000 N 
ATOM      8  C   UNL     1       2.088   4.998  21.107  0.00  0.00    +0.000 C 
ATOM      9  C   UNL     1       1.672   6.369  20.563  0.00  0.00    +0.000 C 
ENDROOT
BRANCH   1  13
ATOM     10  N   UNL     1       6.461   5.326  14.448  0.00  0.00    +0.000 N 
ATOM     11  C   UNL     1       5.570   5.091  15.478  0.00  0.00    +0.000 C 
ATOM     12  O   UNL     1       5.248   3.954  15.793  0.00  0.00    +0.000 OA
ATOM     13  N   UNL     1       5.102   6.265  16.042  0.00  0.00    +0.000 N 
ATOM     14  H   UNL     1       7.072   6.118  14.583  0.00  0.00    +0.000 HD
ATOM     15  H   UNL     1       5.194   7.091  15.467  0.00  0.00    +0.000 HD
BRANCH  10  16
ATOM     16  C   UNL     1       7.018   4.163  13.773  0.00  0.00    +0.000 C 
BRANCH  16  18
ATOM     17  C   UNL     1       5.319   3.302  12.100  0.00  0.00    +0.000 C 
ATOM     18  C   UNL     1       6.623   4.055  12.307  0.00  0.00    +0.000 C 
ENDBRANCH  16  18
ENDBRANCH  10  16
ENDBRANCH   1  13
BRANCH   7  19
ATOM     19  S   UNL     1       3.462   2.816  20.236  0.00  0.00    +0.000 S 
ATOM     20  O   UNL     1       4.847   2.912  19.825  0.00  0.00    +0.000 OA
ATOM     21  O   UNL     1       3.100   2.368  21.567  0.00  0.00    +0.000 OA
BRANCH  19  22
ATOM     22  C   UNL     1       2.627   1.770  19.042  0.00  0.00    +0.000 C 
ATOM     23  C   UNL     1       1.198   2.202  18.785  0.00  0.00    +0.000 C 
ENDBRANCH  19  22
ENDBRANCH   7  19
TORSDOF 5
ENDMDL
MODEL 6
REMARK VINA RESULT:      -6.9      4.021      8.251
REMARK  Name = 
REMARK  7 active torsions:
REMARK  status: ('A' for Active; 'I' for Inactive)
REMARK    1  A    between atoms: C_1  and  C_2
REMARK    2  A    between atoms: C_2  and  C_3
REMARK    3  A    between atoms: C_3  and  N_4
REMARK    4  A    between atoms: N_7  and  C_8
REMARK    5  A    between atoms: N_14  and  S_15
REMARK    6  A    between atoms: S_15  and  C_18
REMARK    7  A    between atoms: C_18  and  C_19
REMARK                            x       y       z     vdW  Elec       q    Type
REMARK                         _______ _______ _______ _____ _____    ______ ____
ROOT
ATOM      1  C   UNL     1       2.727   5.753  19.434  0.00  0.00    +0.000 A 
ATOM      2  C   UNL     1       1.908   4.677  19.042  0.00  0.00    +0.000 A 
ATOM      3  C   UNL     1       2.258   3.845  17.983  0.00  0.00    +0.000 A 
ATOM      4  C   UNL     1       3.433   4.109  17.312  0.00  0.00    +0.000 A 
ATOM      5  C   UNL     1       4.244   5.199  17.647  0.00  0.00    +0.000 A 
ATOM      6  C   UNL     1       3.885   6.047  18.688  0.00  0.00    +0.000 A 
ATOM      7  N   UNL     1       5.291   5.293  16.671  0.00  0.00    +0.000 N 
ATOM      8  C   UNL     1       5.363   3.967  15.985  0.00  0.00    +0.000 C 
ATOM      9  C   UNL     1       3.960   3.367  16.127  0.00  0.00    +0.000 C 
ENDROOT
BRANCH   1  13
ATOM     10  N   UNL     1       1.640   8.355  21.756  0.00  0.00    +0.000 N 
ATOM     11  C   UNL     1       1.800   7.792  20.503  0.00  0.00    +0.000 C 
ATOM     12  O   UNL     1       1.402   8.360  19.496  0.00  0.00    +0.000 OA
ATOM     13  N   UNL     1       2.410   6.552  20.562  0.00  0.00    +0.000 N 
ATOM     14  H   UNL     1       2.392   8.175  22.405  0.00  0.00    +0.000 HD
ATOM     15  H   UNL     1       2.367   6.087  21.458  0.00  0.00    +0.000 HD
BRANCH  10  16
ATOM     16  C   UNL     1       1.003   9.662  21.820  0.00  0.00    +0.000 C 
BRANCH  16  18
ATOM     17  C   UNL     1      -0.875  11.076  22.768  0.00  0.00    +0.000 C 
ATOM     18  C   UNL     1      -0.215   9.707  22.733  0.00  0.00    +0.000 C 
ENDBRANCH  16  18
ENDBRANCH  10  16
ENDBRANCH   1  13
BRANCH   7  19
ATOM     19  S   UNL     1       6.735   6.123  16.918  0.00  0.00    +0.000 S 
ATOM     20  O   UNL     1       7.568   6.022  15.737  0.00  0.00    +0.000 OA
ATOM     21  O   UNL     1       6.426   7.410  17.512  0.00  0.00    +0.000 OA
BRANCH  19  22
ATOM     22  C   UNL     1       7.475   5.083  18.178  0.00  0.00    +0.000 C 
ATOM     23  C   UNL     1       7.866   5.858  19.419  0.00  0.00    +0.000 C 
ENDBRANCH  19  22
ENDBRANCH   7  19
TORSDOF 5
ENDMDL
MODEL 7
REMARK VINA RESULT:      -6.8      4.683      6.995
REMARK  Name = 
REMARK  7 active torsions:
REMARK  status: ('A' for Active; 'I' for Inactive)
REMARK    1  A    between atoms: C_1  and  C_2
REMARK    2  A    between atoms: C_2  and  C_3
REMARK    3  A    between atoms: C_3  and  N_4
REMARK    4  A    between atoms: N_7  and  C_8
REMARK    5  A    between atoms: N_14  and  S_15
REMARK    6  A    between atoms: S_15  and  C_18
REMARK    7  A    between atoms: C_18  and  C_19
REMARK                            x       y       z     vdW  Elec       q    Type
REMARK                         _______ _______ _______ _____ _____    ______ ____
ROOT
ATOM      1  C   UNL     1       2.970   7.371  17.918  0.00  0.00    +0.000 A 
ATOM      2  C   UNL     1       4.223   7.250  17.288  0.00  0.00    +0.000 A 
ATOM      3  C   UNL     1       5.070   6.179  17.553  0.00  0.00    +0.000 A 
ATOM      4  C   UNL     1       4.653   5.233  18.467  0.00  0.00    +0.000 A 
ATOM      5  C   UNL     1       3.435   5.351  19.145  0.00  0.00    +0.000 A 
ATOM      6  C   UNL     1       2.597   6.433  18.901  0.00  0.00    +0.000 A 
ATOM      7  N   UNL     1       3.370   4.311  20.130  0.00  0.00    +0.000 N 
ATOM      8  C   UNL     1       4.381   3.281  19.738  0.00  0.00    +0.000 C 
ATOM      9  C   UNL     1       5.431   4.041  18.921  0.00  0.00    +0.000 C 
ENDROOT
BRANCH   1  13
ATOM     10  N   UNL     1       0.550  10.108  17.905  0.00  0.00    +0.000 N 
ATOM     11  C   UNL     1       1.371   9.175  18.511  0.00  0.00    +0.000 C 
ATOM     12  O   UNL     1       1.449   9.093  19.729  0.00  0.00    +0.000 OA
ATOM     13  N   UNL     1       2.073   8.420  17.589  0.00  0.00    +0.000 N 
ATOM     14  H   UNL     1       0.117   9.802  17.046  0.00  0.00    +0.000 HD
ATOM     15  H   UNL     1       2.156   8.825  16.667  0.00  0.00    +0.000 HD
BRANCH  10  16
ATOM     16  C   UNL     1      -0.236  10.966  18.778  0.00  0.00    +0.000 C 
BRANCH  16  18
ATOM     17  C   UNL     1      -2.196  10.125  17.408  0.00  0.00    +0.000 C 
ATOM     18  C   UNL     1      -1.729  10.672  18.747  0.00  0.00    +0.000 C 
ENDBRANCH  16  18
ENDBRANCH  10  16
ENDBRANCH   1  13
BRANCH   7  19
ATOM     19  S   UNL     1       1.940   3.772  20.837  0.00  0.00    +0.000 S 
ATOM     20  O   UNL     1       2.193   3.358  22.202  0.00  0.00    +0.000 OA
ATOM     21  O   UNL     1       0.890   4.720  20.520  0.00  0.00    +0.000 OA
BRANCH  19  22
ATOM     22  C   UNL     1       1.666   2.283  19.876  0.00  0.00    +0.000 C 
ATOM     23  C   UNL     1       0.818   2.531  18.645  0.00  0.00    +0.000 C 
ENDBRANCH  19  22
ENDBRANCH   7  19
TORSDOF 5
ENDMDL
MODEL 8
REMARK VINA RESULT:      -6.7      3.833      6.046
REMARK  Name = 
REMARK  7 active torsions:
REMARK  status: ('A' for Active; 'I' for Inactive)
REMARK    1  A    between atoms: C_1  and  C_2
REMARK    2  A    between atoms: C_2  and  C_3
REMARK    3  A    between atoms: C_3  and  N_4
REMARK    4  A    between atoms: N_7  and  C_8
REMARK    5  A    between atoms: N_14  and  S_15
REMARK    6  A    between atoms: S_15  and  C_18
REMARK    7  A    between atoms: C_18  and  C_19
REMARK                            x       y       z     vdW  Elec       q    Type
REMARK                         _______ _______ _______ _____ _____    ______ ____
ROOT
ATOM      1  C   UNL     1       6.238   6.374  16.915  0.00  0.00    +0.000 A 
ATOM      2  C   UNL     1       6.705   5.407  16.004  0.00  0.00    +0.000 A 
ATOM      3  C   UNL     1       6.080   4.172  15.871  0.00  0.00    +0.000 A 
ATOM      4  C   UNL     1       4.987   3.908  16.670  0.00  0.00    +0.000 A 
ATOM      5  C   UNL     1       4.529   4.829  17.618  0.00  0.00    +0.000 A 
ATOM      6  C   UNL     1       5.166   6.055  17.771  0.00  0.00    +0.000 A 
ATOM      7  N   UNL     1       3.495   4.201  18.388  0.00  0.00    +0.000 N 
ATOM      8  C   UNL     1       3.021   3.024  17.596  0.00  0.00    +0.000 C 
ATOM      9  C   UNL     1       4.210   2.633  16.712  0.00  0.00    +0.000 C 
ENDROOT
BRANCH   1  13
ATOM     10  N   UNL     1       8.161   9.358  17.776  0.00  0.00    +0.000 N 
ATOM     11  C   UNL     1       7.791   8.033  17.912  0.00  0.00    +0.000 C 
ATOM     12  O   UNL     1       8.315   7.311  18.749  0.00  0.00    +0.000 OA
ATOM     13  N   UNL     1       6.826   7.663  16.994  0.00  0.00    +0.000 N 
ATOM     14  H   UNL     1       7.412   9.987  17.525  0.00  0.00    +0.000 HD
ATOM     15  H   UNL     1       6.750   8.254  16.178  0.00  0.00    +0.000 HD
BRANCH  10  16
ATOM     16  C   UNL     1       9.178   9.861  18.687  0.00  0.00    +0.000 C 
BRANCH  16  18
ATOM     17  C   UNL     1      10.739  11.642  17.782  0.00  0.00    +0.000 C 
ATOM     18  C   UNL     1       9.453  11.351  18.538  0.00  0.00    +0.000 C 
ENDBRANCH  16  18
ENDBRANCH  10  16
ENDBRANCH   1  13
BRANCH   7  19
ATOM     19  S   UNL     1       2.352   5.043  19.294  0.00  0.00    +0.000 S 
ATOM     20  O   UNL     1       2.896   5.361  20.598  0.00  0.00    +0.000 OA
ATOM     21  O   UNL     1       1.768   6.068  18.452  0.00  0.00    +0.000 OA
BRANCH  19  22
ATOM     22  C   UNL     1       1.135   3.747  19.531  0.00  0.00    +0.000 C 
ATOM     23  C   UNL     1       1.230   3.099  20.897  0.00  0.00    +0.000 C 
ENDBRANCH  19  22
ENDBRANCH   7  19
TORSDOF 5
ENDMDL
MODEL 9
REMARK VINA RESULT:      -6.7      3.815      8.356
REMARK  Name = 
REMARK  7 active torsions:
REMARK  status: ('A' for Active; 'I' for Inactive)
REMARK    1  A    between atoms: C_1  and  C_2
REMARK    2  A    between atoms: C_2  and  C_3
REMARK    3  A    between atoms: C_3  and  N_4
REMARK    4  A    between atoms: N_7  and  C_8
REMARK    5  A    between atoms: N_14  and  S_15
REMARK    6  A    between atoms: S_15  and  C_18
REMARK    7  A    between atoms: C_18  and  C_19
REMARK                            x       y       z     vdW  Elec       q    Type
REMARK                         _______ _______ _______ _____ _____    ______ ____
ROOT
ATOM      1  C   UNL     1       1.963   5.556  20.399  0.00  0.00    +0.000 A 
ATOM      2  C   UNL     1       0.997   4.543  20.247  0.00  0.00    +0.000 A 
ATOM      3  C   UNL     1       1.208   3.458  19.403  0.00  0.00    +0.000 A 
ATOM      4  C   UNL     1       2.393   3.403  18.700  0.00  0.00    +0.000 A 
ATOM      5  C   UNL     1       3.352   4.418  18.792  0.00  0.00    +0.000 A 
ATOM      6  C   UNL     1       3.135   5.516  19.616  0.00  0.00    +0.000 A 
ATOM      7  N   UNL     1       4.380   4.150  17.830  0.00  0.00    +0.000 N 
ATOM      8  C   UNL     1       4.256   2.708  17.455  0.00  0.00    +0.000 C 
ATOM      9  C   UNL     1       2.788   2.352  17.714  0.00  0.00    +0.000 C 
ENDROOT
BRANCH   1  13
ATOM     10  N   UNL     1       1.349   8.745  22.071  0.00  0.00    +0.000 N 
ATOM     11  C   UNL     1       1.423   7.910  20.972  0.00  0.00    +0.000 C 
ATOM     12  O   UNL     1       1.160   8.314  19.848  0.00  0.00    +0.000 OA
ATOM     13  N   UNL     1       1.783   6.620  21.319  0.00  0.00    +0.000 N 
ATOM     14  H   UNL     1       2.039   8.573  22.786  0.00  0.00    +0.000 HD
ATOM     15  H   UNL     1       1.634   6.372  22.287  0.00  0.00    +0.000 HD
BRANCH  10  16
ATOM     16  C   UNL     1       0.972  10.129  21.829  0.00  0.00    +0.000 C 
BRANCH  16  18
ATOM     17  C   UNL     1      -0.765  11.949  22.141  0.00  0.00    +0.000 C 
ATOM     18  C   UNL     1      -0.328  10.540  22.507  0.00  0.00    +0.000 C 
ENDBRANCH  16  18
ENDBRANCH  10  16
ENDBRANCH   1  13
BRANCH   7  19
ATOM     19  S   UNL     1       5.929   4.807  17.899  0.00  0.00    +0.000 S 
ATOM     20  O   UNL     1       6.382   4.855  19.274  0.00  0.00    +0.000 OA
ATOM     21  O   UNL     1       6.733   4.189  16.862  0.00  0.00    +0.000 OA
BRANCH  19  22
ATOM     22  C   UNL     1       5.568   6.492  17.402  0.00  0.00    +0.000 C 
ATOM     23  C   UNL     1       5.076   6.587  15.972  0.00  0.00    +0.000 C 
ENDBRANCH  19  22
ENDBRANCH   7  19
TORSDOF 5
ENDMDL
