MODEL 1
REMARK VINA RESULT:      -7.5      0.000      0.000
REMARK  Name = 
REMARK  4 active torsions:
REMARK  status: ('A' for Active; 'I' for Inactive)
REMARK    1  A    between atoms: C_1  and  O_2
REMARK    2  A    between atoms: O_2  and  C_3
REMARK    3  A    between atoms: C_6  and  N_7
REMARK    4  A    between atoms: C_10  and  C_11
REMARK                            x       y       z     vdW  Elec       q    Type
REMARK                         _______ _______ _______ _____ _____    ______ ____
ROOT
ATOM      1  N   UNL     1       1.947   7.485  20.938  0.00  0.00    +0.000 N 
ATOM      2  C   UNL     1       1.203   8.691  20.795  0.00  0.00    +0.000 A 
ATOM      3  C   UNL     1       1.088   9.456  21.946  0.00  0.00    +0.000 A 
ATOM      4  C   UNL     1       0.042  10.365  22.006  0.00  0.00    +0.000 A 
ATOM      5  C   UNL     1      -0.884  10.278  23.197  0.00  0.00    +0.000 C 
ATOM      6  C   UNL     1      -0.447  10.910  20.818  0.00  0.00    +0.000 A 
ATOM      7  C   UNL     1      -1.190  12.110  20.785  0.00  0.00    +0.000 A 
ATOM      8  C   UNL     1      -1.678  12.600  19.580  0.00  0.00    +0.000 A 
ATOM      9  C   UNL     1      -1.469  11.861  18.421  0.00  0.00    +0.000 A 
ATOM     10  C   UNL     1      -0.739  10.664  18.469  0.00  0.00    +0.000 A 
ATOM     11  C   UNL     1      -0.177  10.185  19.647  0.00  0.00    +0.000 A 
ATOM     12  N   UNL     1       0.560   9.048  19.660  0.00  0.00    +0.000 NA
ATOM     13  H   UNL     1       1.862   7.174  21.905  0.00  0.00    +0.000 HD
ENDROOT
BRANCH   1  17
ATOM     14  C   UNL     1       1.940   4.002  18.511  0.00  0.00    +0.000 A 
ATOM     15  C   UNL     1       2.558   5.167  18.069  0.00  0.00    +0.000 A 
ATOM     16  C   UNL     1       2.590   6.315  18.861  0.00  0.00    +0.000 A 
ATOM     17  C   UNL     1       1.949   6.352  20.103  0.00  0.00    +0.000 A 
ATOM     18  C   UNL     1       1.365   5.157  20.552  0.00  0.00    +0.000 A 
ATOM     19  C   UNL     1       1.341   3.989  19.767  0.00  0.00    +0.000 A 
BRANCH  14  21
ATOM     20  C   UNL     1       2.957   1.991  17.772  0.00  0.00    +0.000 C 
ATOM     21  O   UNL     1       1.949   2.979  17.606  0.00  0.00    +0.000 OA
ENDBRANCH  14  21
ENDBRANCH   1  17
TORSDOF 2
ENDMDL
MODEL 2
REMARK VINA RESULT:      -7.4      0.165      1.080
REMARK  Name = 
REMARK  4 active torsions:
REMARK  status: ('A' for Active; 'I' for Inactive)
REMARK    1  A    between atoms: C_1  and  O_2
REMARK    2  A    between atoms: O_2  and  C_3
REMARK    3  A    between atoms: C_6  and  N_7
REMARK    4  A    between atoms: C_10  and  C_11
REMARK                            x       y       z     vdW  Elec       q    Type
REMARK                         _______ _______ _______ _____ _____    ______ ____
ROOT
ATOM      1  N   UNL     1       2.014   7.452  20.944  0.00  0.00    +0.000 N 
ATOM      2  C   UNL     1       1.272   8.660  20.813  0.00  0.00    +0.000 A 
ATOM      3  C   UNL     1       1.132   9.399  21.978  0.00  0.00    +0.000 A 
ATOM      4  C   UNL     1       0.083  10.306  22.035  0.00  0.00    +0.000 A 
ATOM      5  C   UNL     1      -0.869  10.191  23.203  0.00  0.00    +0.000 C 
ATOM      6  C   UNL     1      -0.380  10.877  20.850  0.00  0.00    +0.000 A 
ATOM      7  C   UNL     1      -1.124  12.077  20.827  0.00  0.00    +0.000 A 
ATOM      8  C   UNL     1      -1.585  12.595  19.623  0.00  0.00    +0.000 A 
ATOM      9  C   UNL     1      -1.349  11.882  18.452  0.00  0.00    +0.000 A 
ATOM     10  C   UNL     1      -0.619  10.684  18.490  0.00  0.00    +0.000 A 
ATOM     11  C   UNL     1      -0.083  10.179  19.668  0.00  0.00    +0.000 A 
ATOM     12  N   UNL     1       0.654   9.043  19.673  0.00  0.00    +0.000 NA
ATOM     13  H   UNL     1       1.909   7.119  21.902  0.00  0.00    +0.000 HD
ENDROOT
BRANCH   1  17
ATOM     14  C   UNL     1       2.090   4.161  18.264  0.00  0.00    +0.000 A 
ATOM     15  C   UNL     1       1.518   4.029  19.525  0.00  0.00    +0.000 A 
ATOM     16  C   UNL     1       1.463   5.106  20.412  0.00  0.00    +0.000 A 
ATOM     17  C   UNL     1       2.037   6.338  20.085  0.00  0.00    +0.000 A 
ATOM     18  C   UNL     1       2.574   6.466  18.794  0.00  0.00    +0.000 A 
ATOM     19  C   UNL     1       2.619   5.391  17.887  0.00  0.00    +0.000 A 
BRANCH  14  21
ATOM     20  C   UNL     1       2.961   1.971  17.997  0.00  0.00    +0.000 C 
ATOM     21  O   UNL     1       2.111   3.010  17.530  0.00  0.00    +0.000 OA
ENDBRANCH  14  21
ENDBRANCH   1  17
TORSDOF 2
ENDMDL
MODEL 3
REMARK VINA RESULT:      -7.3      3.862      5.537
REMARK  Name = 
REMARK  4 active torsions:
REMARK  status: ('A' for Active; 'I' for Inactive)
REMARK    1  A    between atoms: C_1  and  O_2
REMARK    2  A    between atoms: O_2  and  C_3
REMARK    3  A    between atoms: C_6  and  N_7
REMARK    4  A    between atoms: C_10  and  C_11
REMARK                            x       y       z     vdW  Elec       q    Type
REMARK                         _______ _______ _______ _____ _____    ______ ____
ROOT
ATOM      1  N   UNL     1       5.321   4.749  17.891  0.00  0.00    +0.000 N 
ATOM      2  C   UNL     1       4.384   5.670  18.441  0.00  0.00    +0.000 A 
ATOM      3  C   UNL     1       3.934   5.366  19.717  0.00  0.00    +0.000 A 
ATOM      4  C   UNL     1       2.732   5.930  20.120  0.00  0.00    +0.000 A 
ATOM      5  C   UNL     1       1.661   4.990  20.624  0.00  0.00    +0.000 C 
ATOM      6  C   UNL     1       2.343   7.153  19.573  0.00  0.00    +0.000 A 
ATOM      7  C   UNL     1       1.391   7.992  20.192  0.00  0.00    +0.000 A 
ATOM      8  C   UNL     1       1.017   9.190  19.596  0.00  0.00    +0.000 A 
ATOM      9  C   UNL     1       1.555   9.519  18.357  0.00  0.00    +0.000 A 
ATOM     10  C   UNL     1       2.491   8.671  17.746  0.00  0.00    +0.000 A 
ATOM     11  C   UNL     1       2.939   7.502  18.350  0.00  0.00    +0.000 A 
ATOM     12  N   UNL     1       3.876   6.722  17.760  0.00  0.00    +0.000 NA
ATOM     13  H   UNL     1       5.144   3.834  18.305  0.00  0.00    +0.000 HD
ENDROOT
BRANCH   1  17
ATOM     14  C   UNL     1       6.490   4.284  13.837  0.00  0.00    +0.000 A 
ATOM     15  C   UNL     1       5.250   3.825  14.269  0.00  0.00    +0.000 A 
ATOM     16  C   UNL     1       4.839   3.989  15.593  0.00  0.00    +0.000 A 
ATOM     17  C   UNL     1       5.685   4.566  16.544  0.00  0.00    +0.000 A 
ATOM     18  C   UNL     1       6.916   5.060  16.084  0.00  0.00    +0.000 A 
ATOM     19  C   UNL     1       7.333   4.914  14.748  0.00  0.00    +0.000 A 
BRANCH  14  21
ATOM     20  C   UNL     1       6.074   2.917  11.944  0.00  0.00    +0.000 C 
ATOM     21  O   UNL     1       6.769   4.010  12.529  0.00  0.00    +0.000 OA
ENDBRANCH  14  21
ENDBRANCH   1  17
TORSDOF 2
ENDMDL
MODEL 4
REMARK VINA RESULT:      -7.1      2.319      3.456
REMARK  Name = 
REMARK  4 active torsions:
REMARK  status: ('A' for Active; 'I' for Inactive)
REMARK    1  A    between atoms: C_1  and  O_2
REMARK    2  A    between atoms: O_2  and  C_3
REMARK    3  A    between atoms: C_6  and  N_7
REMARK    4  A    between atoms: C_10  and  C_11
REMARK                            x       y       z     vdW  Elec       q    Type
REMARK                         _______ _______ _______ _____ _____    ______ ____
ROOT
ATOM      1  N   UNL     1       2.283   8.006  17.783  0.00  0.00    +0.000 N 
ATOM      2  C   UNL     1       1.523   8.723  18.751  0.00  0.00    +0.000 A 
ATOM      3  C   UNL     1       0.843   9.831  18.268  0.00  0.00    +0.000 A 
ATOM      4  C   UNL     1       0.473  10.802  19.187  0.00  0.00    +0.000 A 
ATOM      5  C   UNL     1       0.911  12.222  18.907  0.00  0.00    +0.000 C 
ATOM      6  C   UNL     1       0.235  10.425  20.508  0.00  0.00    +0.000 A 
ATOM      7  C   UNL     1      -0.524  11.218  21.397  0.00  0.00    +0.000 A 
ATOM      8  C   UNL     1      -0.713  10.812  22.713  0.00  0.00    +0.000 A 
ATOM      9  C   UNL     1      -0.097   9.644  23.150  0.00  0.00    +0.000 A 
ATOM     10  C   UNL     1       0.665   8.872  22.259  0.00  0.00    +0.000 A 
ATOM     11  C   UNL     1       0.813   9.214  20.921  0.00  0.00    +0.000 A 
ATOM     12  N   UNL     1       1.518   8.430  20.071  0.00  0.00    +0.000 NA
ATOM     13  H   UNL     1       2.566   8.661  17.055  0.00  0.00    +0.000 HD
ENDROOT
BRANCH   1  17
ATOM     14  C   UNL     1       5.418   5.241  18.524  0.00  0.00    +0.000 A 
ATOM     15  C   UNL     1       5.503   6.134  17.461  0.00  0.00    +0.000 A 
ATOM     16  C   UNL     1       4.494   7.066  17.215  0.00  0.00    +0.000 A 
ATOM     17  C   UNL     1       3.332   7.092  17.993  0.00  0.00    +0.000 A 
ATOM     18  C   UNL     1       3.279   6.212  19.085  0.00  0.00    +0.000 A 
ATOM     19  C   UNL     1       4.300   5.280  19.351  0.00  0.00    +0.000 A 
BRANCH  14  21
ATOM     20  C   UNL     1       7.595   4.640  17.801  0.00  0.00    +0.000 C 
ATOM     21  O   UNL     1       6.459   4.361  18.608  0.00  0.00    +0.000 OA
ENDBRANCH  14  21
ENDBRANCH   1  17
TORSDOF 2
ENDMDL
MODEL 5
REMARK VINA RESULT:      -7.1      2.340      3.639
REMARK  Name = 
REMARK  4 active torsions:
REMARK  status: ('A' for Active; 'I' for Inactive)
REMARK    1  A    between atoms: C_1  and  O_2
REMARK    2  A    between atoms: O_2  and  C_3
REMARK    3  A    between atoms: C_6  and  N_7
REMARK    4  A    between atoms: C_10  and  C_11
REMARK                            x       y       z     vdW  Elec       q    Type
REMARK                         _______ _______ _______ _____ _____    ______ ____
ROOT
ATOM      1  N   UNL     1       2.245   8.030  17.808  0.00  0.00    +0.000 N 
ATOM      2  C   UNL     1       1.481   8.740  18.778  0.00  0.00    +0.000 A 
ATOM      3  C   UNL     1       0.776   9.831  18.293  0.00  0.00    +0.000 A 
ATOM      4  C   UNL     1       0.398  10.803  19.208  0.00  0.00    +0.000 A 
ATOM      5  C   UNL     1       0.806  12.228  18.913  0.00  0.00    +0.000 C 
ATOM      6  C   UNL     1       0.180  10.432  20.535  0.00  0.00    +0.000 A 
ATOM      7  C   UNL     1      -0.585  11.218  21.425  0.00  0.00    +0.000 A 
ATOM      8  C   UNL     1      -0.754  10.819  22.745  0.00  0.00    +0.000 A 
ATOM      9  C   UNL     1      -0.112   9.667  23.186  0.00  0.00    +0.000 A 
ATOM     10  C   UNL     1       0.655   8.902  22.294  0.00  0.00    +0.000 A 
ATOM     11  C   UNL     1       0.784   9.235  20.951  0.00  0.00    +0.000 A 
ATOM     12  N   UNL     1       1.495   8.457  20.100  0.00  0.00    +0.000 NA
ATOM     13  H   UNL     1       2.509   8.684  17.073  0.00  0.00    +0.000 HD
ENDROOT
BRANCH   1  17
ATOM     14  C   UNL     1       5.497   5.350  18.325  0.00  0.00    +0.000 A 
ATOM     15  C   UNL     1       4.391   5.285  19.166  0.00  0.00    +0.000 A 
ATOM     16  C   UNL     1       3.302   6.142  18.998  0.00  0.00    +0.000 A 
ATOM     17  C   UNL     1       3.313   7.137  18.015  0.00  0.00    +0.000 A 
ATOM     18  C   UNL     1       4.418   7.163  17.150  0.00  0.00    +0.000 A 
ATOM     19  C   UNL     1       5.513   6.292  17.301  0.00  0.00    +0.000 A 
BRANCH  14  21
ATOM     20  C   UNL     1       7.700   4.587  17.891  0.00  0.00    +0.000 C 
ATOM     21  O   UNL     1       6.500   4.479  18.643  0.00  0.00    +0.000 OA
ENDBRANCH  14  21
ENDBRANCH   1  17
TORSDOF 2
ENDMDL
MODEL 6
REMARK VINA RESULT:      -7.1      1.856      3.091
REMARK  Name = 
REMARK  4 active torsions:
REMARK  status: ('A' for Active; 'I' for Inactive)
REMARK    1  A    between atoms: C_1  and  O_2
REMARK    2  A    between atoms: O_2  and  C_3
REMARK    3  A    between atoms: C_6  and  N_7
REMARK    4  A    between atoms: C_10  and  C_11
REMARK                            x       y       z     vdW  Elec       q    Type
REMARK                         _______ _______ _______ _____ _____    ______ ____
ROOT
ATOM      1  N   UNL     1       2.199   8.184  18.151  0.00  0.00    +0.000 N 
ATOM      2  C   UNL     1       1.460   9.023  19.033  0.00  0.00    +0.000 A 
ATOM      3  C   UNL     1       1.159  10.283  18.537  0.00  0.00    +0.000 A 
ATOM      4  C   UNL     1       0.861  11.276  19.460  0.00  0.00    +0.000 A 
ATOM      5  C   UNL     1       1.661  12.556  19.381  0.00  0.00    +0.000 C 
ATOM      6  C   UNL     1       0.300  10.913  20.684  0.00  0.00    +0.000 A 
ATOM      7  C   UNL     1      -0.406  11.829  21.495  0.00  0.00    +0.000 A 
ATOM      8  C   UNL     1      -0.925  11.428  22.719  0.00  0.00    +0.000 A 
ATOM      9  C   UNL     1      -0.690  10.127  23.154  0.00  0.00    +0.000 A 
ATOM     10  C   UNL     1       0.023   9.230  22.344  0.00  0.00    +0.000 A 
ATOM     11  C   UNL     1       0.493   9.581  21.084  0.00  0.00    +0.000 A 
ATOM     12  N   UNL     1       1.141   8.685  20.303  0.00  0.00    +0.000 NA
ATOM     13  H   UNL     1       2.757   8.780  17.541  0.00  0.00    +0.000 HD
ENDROOT
BRANCH   1  17
ATOM     14  C   UNL     1       4.497   4.710  18.971  0.00  0.00    +0.000 A 
ATOM     15  C   UNL     1       3.389   5.022  19.753  0.00  0.00    +0.000 A 
ATOM     16  C   UNL     1       2.608   6.147  19.485  0.00  0.00    +0.000 A 
ATOM     17  C   UNL     1       2.948   7.033  18.458  0.00  0.00    +0.000 A 
ATOM     18  C   UNL     1       4.045   6.683  17.654  0.00  0.00    +0.000 A 
ATOM     19  C   UNL     1       4.829   5.542  17.906  0.00  0.00    +0.000 A 
BRANCH  14  21
ATOM     20  C   UNL     1       4.414   2.496  19.818  0.00  0.00    +0.000 C 
ATOM     21  O   UNL     1       5.187   3.606  19.385  0.00  0.00    +0.000 OA
ENDBRANCH  14  21
ENDBRANCH   1  17
TORSDOF 2
ENDMDL
MODEL 7
REMARK VINA RESULT:      -7.1      3.852      5.404
REMARK  Name = 
REMARK  4 active torsions:
REMARK  status: ('A' for Active; 'I' for Inactive)
REMARK    1  A    between atoms: C_1  and  O_2
REMARK    2  A    between atoms: O_2  and  C_3
REMARK    3  A    between atoms: C_6  and  N_7
REMARK    4  A    between atoms: C_10  and  C_11
REMARK                            x       y       z     vdW  Elec       q    Type
REMARK                         _______ _______ _______ _____ _____    ______ ____
ROOT
ATOM      1  N   UNL     1       5.280   4.876  17.991  0.00  0.00    +0.000 N 
ATOM      2  C   UNL     1       4.319   5.789  18.511  0.00  0.00    +0.000 A 
ATOM      3  C   UNL     1       3.814   5.470  19.762  0.00  0.00    +0.000 A 
ATOM      4  C   UNL     1       2.595   6.028  20.119  0.00  0.00    +0.000 A 
ATOM      5  C   UNL     1       1.504   5.082  20.564  0.00  0.00    +0.000 C 
ATOM      6  C   UNL     1       2.230   7.258  19.571  0.00  0.00    +0.000 A 
ATOM      7  C   UNL     1       1.250   8.088  20.159  0.00  0.00    +0.000 A 
ATOM      8  C   UNL     1       0.902   9.294  19.562  0.00  0.00    +0.000 A 
ATOM      9  C   UNL     1       1.494   9.638  18.352  0.00  0.00    +0.000 A 
ATOM     10  C   UNL     1       2.457   8.799  17.772  0.00  0.00    +0.000 A 
ATOM     11  C   UNL     1       2.878   7.622  18.380  0.00  0.00    +0.000 A 
ATOM     12  N   UNL     1       3.840   6.850  17.822  0.00  0.00    +0.000 NA
ATOM     13  H   UNL     1       5.086   3.956  18.385  0.00  0.00    +0.000 HD
ENDROOT
BRANCH   1  17
ATOM     14  C   UNL     1       6.486   4.290  13.963  0.00  0.00    +0.000 A 
ATOM     15  C   UNL     1       7.319   4.952  14.859  0.00  0.00    +0.000 A 
ATOM     16  C   UNL     1       6.951   5.134  16.192  0.00  0.00    +0.000 A 
ATOM     17  C   UNL     1       5.702   4.710  16.659  0.00  0.00    +0.000 A 
ATOM     18  C   UNL     1       4.890   4.010  15.754  0.00  0.00    +0.000 A 
ATOM     19  C   UNL     1       5.260   3.806  14.412  0.00  0.00    +0.000 A 
BRANCH  14  21
ATOM     20  C   UNL     1       6.470   3.178  11.869  0.00  0.00    +0.000 C 
ATOM     21  O   UNL     1       6.963   4.230  12.685  0.00  0.00    +0.000 OA
ENDBRANCH  14  21
ENDBRANCH   1  17
TORSDOF 2
ENDMDL
MODEL 8
REMARK VINA RESULT:      -7.1      3.736      5.785
REMARK  Name = 
REMARK  4 active torsions:
REMARK  status: ('A' for Active; 'I' for Inactive)
REMARK    1  A    between atoms: C_1  and  O_2
REMARK    2  A    between atoms: O_2  and  C_3
REMARK    3  A    between atoms: C_6  and  N_7
REMARK    4  A    between atoms: C_10  and  C_11
REMARK                            x       y       z     vdW  Elec       q    Type
REMARK                         _______ _______ _______ _____ _____    ______ ____
ROOT
ATOM      1  N   UNL     1       5.103   3.967  18.306  0.00  0.00    +0.000 N 
ATOM      2  C   UNL     1       4.147   4.755  19.007  0.00  0.00    +0.000 A 
ATOM      3  C   UNL     1       3.554   4.137  20.097  0.00  0.00    +0.000 A 
ATOM      4  C   UNL     1       2.337   4.642  20.532  0.00  0.00    +0.000 A 
ATOM      5  C   UNL     1       1.186   3.669  20.648  0.00  0.00    +0.000 C 
ATOM      6  C   UNL     1       2.052   5.991  20.322  0.00  0.00    +0.000 A 
ATOM      7  C   UNL     1       1.070   6.683  21.065  0.00  0.00    +0.000 A 
ATOM      8  C   UNL     1       0.805   8.021  20.803  0.00  0.00    +0.000 A 
ATOM      9  C   UNL     1       1.482   8.648  19.762  0.00  0.00    +0.000 A 
ATOM     10  C   UNL     1       2.447   7.946  19.024  0.00  0.00    +0.000 A 
ATOM     11  C   UNL     1       2.786   6.629  19.309  0.00  0.00    +0.000 A 
ATOM     12  N   UNL     1       3.751   5.986  18.610  0.00  0.00    +0.000 NA
ATOM     13  H   UNL     1       4.851   2.986  18.424  0.00  0.00    +0.000 HD
ENDROOT
BRANCH   1  17
ATOM     14  C   UNL     1       6.680   4.575  14.412  0.00  0.00    +0.000 A 
ATOM     15  C   UNL     1       5.370   4.142  14.580  0.00  0.00    +0.000 A 
ATOM     16  C   UNL     1       4.826   3.959  15.853  0.00  0.00    +0.000 A 
ATOM     17  C   UNL     1       5.601   4.145  17.002  0.00  0.00    +0.000 A 
ATOM     18  C   UNL     1       6.909   4.620  16.815  0.00  0.00    +0.000 A 
ATOM     19  C   UNL     1       7.460   4.824  15.537  0.00  0.00    +0.000 A 
BRANCH  14  21
ATOM     20  C   UNL     1       6.621   3.649  12.230  0.00  0.00    +0.000 C 
ATOM     21  O   UNL     1       7.083   4.664  13.109  0.00  0.00    +0.000 OA
ENDBRANCH  14  21
ENDBRANCH   1  17
TORSDOF 2
ENDMDL
MODEL 9
REMARK VINA RESULT:      -7.0      3.658      7.703
REMARK  Name = 
REMARK  4 active torsions:
REMARK  status: ('A' for Active; 'I' for Inactive)
REMARK    1  A    between atoms: C_1  and  O_2
REMARK    2  A    between atoms: O_2  and  C_3
REMARK    3  A    between atoms: C_6  and  N_7
REMARK    4  A    between atoms: C_10  and  C_11
REMARK                            x       y       z     vdW  Elec       q    Type
REMARK                         _______ _______ _______ _____ _____    ______ ____
ROOT
ATOM      1  N   UNL     1       3.063   6.611  19.753  0.00  0.00    +0.000 N 
ATOM      2  C   UNL     1       4.028   6.036  18.878  0.00  0.00    +0.000 A 
ATOM      3  C   UNL     1       5.007   5.271  19.495  0.00  0.00    +0.000 A 
ATOM      4  C   UNL     1       6.191   5.070  18.800  0.00  0.00    +0.000 A 
ATOM      5  C   UNL     1       7.477   5.439  19.503  0.00  0.00    +0.000 C 
ATOM      6  C   UNL     1       6.165   5.081  17.406  0.00  0.00    +0.000 A 
ATOM      7  C   UNL     1       7.184   4.492  16.624  0.00  0.00    +0.000 A 
ATOM      8  C   UNL     1       7.127   4.549  15.238  0.00  0.00    +0.000 A 
ATOM      9  C   UNL     1       6.081   5.243  14.637  0.00  0.00    +0.000 A 
ATOM     10  C   UNL     1       5.082   5.834  15.425  0.00  0.00    +0.000 A 
ATOM     11  C   UNL     1       5.073   5.732  16.811  0.00  0.00    +0.000 A 
ATOM     12  N   UNL     1       4.074   6.275  17.547  0.00  0.00    +0.000 NA
ATOM     13  H   UNL     1       3.504   6.751  20.661  0.00  0.00    +0.000 HD
ENDROOT
BRANCH   1  17
ATOM     14  C   UNL     1       0.491   9.887  18.933  0.00  0.00    +0.000 A 
ATOM     15  C   UNL     1       0.559   9.349  20.214  0.00  0.00    +0.000 A 
ATOM     16  C   UNL     1       1.416   8.287  20.509  0.00  0.00    +0.000 A 
ATOM     17  C   UNL     1       2.190   7.687  19.510  0.00  0.00    +0.000 A 
ATOM     18  C   UNL     1       2.138   8.266  18.233  0.00  0.00    +0.000 A 
ATOM     19  C   UNL     1       1.290   9.348  17.930  0.00  0.00    +0.000 A 
BRANCH  14  21
ATOM     20  C   UNL     1      -1.663  10.540  18.185  0.00  0.00    +0.000 C 
ATOM     21  O   UNL     1      -0.426  10.889  18.790  0.00  0.00    +0.000 OA
ENDBRANCH  14  21
ENDBRANCH   1  17
TORSDOF 2
ENDMDL
