MODEL 1
REMARK VINA RESULT:      -6.0      0.000      0.000
REMARK  Name = 
REMARK  8 active torsions:
REMARK  status: ('A' for Active; 'I' for Inactive)
REMARK    1  A    between atoms: C_1  and  O_2
REMARK    2  A    between atoms: O_2  and  C_3
REMARK    3  A    between atoms: C_3  and  C_5
REMARK    4  A    between atoms: C_6  and  C_7
REMARK    5  A    between atoms: C_11  and  O_12
REMARK    6  A    between atoms: O_12  and  C_13
REMARK    7  A    between atoms: C_14  and  O_15
REMARK    8  A    between atoms: O_15  and  C_16
REMARK                            x       y       z     vdW  Elec       q    Type
REMARK                         _______ _______ _______ _____ _____    ______ ____
ROOT
ATOM      1  C   UNL     1       3.407   4.960  18.114  0.00  0.00    +0.000 A 
ATOM      2  C   UNL     1       3.253   6.224  18.711  0.00  0.00    +0.000 A 
ATOM      3  C   UNL     1       2.393   6.402  19.788  0.00  0.00    +0.000 A 
ATOM      4  C   UNL     1       1.688   5.313  20.287  0.00  0.00    +0.000 A 
ATOM      5  C   UNL     1       1.811   4.040  19.709  0.00  0.00    +0.000 A 
ATOM      6  C   UNL     1       2.670   3.853  18.604  0.00  0.00    +0.000 A 
ENDROOT
BRANCH   1   8
ATOM      7  C   UNL     1       5.643   5.230  17.109  0.00  0.00    +0.000 C 
ATOM      8  C   UNL     1       4.352   4.887  16.997  0.00  0.00    +0.000 C 
BRANCH   7   9
ATOM      9  C   UNL     1       6.466   5.279  15.882  0.00  0.00    +0.000 C 
ATOM     10  O   UNL     1       6.235   4.662  14.854  0.00  0.00    +0.000 OA
BRANCH   9  12
ATOM     11  C   UNL     1       7.401   6.827  17.348  0.00  0.00    +0.000 C 
ATOM     12  O   UNL     1       7.455   6.187  16.073  0.00  0.00    +0.000 OA
ENDBRANCH   9  12
ENDBRANCH   7   9
ENDBRANCH   1   8
BRANCH   5  13
ATOM     13  O   UNL     1       1.024   3.120  20.355  0.00  0.00    +0.000 OA
ATOM     14  C   UNL     1       1.426   2.627  21.623  0.00  0.00    +0.000 C 
ENDBRANCH   5  13
BRANCH   6  15
ATOM     15  O   UNL     1       2.639   2.623  17.998  0.00  0.00    +0.000 OA
ATOM     16  C   UNL     1       3.510   1.601  18.464  0.00  0.00    +0.000 C 
ENDBRANCH   6  15
TORSDOF 5
ENDMDL
MODEL 2
REMARK VINA RESULT:      -5.9      1.308      2.482
REMARK  Name = 
REMARK  8 active torsions:
REMARK  status: ('A' for Active; 'I' for Inactive)
REMARK    1  A    between atoms: C_1  and  O_2
REMARK    2  A    between atoms: O_2  and  C_3
REMARK    3  A    between atoms: C_3  and  C_5
REMARK    4  A    between atoms: C_6  and  C_7
REMARK    5  A    between atoms: C_11  and  O_12
REMARK    6  A    between atoms: O_12  and  C_13
REMARK    7  A    between atoms: C_14  and  O_15
REMARK    8  A    between atoms: O_15  and  C_16
REMARK                            x       y       z     vdW  Elec       q    Type
REMARK                         _______ _______ _______ _____ _____    ______ ____
ROOT
ATOM      1  C   UNL     1       3.833   4.112  17.827  0.00  0.00    +0.000 A 
ATOM      2  C   UNL     1       3.645   2.801  17.352  0.00  0.00    +0.000 A 
ATOM      3  C   UNL     1       2.817   1.912  18.027  0.00  0.00    +0.000 A 
ATOM      4  C   UNL     1       2.158   2.330  19.177  0.00  0.00    +0.000 A 
ATOM      5  C   UNL     1       2.330   3.628  19.683  0.00  0.00    +0.000 A 
ATOM      6  C   UNL     1       3.182   4.533  19.014  0.00  0.00    +0.000 A 
ENDROOT
BRANCH   1   8
ATOM      7  C   UNL     1       6.000   4.667  16.791  0.00  0.00    +0.000 C 
ATOM      8  C   UNL     1       4.715   4.965  17.027  0.00  0.00    +0.000 C 
BRANCH   7   9
ATOM      9  C   UNL     1       6.843   5.678  16.116  0.00  0.00    +0.000 C 
ATOM     10  O   UNL     1       7.601   5.455  15.185  0.00  0.00    +0.000 OA
BRANCH   9  12
ATOM     11  C   UNL     1       7.552   7.358  17.562  0.00  0.00    +0.000 C 
ATOM     12  O   UNL     1       6.558   6.890  16.652  0.00  0.00    +0.000 OA
ENDBRANCH   9  12
ENDBRANCH   7   9
ENDBRANCH   1   8
BRANCH   5  13
ATOM     13  O   UNL     1       1.592   3.821  20.824  0.00  0.00    +0.000 OA
ATOM     14  C   UNL     1       1.408   2.743  21.727  0.00  0.00    +0.000 C 
ENDBRANCH   5  13
BRANCH   6  15
ATOM     15  O   UNL     1       3.419   5.733  19.633  0.00  0.00    +0.000 OA
ATOM     16  C   UNL     1       2.522   6.813  19.412  0.00  0.00    +0.000 C 
ENDBRANCH   6  15
TORSDOF 5
ENDMDL
MODEL 3
REMARK VINA RESULT:      -5.9      1.259      1.814
REMARK  Name = 
REMARK  8 active torsions:
REMARK  status: ('A' for Active; 'I' for Inactive)
REMARK    1  A    between atoms: C_1  and  O_2
REMARK    2  A    between atoms: O_2  and  C_3
REMARK    3  A    between atoms: C_3  and  C_5
REMARK    4  A    between atoms: C_6  and  C_7
REMARK    5  A    between atoms: C_11  and  O_12
REMARK    6  A    between atoms: O_12  and  C_13
REMARK    7  A    between atoms: C_14  and  O_15
REMARK    8  A    between atoms: O_15  and  C_16
REMARK                            x       y       z     vdW  Elec       q    Type
REMARK                         _______ _______ _______ _____ _____    ______ ____
ROOT
ATOM      1  C   UNL     1       4.052   5.011  18.386  0.00  0.00    +0.000 A 
ATOM      2  C   UNL     1       3.391   6.252  18.357  0.00  0.00    +0.000 A 
ATOM      3  C   UNL     1       2.444   6.577  19.320  0.00  0.00    +0.000 A 
ATOM      4  C   UNL     1       2.158   5.667  20.331  0.00  0.00    +0.000 A 
ATOM      5  C   UNL     1       2.792   4.415  20.384  0.00  0.00    +0.000 A 
ATOM      6  C   UNL     1       3.744   4.070  19.400  0.00  0.00    +0.000 A 
ENDROOT
BRANCH   1   8
ATOM      7  C   UNL     1       5.261   5.657  16.336  0.00  0.00    +0.000 C 
ATOM      8  C   UNL     1       5.041   4.784  17.329  0.00  0.00    +0.000 C 
BRANCH   7   9
ATOM      9  C   UNL     1       6.159   5.253  15.232  0.00  0.00    +0.000 C 
ATOM     10  O   UNL     1       7.365   5.439  15.202  0.00  0.00    +0.000 OA
BRANCH   9  12
ATOM     11  C   UNL     1       6.206   3.733  13.470  0.00  0.00    +0.000 C 
ATOM     12  O   UNL     1       5.424   4.572  14.318  0.00  0.00    +0.000 OA
ENDBRANCH   9  12
ENDBRANCH   7   9
ENDBRANCH   1   8
BRANCH   5  13
ATOM     13  O   UNL     1       2.355   3.679  21.458  0.00  0.00    +0.000 OA
ATOM     14  C   UNL     1       1.238   2.819  21.306  0.00  0.00    +0.000 C 
ENDBRANCH   5  13
BRANCH   6  15
ATOM     15  O   UNL     1       4.221   2.784  19.425  0.00  0.00    +0.000 OA
ATOM     16  C   UNL     1       3.539   1.781  18.684  0.00  0.00    +0.000 C 
ENDBRANCH   6  15
TORSDOF 5
ENDMDL
MODEL 4
REMARK VINA RESULT:      -5.9      1.231      1.281
REMARK  Name = 
REMARK  8 active torsions:
REMARK  status: ('A' for Active; 'I' for Inactive)
REMARK    1  A    between atoms: C_1  and  O_2
REMARK    2  A    between atoms: O_2  and  C_3
REMARK    3  A    between atoms: C_3  and  C_5
REMARK    4  A    between atoms: C_6  and  C_7
REMARK    5  A    between atoms: C_11  and  O_12
REMARK    6  A    between atoms: O_12  and  C_13
REMARK    7  A    between atoms: C_14  and  O_15
REMARK    8  A    between atoms: O_15  and  C_16
REMARK                            x       y       z     vdW  Elec       q    Type
REMARK                         _______ _______ _______ _____ _____    ______ ____
ROOT
ATOM      1  C   UNL     1       4.173   5.027  19.318  0.00  0.00    +0.000 A 
ATOM      2  C   UNL     1       3.462   6.231  19.470  0.00  0.00    +0.000 A 
ATOM      3  C   UNL     1       2.162   6.232  19.961  0.00  0.00    +0.000 A 
ATOM      4  C   UNL     1       1.565   5.028  20.319  0.00  0.00    +0.000 A 
ATOM      5  C   UNL     1       2.244   3.808  20.171  0.00  0.00    +0.000 A 
ATOM      6  C   UNL     1       3.559   3.795  19.657  0.00  0.00    +0.000 A 
ENDROOT
BRANCH   1   8
ATOM      7  C   UNL     1       5.816   5.449  17.528  0.00  0.00    +0.000 C 
ATOM      8  C   UNL     1       5.540   5.148  18.805  0.00  0.00    +0.000 C 
BRANCH   7   9
ATOM      9  C   UNL     1       7.224   5.380  17.079  0.00  0.00    +0.000 C 
ATOM     10  O   UNL     1       7.928   4.383  17.121  0.00  0.00    +0.000 OA
BRANCH   9  12
ATOM     11  C   UNL     1       7.646   7.629  17.505  0.00  0.00    +0.000 C 
ATOM     12  O   UNL     1       7.554   6.580  16.541  0.00  0.00    +0.000 OA
ENDBRANCH   9  12
ENDBRANCH   7   9
ENDBRANCH   1   8
BRANCH   5  13
ATOM     13  O   UNL     1       1.467   2.752  20.579  0.00  0.00    +0.000 OA
ATOM     14  C   UNL     1       1.446   2.391  21.951  0.00  0.00    +0.000 C 
ENDBRANCH   5  13
BRANCH   6  15
ATOM     15  O   UNL     1       4.112   2.567  19.404  0.00  0.00    +0.000 OA
ATOM     16  C   UNL     1       3.673   1.831  18.270  0.00  0.00    +0.000 C 
ENDBRANCH   6  15
TORSDOF 5
ENDMDL
MODEL 5
REMARK VINA RESULT:      -5.8      2.082      3.192
REMARK  Name = 
REMARK  8 active torsions:
REMARK  status: ('A' for Active; 'I' for Inactive)
REMARK    1  A    between atoms: C_1  and  O_2
REMARK    2  A    between atoms: O_2  and  C_3
REMARK    3  A    between atoms: C_3  and  C_5
REMARK    4  A    between atoms: C_6  and  C_7
REMARK    5  A    between atoms: C_11  and  O_12
REMARK    6  A    between atoms: O_12  and  C_13
REMARK    7  A    between atoms: C_14  and  O_15
REMARK    8  A    between atoms: O_15  and  C_16
REMARK                            x       y       z     vdW  Elec       q    Type
REMARK                         _______ _______ _______ _____ _____    ______ ____
ROOT
ATOM      1  C   UNL     1       4.099   4.221  17.049  0.00  0.00    +0.000 A 
ATOM      2  C   UNL     1       3.009   3.355  16.851  0.00  0.00    +0.000 A 
ATOM      3  C   UNL     1       1.883   3.430  17.662  0.00  0.00    +0.000 A 
ATOM      4  C   UNL     1       1.831   4.383  18.672  0.00  0.00    +0.000 A 
ATOM      5  C   UNL     1       2.905   5.256  18.904  0.00  0.00    +0.000 A 
ATOM      6  C   UNL     1       4.060   5.177  18.096  0.00  0.00    +0.000 A 
ENDROOT
BRANCH   1   8
ATOM      7  C   UNL     1       5.623   5.028  15.287  0.00  0.00    +0.000 C 
ATOM      8  C   UNL     1       5.224   4.061  16.126  0.00  0.00    +0.000 C 
BRANCH   7   9
ATOM      9  C   UNL     1       6.658   4.704  14.282  0.00  0.00    +0.000 C 
ATOM     10  O   UNL     1       7.691   5.332  14.107  0.00  0.00    +0.000 OA
BRANCH   9  12
ATOM     11  C   UNL     1       6.532   3.565  12.256  0.00  0.00    +0.000 C 
ATOM     12  O   UNL     1       6.300   3.552  13.664  0.00  0.00    +0.000 OA
ENDBRANCH   9  12
ENDBRANCH   7   9
ENDBRANCH   1   8
BRANCH   5  13
ATOM     13  O   UNL     1       2.641   6.106  19.949  0.00  0.00    +0.000 OA
ATOM     14  C   UNL     1       1.618   5.776  20.876  0.00  0.00    +0.000 C 
ENDBRANCH   5  13
BRANCH   6  15
ATOM     15  O   UNL     1       5.126   5.958  18.461  0.00  0.00    +0.000 OA
ATOM     16  C   UNL     1       6.147   5.396  19.276  0.00  0.00    +0.000 C 
ENDBRANCH   6  15
TORSDOF 5
ENDMDL
MODEL 6
REMARK VINA RESULT:      -5.8      1.713      5.960
REMARK  Name = 
REMARK  8 active torsions:
REMARK  status: ('A' for Active; 'I' for Inactive)
REMARK    1  A    between atoms: C_1  and  O_2
REMARK    2  A    between atoms: O_2  and  C_3
REMARK    3  A    between atoms: C_3  and  C_5
REMARK    4  A    between atoms: C_6  and  C_7
REMARK    5  A    between atoms: C_11  and  O_12
REMARK    6  A    between atoms: O_12  and  C_13
REMARK    7  A    between atoms: C_14  and  O_15
REMARK    8  A    between atoms: O_15  and  C_16
REMARK                            x       y       z     vdW  Elec       q    Type
REMARK                         _______ _______ _______ _____ _____    ______ ____
ROOT
ATOM      1  C   UNL     1       4.264   4.312  17.283  0.00  0.00    +0.000 A 
ATOM      2  C   UNL     1       4.855   3.593  16.228  0.00  0.00    +0.000 A 
ATOM      3  C   UNL     1       5.860   4.162  15.455  0.00  0.00    +0.000 A 
ATOM      4  C   UNL     1       6.293   5.452  15.738  0.00  0.00    +0.000 A 
ATOM      5  C   UNL     1       5.717   6.201  16.776  0.00  0.00    +0.000 A 
ATOM      6  C   UNL     1       4.684   5.638  17.557  0.00  0.00    +0.000 A 
ENDROOT
BRANCH   1   8
ATOM      7  C   UNL     1       1.916   3.762  17.799  0.00  0.00    +0.000 C 
ATOM      8  C   UNL     1       3.226   3.607  18.039  0.00  0.00    +0.000 C 
BRANCH   7   9
ATOM      9  C   UNL     1       0.953   3.135  18.729  0.00  0.00    +0.000 C 
ATOM     10  O   UNL     1       0.293   2.135  18.492  0.00  0.00    +0.000 OA
BRANCH   9  12
ATOM     11  C   UNL     1       1.200   2.963  21.038  0.00  0.00    +0.000 C 
ATOM     12  O   UNL     1       1.002   3.809  19.905  0.00  0.00    +0.000 OA
ENDBRANCH   9  12
ENDBRANCH   7   9
ENDBRANCH   1   8
BRANCH   5  13
ATOM     13  O   UNL     1       6.291   7.444  16.873  0.00  0.00    +0.000 OA
ATOM     14  C   UNL     1       7.564   7.579  17.486  0.00  0.00    +0.000 C 
ENDBRANCH   5  13
BRANCH   6  15
ATOM     15  O   UNL     1       4.069   6.466  18.460  0.00  0.00    +0.000 OA
ATOM     16  C   UNL     1       3.090   7.387  17.996  0.00  0.00    +0.000 C 
ENDBRANCH   6  15
TORSDOF 5
ENDMDL
MODEL 7
REMARK VINA RESULT:      -5.8      2.162      2.952
REMARK  Name = 
REMARK  8 active torsions:
REMARK  status: ('A' for Active; 'I' for Inactive)
REMARK    1  A    between atoms: C_1  and  O_2
REMARK    2  A    between atoms: O_2  and  C_3
REMARK    3  A    between atoms: C_3  and  C_5
REMARK    4  A    between atoms: C_6  and  C_7
REMARK    5  A    between atoms: C_11  and  O_12
REMARK    6  A    between atoms: O_12  and  C_13
REMARK    7  A    between atoms: C_14  and  O_15
REMARK    8  A    between atoms: O_15  and  C_16
REMARK                            x       y       z     vdW  Elec       q    Type
REMARK                         _______ _______ _______ _____ _____    ______ ____
ROOT
ATOM      1  C   UNL     1       4.164   3.814  17.379  0.00  0.00    +0.000 A 
ATOM      2  C   UNL     1       2.950   3.331  16.856  0.00  0.00    +0.000 A 
ATOM      3  C   UNL     1       2.042   2.661  17.667  0.00  0.00    +0.000 A 
ATOM      4  C   UNL     1       2.334   2.479  19.014  0.00  0.00    +0.000 A 
ATOM      5  C   UNL     1       3.540   2.938  19.566  0.00  0.00    +0.000 A 
ATOM      6  C   UNL     1       4.476   3.606  18.746  0.00  0.00    +0.000 A 
ENDROOT
BRANCH   1   8
ATOM      7  C   UNL     1       5.793   3.882  15.530  0.00  0.00    +0.000 C 
ATOM      8  C   UNL     1       5.036   4.517  16.436  0.00  0.00    +0.000 C 
BRANCH   7   9
ATOM      9  C   UNL     1       6.761   4.677  14.743  0.00  0.00    +0.000 C 
ATOM     10  O   UNL     1       7.529   5.507  15.203  0.00  0.00    +0.000 OA
BRANCH   9  12
ATOM     11  C   UNL     1       7.608   4.944  12.591  0.00  0.00    +0.000 C 
ATOM     12  O   UNL     1       6.701   4.259  13.455  0.00  0.00    +0.000 OA
ENDBRANCH   9  12
ENDBRANCH   7   9
ENDBRANCH   1   8
BRANCH   5  13
ATOM     13  O   UNL     1       3.620   2.647  20.905  0.00  0.00    +0.000 OA
ATOM     14  C   UNL     1       2.447   2.700  21.701  0.00  0.00    +0.000 C 
ENDBRANCH   5  13
BRANCH   6  15
ATOM     15  O   UNL     1       5.690   3.904  19.309  0.00  0.00    +0.000 OA
ATOM     16  C   UNL     1       6.107   5.261  19.374  0.00  0.00    +0.000 C 
ENDBRANCH   6  15
TORSDOF 5
ENDMDL
MODEL 8
REMARK VINA RESULT:      -5.8      1.587      1.674
REMARK  Name = 
REMARK  8 active torsions:
REMARK  status: ('A' for Active; 'I' for Inactive)
REMARK    1  A    between atoms: C_1  and  O_2
REMARK    2  A    between atoms: O_2  and  C_3
REMARK    3  A    between atoms: C_3  and  C_5
REMARK    4  A    between atoms: C_6  and  C_7
REMARK    5  A    between atoms: C_11  and  O_12
REMARK    6  A    between atoms: O_12  and  C_13
REMARK    7  A    between atoms: C_14  and  O_15
REMARK    8  A    between atoms: O_15  and  C_16
REMARK                            x       y       z     vdW  Elec       q    Type
REMARK                         _______ _______ _______ _____ _____    ______ ____
ROOT
ATOM      1  C   UNL     1       3.634   3.772  17.788  0.00  0.00    +0.000 A 
ATOM      2  C   UNL     1       2.376   4.051  17.224  0.00  0.00    +0.000 A 
ATOM      3  C   UNL     1       1.235   4.091  18.017  0.00  0.00    +0.000 A 
ATOM      4  C   UNL     1       1.344   3.865  19.384  0.00  0.00    +0.000 A 
ATOM      5  C   UNL     1       2.583   3.574  19.977  0.00  0.00    +0.000 A 
ATOM      6  C   UNL     1       3.746   3.515  19.177  0.00  0.00    +0.000 A 
ENDROOT
BRANCH   1   8
ATOM      7  C   UNL     1       5.650   4.778  16.784  0.00  0.00    +0.000 C 
ATOM      8  C   UNL     1       4.768   3.771  16.860  0.00  0.00    +0.000 C 
BRANCH   7   9
ATOM      9  C   UNL     1       6.655   4.752  15.700  0.00  0.00    +0.000 C 
ATOM     10  O   UNL     1       6.674   3.952  14.777  0.00  0.00    +0.000 OA
BRANCH   9  12
ATOM     11  C   UNL     1       7.293   6.493  17.106  0.00  0.00    +0.000 C 
ATOM     12  O   UNL     1       7.483   5.812  15.866  0.00  0.00    +0.000 OA
ENDBRANCH   9  12
ENDBRANCH   7   9
ENDBRANCH   1   8
BRANCH   5  13
ATOM     13  O   UNL     1       2.457   3.382  21.330  0.00  0.00    +0.000 OA
ATOM     14  C   UNL     1       1.441   2.522  21.820  0.00  0.00    +0.000 C 
ENDBRANCH   5  13
BRANCH   6  15
ATOM     15  O   UNL     1       4.896   3.089  19.789  0.00  0.00    +0.000 OA
ATOM     16  C   UNL     1       4.963   1.757  20.282  0.00  0.00    +0.000 C 
ENDBRANCH   6  15
TORSDOF 5
ENDMDL
MODEL 9
REMARK VINA RESULT:      -5.7      0.951      1.442
REMARK  Name = 
REMARK  8 active torsions:
REMARK  status: ('A' for Active; 'I' for Inactive)
REMARK    1  A    between atoms: C_1  and  O_2
REMARK    2  A    between atoms: O_2  and  C_3
REMARK    3  A    between atoms: C_3  and  C_5
REMARK    4  A    between atoms: C_6  and  C_7
REMARK    5  A    between atoms: C_11  and  O_12
REMARK    6  A    between atoms: O_12  and  C_13
REMARK    7  A    between atoms: C_14  and  O_15
REMARK    8  A    between atoms: O_15  and  C_16
REMARK                            x       y       z     vdW  Elec       q    Type
REMARK                         _______ _______ _______ _____ _____    ______ ____
ROOT
ATOM      1  C   UNL     1       3.690   5.467  18.520  0.00  0.00    +0.000 A 
ATOM      2  C   UNL     1       3.158   6.683  18.987  0.00  0.00    +0.000 A 
ATOM      3  C   UNL     1       2.146   6.698  19.939  0.00  0.00    +0.000 A 
ATOM      4  C   UNL     1       1.664   5.496  20.443  0.00  0.00    +0.000 A 
ATOM      5  C   UNL     1       2.165   4.265  19.992  0.00  0.00    +0.000 A 
ATOM      6  C   UNL     1       3.182   4.239  19.012  0.00  0.00    +0.000 A 
ENDROOT
BRANCH   1   8
ATOM      7  C   UNL     1       6.061   5.470  17.844  0.00  0.00    +0.000 C 
ATOM      8  C   UNL     1       4.763   5.573  17.528  0.00  0.00    +0.000 C 
BRANCH   7   9
ATOM      9  C   UNL     1       7.064   5.759  16.797  0.00  0.00    +0.000 C 
ATOM     10  O   UNL     1       7.592   6.844  16.608  0.00  0.00    +0.000 OA
BRANCH   9  12
ATOM     11  C   UNL     1       6.891   4.568  14.805  0.00  0.00    +0.000 C 
ATOM     12  O   UNL     1       7.351   4.600  16.156  0.00  0.00    +0.000 OA
ENDBRANCH   9  12
ENDBRANCH   7   9
ENDBRANCH   1   8
BRANCH   5  13
ATOM     13  O   UNL     1       1.545   3.213  20.618  0.00  0.00    +0.000 OA
ATOM     14  C   UNL     1       2.137   2.642  21.774  0.00  0.00    +0.000 C 
ENDBRANCH   5  13
BRANCH   6  15
ATOM     15  O   UNL     1       3.528   3.010  18.512  0.00  0.00    +0.000 OA
ATOM     16  C   UNL     1       2.689   2.399  17.540  0.00  0.00    +0.000 C 
ENDBRANCH   6  15
TORSDOF 5
ENDMDL
