MODEL 1
REMARK VINA RESULT:      -7.9      0.000      0.000
REMARK  Name = 
REMARK  5 active torsions:
REMARK  status: ('A' for Active; 'I' for Inactive)
REMARK    1  A    between atoms: C_8  and  O_9
REMARK    2  A    between atoms: O_9  and  C_10
REMARK    3  A    between atoms: N_19  and  C_20
REMARK    4  A    between atoms: C_20  and  C_21
REMARK    5  A    between atoms: C_21  and  C_22
REMARK                            x       y       z     vdW  Elec       q    Type
REMARK                         _______ _______ _______ _____ _____    ______ ____
ROOT
ATOM      1  O   UNL     1       3.336   1.814  18.903  0.00  0.00    +0.000 OA
ATOM      2  C   UNL     1       2.930   2.923  19.225  0.00  0.00    +0.000 A 
ATOM      3  C   UNL     1       2.513   3.066  20.661  0.00  0.00    +0.000 A 
ATOM      4  N   UNL     1       2.146   4.180  21.206  0.00  0.00    +0.000 NA
ATOM      5  C   UNL     1       2.153   5.311  20.375  0.00  0.00    +0.000 A 
ATOM      6  C   UNL     1       1.829   6.544  20.898  0.00  0.00    +0.000 A 
ATOM      7  N   UNL     1       1.833   7.685  20.192  0.00  0.00    +0.000 NA
ATOM      8  C   UNL     1       2.208   7.579  18.905  0.00  0.00    +0.000 A 
ATOM      9  N   UNL     1       2.507   6.427  18.272  0.00  0.00    +0.000 NA
ATOM     10  C   UNL     1       2.476   5.301  19.017  0.00  0.00    +0.000 A 
ATOM     11  N   UNL     1       2.803   4.045  18.413  0.00  0.00    +0.000 N 
ENDROOT
BRANCH   8  12
ATOM     12  O   UNL     1       2.288   8.730  18.125  0.00  0.00    +0.000 OA
BRANCH  12  13
ATOM     13  C   UNL     1       1.258   9.645  18.205  0.00  0.00    +0.000 A 
ATOM     14  C   UNL     1       1.560  10.885  18.778  0.00  0.00    +0.000 A 
ATOM     15  C   UNL     1       0.565  11.854  18.927  0.00  0.00    +0.000 A 
ATOM     16  C   UNL     1      -0.738  11.585  18.507  0.00  0.00    +0.000 A 
ATOM     17  C   UNL     1      -1.043  10.341  17.958  0.00  0.00    +0.000 A 
ATOM     18 CL   UNL     1      -2.650  10.008  17.438  0.00  0.00    +0.000 Cl
ATOM     19  C   UNL     1      -0.059   9.364  17.824  0.00  0.00    +0.000 A 
ENDBRANCH  12  13
ENDBRANCH   8  12
BRANCH  11  20
ATOM     20  C   UNL     1       3.218   4.019  16.998  0.00  0.00    +0.000 C 
BRANCH  20  21
ATOM     21  C   UNL     1       4.715   3.738  16.761  0.00  0.00    +0.000 C 
BRANCH  21  22
ATOM     22  C   UNL     1       5.636   4.854  17.199  0.00  0.00    +0.000 A 
ATOM     23  C   UNL     1       6.593   4.624  18.199  0.00  0.00    +0.000 A 
ATOM     24  C   UNL     1       7.500   5.623  18.555  0.00  0.00    +0.000 A 
ATOM     25  C   UNL     1       7.455   6.863  17.920  0.00  0.00    +0.000 A 
ATOM     26  C   UNL     1       6.498   7.106  16.937  0.00  0.00    +0.000 A 
ATOM     27  C   UNL     1       5.589   6.107  16.578  0.00  0.00    +0.000 A 
ENDBRANCH  21  22
ENDBRANCH  20  21
ENDBRANCH  11  20
TORSDOF 5
ENDMDL
MODEL 2
REMARK VINA RESULT:      -7.8      1.033      1.382
REMARK  Name = 
REMARK  5 active torsions:
REMARK  status: ('A' for Active; 'I' for Inactive)
REMARK    1  A    between atoms: C_8  and  O_9
REMARK    2  A    between atoms: O_9  and  C_10
REMARK    3  A    between atoms: N_19  and  C_20
REMARK    4  A    between atoms: C_20  and  C_21
REMARK    5  A    between atoms: C_21  and  C_22
REMARK                            x       y       z     vdW  Elec       q    Type
REMARK                         _______ _______ _______ _____ _____    ______ ____
ROOT
ATOM      1  O   UNL     1       3.817   1.866  18.515  0.00  0.00    +0.000 OA
ATOM      2  C   UNL     1       3.331   2.923  18.897  0.00  0.00    +0.000 A 
ATOM      3  C   UNL     1       2.858   2.938  20.323  0.00  0.00    +0.000 A 
ATOM      4  N   UNL     1       2.402   3.986  20.929  0.00  0.00    +0.000 NA
ATOM      5  C   UNL     1       2.365   5.171  20.178  0.00  0.00    +0.000 A 
ATOM      6  C   UNL     1       1.945   6.342  20.772  0.00  0.00    +0.000 A 
ATOM      7  N   UNL     1       1.899   7.528  20.146  0.00  0.00    +0.000 NA
ATOM      8  C   UNL     1       2.323   7.536  18.870  0.00  0.00    +0.000 A 
ATOM      9  N   UNL     1       2.716   6.453  18.171  0.00  0.00    +0.000 NA
ATOM     10  C   UNL     1       2.732   5.277  18.836  0.00  0.00    +0.000 A 
ATOM     11  N   UNL     1       3.158   4.090  18.160  0.00  0.00    +0.000 N 
ENDROOT
BRANCH   8  12
ATOM     12  O   UNL     1       2.355   8.743  18.175  0.00  0.00    +0.000 OA
BRANCH  12  13
ATOM     13  C   UNL     1       1.289   9.607  18.319  0.00  0.00    +0.000 A 
ATOM     14  C   UNL     1       0.104   9.258  17.664  0.00  0.00    +0.000 A 
ATOM     15  C   UNL     1      -1.012  10.097  17.732  0.00  0.00    +0.000 A 
ATOM     16  C   UNL     1      -0.945  11.290  18.452  0.00  0.00    +0.000 A 
ATOM     17  C   UNL     1       0.244  11.648  19.085  0.00  0.00    +0.000 A 
ATOM     18 CL   UNL     1       0.329  13.119  19.975  0.00  0.00    +0.000 Cl
ATOM     19  C   UNL     1       1.366  10.824  19.005  0.00  0.00    +0.000 A 
ENDBRANCH  12  13
ENDBRANCH   8  12
BRANCH  11  20
ATOM     20  C   UNL     1       3.621   4.189  16.763  0.00  0.00    +0.000 C 
BRANCH  20  21
ATOM     21  C   UNL     1       5.132   3.962  16.557  0.00  0.00    +0.000 C 
BRANCH  21  22
ATOM     22  C   UNL     1       6.012   5.021  17.179  0.00  0.00    +0.000 A 
ATOM     23  C   UNL     1       6.879   4.687  18.231  0.00  0.00    +0.000 A 
ATOM     24  C   UNL     1       7.753   5.638  18.759  0.00  0.00    +0.000 A 
ATOM     25  C   UNL     1       7.764   6.934  18.247  0.00  0.00    +0.000 A 
ATOM     26  C   UNL     1       6.896   7.280  17.214  0.00  0.00    +0.000 A 
ATOM     27  C   UNL     1       6.021   6.330  16.682  0.00  0.00    +0.000 A 
ENDBRANCH  21  22
ENDBRANCH  20  21
ENDBRANCH  11  20
TORSDOF 5
ENDMDL
MODEL 3
REMARK VINA RESULT:      -7.7      1.292      1.767
REMARK  Name = 
REMARK  5 active torsions:
REMARK  status: ('A' for Active; 'I' for Inactive)
REMARK    1  A    between atoms: C_8  and  O_9
REMARK    2  A    between atoms: O_9  and  C_10
REMARK    3  A    between atoms: N_19  and  C_20
REMARK    4  A    between atoms: C_20  and  C_21
REMARK    5  A    between atoms: C_21  and  C_22
REMARK                            x       y       z     vdW  Elec       q    Type
REMARK                         _______ _______ _______ _____ _____    ______ ____
ROOT
ATOM      1  O   UNL     1       3.951   1.817  18.092  0.00  0.00    +0.000 OA
ATOM      2  C   UNL     1       3.394   2.774  18.617  0.00  0.00    +0.000 A 
ATOM      3  C   UNL     1       2.803   2.511  19.973  0.00  0.00    +0.000 A 
ATOM      4  N   UNL     1       2.259   3.417  20.719  0.00  0.00    +0.000 NA
ATOM      5  C   UNL     1       2.239   4.721  20.199  0.00  0.00    +0.000 A 
ATOM      6  C   UNL     1       1.727   5.751  20.958  0.00  0.00    +0.000 A 
ATOM      7  N   UNL     1       1.689   7.031  20.559  0.00  0.00    +0.000 NA
ATOM      8  C   UNL     1       2.218   7.288  19.350  0.00  0.00    +0.000 A 
ATOM      9  N   UNL     1       2.709   6.363  18.501  0.00  0.00    +0.000 NA
ATOM     10  C   UNL     1       2.714   5.084  18.937  0.00  0.00    +0.000 A 
ATOM     11  N   UNL     1       3.240   4.053  18.095  0.00  0.00    +0.000 N 
ENDROOT
BRANCH   8  12
ATOM     12  O   UNL     1       2.262   8.603  18.895  0.00  0.00    +0.000 OA
BRANCH  12  13
ATOM     13  C   UNL     1       1.146   9.394  19.077  0.00  0.00    +0.000 A 
ATOM     14  C   UNL     1       0.289   9.534  17.980  0.00  0.00    +0.000 A 
ATOM     15  C   UNL     1      -0.845  10.345  18.071  0.00  0.00    +0.000 A 
ATOM     16  C   UNL     1      -1.125  11.023  19.258  0.00  0.00    +0.000 A 
ATOM     17  C   UNL     1      -0.257  10.901  20.342  0.00  0.00    +0.000 A 
ATOM     18 CL   UNL     1      -0.601  11.735  21.808  0.00  0.00    +0.000 Cl
ATOM     19  C   UNL     1       0.886  10.108  20.251  0.00  0.00    +0.000 A 
ENDBRANCH  12  13
ENDBRANCH   8  12
BRANCH  11  20
ATOM     20  C   UNL     1       3.814   4.422  16.787  0.00  0.00    +0.000 C 
BRANCH  20  21
ATOM     21  C   UNL     1       5.307   4.080  16.608  0.00  0.00    +0.000 C 
BRANCH  21  22
ATOM     22  C   UNL     1       6.255   5.091  17.212  0.00  0.00    +0.000 A 
ATOM     23  C   UNL     1       6.285   6.406  16.723  0.00  0.00    +0.000 A 
ATOM     24  C   UNL     1       7.098   7.368  17.324  0.00  0.00    +0.000 A 
ATOM     25  C   UNL     1       7.893   7.024  18.415  0.00  0.00    +0.000 A 
ATOM     26  C   UNL     1       7.882   5.717  18.898  0.00  0.00    +0.000 A 
ATOM     27  C   UNL     1       7.069   4.752  18.299  0.00  0.00    +0.000 A 
ENDBRANCH  21  22
ENDBRANCH  20  21
ENDBRANCH  11  20
TORSDOF 5
ENDMDL
MODEL 4
REMARK VINA RESULT:      -7.6      1.242      1.802
REMARK  Name = 
REMARK  5 active torsions:
REMARK  status: ('A' for Active; 'I' for Inactive)
REMARK    1  A    between atoms: C_8  and  O_9
REMARK    2  A    between atoms: O_9  and  C_10
REMARK    3  A    between atoms: N_19  and  C_20
REMARK    4  A    between atoms: C_20  and  C_21
REMARK    5  A    between atoms: C_21  and  C_22
REMARK                            x       y       z     vdW  Elec       q    Type
REMARK                         _______ _______ _______ _____ _____    ______ ____
ROOT
ATOM      1  O   UNL     1       3.957   2.237  18.992  0.00  0.00    +0.000 OA
ATOM      2  C   UNL     1       3.418   3.309  19.241  0.00  0.00    +0.000 A 
ATOM      3  C   UNL     1       2.946   3.479  20.657  0.00  0.00    +0.000 A 
ATOM      4  N   UNL     1       2.438   4.572  21.129  0.00  0.00    +0.000 NA
ATOM      5  C   UNL     1       2.340   5.649  20.235  0.00  0.00    +0.000 A 
ATOM      6  C   UNL     1       1.862   6.863  20.678  0.00  0.00    +0.000 A 
ATOM      7  N   UNL     1       1.755   7.956  19.908  0.00  0.00    +0.000 NA
ATOM      8  C   UNL     1       2.177   7.825  18.639  0.00  0.00    +0.000 A 
ATOM      9  N   UNL     1       2.624   6.683  18.079  0.00  0.00    +0.000 NA
ATOM     10  C   UNL     1       2.700   5.603  18.887  0.00  0.00    +0.000 A 
ATOM     11  N   UNL     1       3.186   4.362  18.363  0.00  0.00    +0.000 N 
ENDROOT
BRANCH   8  12
ATOM     12  O   UNL     1       2.148   8.933  17.796  0.00  0.00    +0.000 OA
BRANCH  12  13
ATOM     13  C   UNL     1       1.327   9.990  18.137  0.00  0.00    +0.000 A 
ATOM     14  C   UNL     1      -0.051   9.778  18.020  0.00  0.00    +0.000 A 
ATOM     15  C   UNL     1      -0.949  10.807  18.313  0.00  0.00    +0.000 A 
ATOM     16  C   UNL     1      -0.472  12.054  18.720  0.00  0.00    +0.000 A 
ATOM     17  C   UNL     1       0.901  12.270  18.814  0.00  0.00    +0.000 A 
ATOM     18 CL   UNL     1       1.491  13.807  19.317  0.00  0.00    +0.000 Cl
ATOM     19  C   UNL     1       1.802  11.253  18.505  0.00  0.00    +0.000 A 
ENDBRANCH  12  13
ENDBRANCH   8  12
BRANCH  11  20
ATOM     20  C   UNL     1       3.642   4.307  16.961  0.00  0.00    +0.000 C 
BRANCH  20  21
ATOM     21  C   UNL     1       5.129   3.946  16.771  0.00  0.00    +0.000 C 
BRANCH  21  22
ATOM     22  C   UNL     1       6.094   4.982  17.299  0.00  0.00    +0.000 A 
ATOM     23  C   UNL     1       6.035   6.303  16.829  0.00  0.00    +0.000 A 
ATOM     24  C   UNL     1       6.867   7.286  17.368  0.00  0.00    +0.000 A 
ATOM     25  C   UNL     1       7.771   6.957  18.375  0.00  0.00    +0.000 A 
ATOM     26  C   UNL     1       7.849   5.645  18.838  0.00  0.00    +0.000 A 
ATOM     27  C   UNL     1       7.016   4.659  18.301  0.00  0.00    +0.000 A 
ENDBRANCH  21  22
ENDBRANCH  20  21
ENDBRANCH  11  20
TORSDOF 5
ENDMDL
MODEL 5
REMARK VINA RESULT:      -7.4      1.016      1.463
REMARK  Name = 
REMARK  5 active torsions:
REMARK  status: ('A' for Active; 'I' for Inactive)
REMARK    1  A    between atoms: C_8  and  O_9
REMARK    2  A    between atoms: O_9  and  C_10
REMARK    3  A    between atoms: N_19  and  C_20
REMARK    4  A    between atoms: C_20  and  C_21
REMARK    5  A    between atoms: C_21  and  C_22
REMARK                            x       y       z     vdW  Elec       q    Type
REMARK                         _______ _______ _______ _____ _____    ______ ____
ROOT
ATOM      1  O   UNL     1       4.014   3.159  18.785  0.00  0.00    +0.000 OA
ATOM      2  C   UNL     1       3.363   4.129  19.152  0.00  0.00    +0.000 A 
ATOM      3  C   UNL     1       2.754   4.017  20.521  0.00  0.00    +0.000 A 
ATOM      4  N   UNL     1       2.112   4.971  21.113  0.00  0.00    +0.000 NA
ATOM      5  C   UNL     1       2.000   6.178  20.405  0.00  0.00    +0.000 A 
ATOM      6  C   UNL     1       1.379   7.258  20.993  0.00  0.00    +0.000 A 
ATOM      7  N   UNL     1       1.245   8.458  20.408  0.00  0.00    +0.000 NA
ATOM      8  C   UNL     1       1.788   8.580  19.184  0.00  0.00    +0.000 A 
ATOM      9  N   UNL     1       2.382   7.588  18.492  0.00  0.00    +0.000 NA
ATOM     10  C   UNL     1       2.481   6.392  19.112  0.00  0.00    +0.000 A 
ATOM     11  N   UNL     1       3.118   5.299  18.442  0.00  0.00    +0.000 N 
ENDROOT
BRANCH   8  12
ATOM     12  O   UNL     1       1.736   9.814  18.539  0.00  0.00    +0.000 OA
BRANCH  12  13
ATOM     13  C   UNL     1       0.519  10.460  18.466  0.00  0.00    +0.000 A 
ATOM     14  C   UNL     1       0.441  11.724  19.061  0.00  0.00    +0.000 A 
ATOM     15  C   UNL     1      -0.764  12.430  19.060  0.00  0.00    +0.000 A 
ATOM     16  C   UNL     1      -1.899  11.873  18.467  0.00  0.00    +0.000 A 
ATOM     17  C   UNL     1      -1.825  10.604  17.896  0.00  0.00    +0.000 A 
ATOM     18 CL   UNL     1      -3.223   9.916  17.163  0.00  0.00    +0.000 Cl
ATOM     19  C   UNL     1      -0.630   9.887  17.910  0.00  0.00    +0.000 A 
ENDBRANCH  12  13
ENDBRANCH   8  12
BRANCH  11  20
ATOM     20  C   UNL     1       3.700   5.522  17.105  0.00  0.00    +0.000 C 
BRANCH  20  21
ATOM     21  C   UNL     1       5.094   4.900  16.887  0.00  0.00    +0.000 C 
BRANCH  21  22
ATOM     22  C   UNL     1       6.234   5.711  17.461  0.00  0.00    +0.000 A 
ATOM     23  C   UNL     1       6.528   6.980  16.938  0.00  0.00    +0.000 A 
ATOM     24  C   UNL     1       7.525   7.770  17.512  0.00  0.00    +0.000 A 
ATOM     25  C   UNL     1       8.244   7.296  18.607  0.00  0.00    +0.000 A 
ATOM     26  C   UNL     1       7.971   6.031  19.124  0.00  0.00    +0.000 A 
ATOM     27  C   UNL     1       6.972   5.239  18.552  0.00  0.00    +0.000 A 
ENDBRANCH  21  22
ENDBRANCH  20  21
ENDBRANCH  11  20
TORSDOF 5
ENDMDL
MODEL 6
REMARK VINA RESULT:      -7.3      1.630      1.998
REMARK  Name = 
REMARK  5 active torsions:
REMARK  status: ('A' for Active; 'I' for Inactive)
REMARK    1  A    between atoms: C_8  and  O_9
REMARK    2  A    between atoms: O_9  and  C_10
REMARK    3  A    between atoms: N_19  and  C_20
REMARK    4  A    between atoms: C_20  and  C_21
REMARK    5  A    between atoms: C_21  and  C_22
REMARK                            x       y       z     vdW  Elec       q    Type
REMARK                         _______ _______ _______ _____ _____    ______ ____
ROOT
ATOM      1  O   UNL     1       4.006   1.090  17.789  0.00  0.00    +0.000 OA
ATOM      2  C   UNL     1       3.329   1.966  18.311  0.00  0.00    +0.000 A 
ATOM      3  C   UNL     1       2.137   1.483  19.087  0.00  0.00    +0.000 A 
ATOM      4  N   UNL     1       1.359   2.249  19.780  0.00  0.00    +0.000 NA
ATOM      5  C   UNL     1       1.681   3.616  19.791  0.00  0.00    +0.000 A 
ATOM      6  C   UNL     1       0.932   4.487  20.552  0.00  0.00    +0.000 A 
ATOM      7  N   UNL     1       1.177   5.803  20.647  0.00  0.00    +0.000 NA
ATOM      8  C   UNL     1       2.243   6.254  19.964  0.00  0.00    +0.000 A 
ATOM      9  N   UNL     1       3.024   5.510  19.155  0.00  0.00    +0.000 NA
ATOM     10  C   UNL     1       2.732   4.193  19.077  0.00  0.00    +0.000 A 
ATOM     11  N   UNL     1       3.533   3.340  18.252  0.00  0.00    +0.000 N 
ENDROOT
BRANCH   8  12
ATOM     12  O   UNL     1       2.590   7.600  20.060  0.00  0.00    +0.000 OA
BRANCH  12  13
ATOM     13  C   UNL     1       1.655   8.543  19.685  0.00  0.00    +0.000 A 
ATOM     14  C   UNL     1       1.531   8.795  18.315  0.00  0.00    +0.000 A 
ATOM     15  C   UNL     1       0.630   9.760  17.855  0.00  0.00    +0.000 A 
ATOM     16  C   UNL     1      -0.147  10.479  18.765  0.00  0.00    +0.000 A 
ATOM     17  C   UNL     1      -0.005  10.242  20.131  0.00  0.00    +0.000 A 
ATOM     18 CL   UNL     1      -0.962  11.128  21.254  0.00  0.00    +0.000 Cl
ATOM     19  C   UNL     1       0.905   9.295  20.597  0.00  0.00    +0.000 A 
ENDBRANCH  12  13
ENDBRANCH   8  12
BRANCH  11  20
ATOM     20  C   UNL     1       4.694   3.914  17.546  0.00  0.00    +0.000 C 
BRANCH  20  21
ATOM     21  C   UNL     1       5.914   4.225  18.438  0.00  0.00    +0.000 C 
BRANCH  21  22
ATOM     22  C   UNL     1       6.513   5.594  18.217  0.00  0.00    +0.000 A 
ATOM     23  C   UNL     1       7.668   5.978  18.917  0.00  0.00    +0.000 A 
ATOM     24  C   UNL     1       8.276   7.208  18.663  0.00  0.00    +0.000 A 
ATOM     25  C   UNL     1       7.732   8.070  17.713  0.00  0.00    +0.000 A 
ATOM     26  C   UNL     1       6.577   7.706  17.024  0.00  0.00    +0.000 A 
ATOM     27  C   UNL     1       5.967   6.474  17.276  0.00  0.00    +0.000 A 
ENDBRANCH  21  22
ENDBRANCH  20  21
ENDBRANCH  11  20
TORSDOF 5
ENDMDL
MODEL 7
REMARK VINA RESULT:      -7.3      1.463      1.954
REMARK  Name = 
REMARK  5 active torsions:
REMARK  status: ('A' for Active; 'I' for Inactive)
REMARK    1  A    between atoms: C_8  and  O_9
REMARK    2  A    between atoms: O_9  and  C_10
REMARK    3  A    between atoms: N_19  and  C_20
REMARK    4  A    between atoms: C_20  and  C_21
REMARK    5  A    between atoms: C_21  and  C_22
REMARK                            x       y       z     vdW  Elec       q    Type
REMARK                         _______ _______ _______ _____ _____    ______ ____
ROOT
ATOM      1  O   UNL     1       3.821   1.969  18.931  0.00  0.00    +0.000 OA
ATOM      2  C   UNL     1       3.313   3.045  19.224  0.00  0.00    +0.000 A 
ATOM      3  C   UNL     1       2.774   3.145  20.622  0.00  0.00    +0.000 A 
ATOM      4  N   UNL     1       2.287   4.225  21.140  0.00  0.00    +0.000 NA
ATOM      5  C   UNL     1       2.281   5.362  20.316  0.00  0.00    +0.000 A 
ATOM      6  C   UNL     1       1.830   6.565  20.815  0.00  0.00    +0.000 A 
ATOM      7  N   UNL     1       1.810   7.709  20.115  0.00  0.00    +0.000 NA
ATOM      8  C   UNL     1       2.294   7.641  18.863  0.00  0.00    +0.000 A 
ATOM      9  N   UNL     1       2.723   6.519  18.251  0.00  0.00    +0.000 NA
ATOM     10  C   UNL     1       2.711   5.387  18.988  0.00  0.00    +0.000 A 
ATOM     11  N   UNL     1       3.173   4.162  18.408  0.00  0.00    +0.000 N 
ENDROOT
BRANCH   8  12
ATOM     12  O   UNL     1       2.355   8.803  18.096  0.00  0.00    +0.000 OA
BRANCH  12  13
ATOM     13  C   UNL     1       1.301   9.691  18.172  0.00  0.00    +0.000 A 
ATOM     14  C   UNL     1       1.588  10.966  18.670  0.00  0.00    +0.000 A 
ATOM     15  C   UNL     1       0.570  11.913  18.811  0.00  0.00    +0.000 A 
ATOM     16  C   UNL     1      -0.740  11.586  18.458  0.00  0.00    +0.000 A 
ATOM     17  C   UNL     1      -1.028  10.308  17.984  0.00  0.00    +0.000 A 
ATOM     18 CL   UNL     1      -2.643   9.903  17.547  0.00  0.00    +0.000 Cl
ATOM     19  C   UNL     1      -0.020   9.353  17.859  0.00  0.00    +0.000 A 
ENDBRANCH  12  13
ENDBRANCH   8  12
BRANCH  11  20
ATOM     20  C   UNL     1       3.700   4.178  17.030  0.00  0.00    +0.000 C 
BRANCH  20  21
ATOM     21  C   UNL     1       5.117   4.768  16.880  0.00  0.00    +0.000 C 
BRANCH  21  22
ATOM     22  C   UNL     1       5.706   4.629  15.494  0.00  0.00    +0.000 A 
ATOM     23  C   UNL     1       6.974   5.160  15.212  0.00  0.00    +0.000 A 
ATOM     24  C   UNL     1       7.561   4.968  13.961  0.00  0.00    +0.000 A 
ATOM     25  C   UNL     1       6.883   4.252  12.977  0.00  0.00    +0.000 A 
ATOM     26  C   UNL     1       5.616   3.735  13.241  0.00  0.00    +0.000 A 
ATOM     27  C   UNL     1       5.027   3.924  14.494  0.00  0.00    +0.000 A 
ENDBRANCH  21  22
ENDBRANCH  20  21
ENDBRANCH  11  20
TORSDOF 5
ENDMDL
MODEL 8
REMARK VINA RESULT:      -7.1      1.763      2.405
REMARK  Name = 
REMARK  5 active torsions:
REMARK  status: ('A' for Active; 'I' for Inactive)
REMARK    1  A    between atoms: C_8  and  O_9
REMARK    2  A    between atoms: O_9  and  C_10
REMARK    3  A    between atoms: N_19  and  C_20
REMARK    4  A    between atoms: C_20  and  C_21
REMARK    5  A    between atoms: C_21  and  C_22
REMARK                            x       y       z     vdW  Elec       q    Type
REMARK                         _______ _______ _______ _____ _____    ______ ____
ROOT
ATOM      1  O   UNL     1       3.725   2.005  18.969  0.00  0.00    +0.000 OA
ATOM      2  C   UNL     1       3.219   3.084  19.252  0.00  0.00    +0.000 A 
ATOM      3  C   UNL     1       2.635   3.179  20.633  0.00  0.00    +0.000 A 
ATOM      4  N   UNL     1       2.141   4.261  21.142  0.00  0.00    +0.000 NA
ATOM      5  C   UNL     1       2.174   5.404  20.326  0.00  0.00    +0.000 A 
ATOM      6  C   UNL     1       1.719   6.607  20.819  0.00  0.00    +0.000 A 
ATOM      7  N   UNL     1       1.733   7.757  20.127  0.00  0.00    +0.000 NA
ATOM      8  C   UNL     1       2.257   7.693  18.891  0.00  0.00    +0.000 A 
ATOM      9  N   UNL     1       2.695   6.571  18.286  0.00  0.00    +0.000 NA
ATOM     10  C   UNL     1       2.648   5.433  19.013  0.00  0.00    +0.000 A 
ATOM     11  N   UNL     1       3.116   4.208  18.440  0.00  0.00    +0.000 N 
ENDROOT
BRANCH   8  12
ATOM     12  O   UNL     1       2.355   8.859  18.135  0.00  0.00    +0.000 OA
BRANCH  12  13
ATOM     13  C   UNL     1       1.381   9.823  18.295  0.00  0.00    +0.000 A 
ATOM     14  C   UNL     1       0.071   9.454  17.974  0.00  0.00    +0.000 A 
ATOM     15  C   UNL     1      -0.969  10.382  18.077  0.00  0.00    +0.000 A 
ATOM     16  C   UNL     1      -0.701  11.685  18.497  0.00  0.00    +0.000 A 
ATOM     17  C   UNL     1       0.609  12.058  18.794  0.00  0.00    +0.000 A 
ATOM     18 CL   UNL     1       0.941  13.666  19.313  0.00  0.00    +0.000 Cl
ATOM     19  C   UNL     1       1.652  11.142  18.676  0.00  0.00    +0.000 A 
ENDBRANCH  12  13
ENDBRANCH   8  12
BRANCH  11  20
ATOM     20  C   UNL     1       3.690   4.228  17.081  0.00  0.00    +0.000 C 
BRANCH  20  21
ATOM     21  C   UNL     1       5.167   4.663  17.001  0.00  0.00    +0.000 C 
BRANCH  21  22
ATOM     22  C   UNL     1       5.789   4.505  15.632  0.00  0.00    +0.000 A 
ATOM     23  C   UNL     1       5.155   3.719  14.658  0.00  0.00    +0.000 A 
ATOM     24  C   UNL     1       5.678   3.631  13.367  0.00  0.00    +0.000 A 
ATOM     25  C   UNL     1       6.843   4.322  13.039  0.00  0.00    +0.000 A 
ATOM     26  C   UNL     1       7.489   5.092  14.004  0.00  0.00    +0.000 A 
ATOM     27  C   UNL     1       6.967   5.183  15.297  0.00  0.00    +0.000 A 
ENDBRANCH  21  22
ENDBRANCH  20  21
ENDBRANCH  11  20
TORSDOF 5
ENDMDL
MODEL 9
REMARK VINA RESULT:      -7.1      2.273      2.924
REMARK  Name = 
REMARK  5 active torsions:
REMARK  status: ('A' for Active; 'I' for Inactive)
REMARK    1  A    between atoms: C_8  and  O_9
REMARK    2  A    between atoms: O_9  and  C_10
REMARK    3  A    between atoms: N_19  and  C_20
REMARK    4  A    between atoms: C_20  and  C_21
REMARK    5  A    between atoms: C_21  and  C_22
REMARK                            x       y       z     vdW  Elec       q    Type
REMARK                         _______ _______ _______ _____ _____    ______ ____
ROOT
ATOM      1  O   UNL     1       5.967   3.794  17.627  0.00  0.00    +0.000 OA
ATOM      2  C   UNL     1       5.060   4.509  18.034  0.00  0.00    +0.000 A 
ATOM      3  C   UNL     1       4.407   4.058  19.309  0.00  0.00    +0.000 A 
ATOM      4  N   UNL     1       3.497   4.729  19.939  0.00  0.00    +0.000 NA
ATOM      5  C   UNL     1       3.123   5.956  19.368  0.00  0.00    +0.000 A 
ATOM      6  C   UNL     1       2.201   6.754  20.009  0.00  0.00    +0.000 A 
ATOM      7  N   UNL     1       1.800   7.952  19.558  0.00  0.00    +0.000 NA
ATOM      8  C   UNL     1       2.377   8.375  18.420  0.00  0.00    +0.000 A 
ATOM      9  N   UNL     1       3.257   7.670  17.682  0.00  0.00    +0.000 NA
ATOM     10  C   UNL     1       3.622   6.462  18.166  0.00  0.00    +0.000 A 
ATOM     11  N   UNL     1       4.569   5.668  17.444  0.00  0.00    +0.000 N 
ENDROOT
BRANCH   8  12
ATOM     12  O   UNL     1       2.050   9.634  17.921  0.00  0.00    +0.000 OA
BRANCH  12  13
ATOM     13  C   UNL     1       0.845  10.192  18.299  0.00  0.00    +0.000 A 
ATOM     14  C   UNL     1       0.898  11.212  19.254  0.00  0.00    +0.000 A 
ATOM     15  C   UNL     1      -0.279  11.807  19.716  0.00  0.00    +0.000 A 
ATOM     16  C   UNL     1      -1.515  11.380  19.226  0.00  0.00    +0.000 A 
ATOM     17  C   UNL     1      -1.566  10.347  18.292  0.00  0.00    +0.000 A 
ATOM     18 CL   UNL     1      -3.089   9.819  17.687  0.00  0.00    +0.000 Cl
ATOM     19  C   UNL     1      -0.396   9.737  17.842  0.00  0.00    +0.000 A 
ENDBRANCH  12  13
ENDBRANCH   8  12
BRANCH  11  20
ATOM     20  C   UNL     1       5.165   6.213  16.210  0.00  0.00    +0.000 C 
BRANCH  20  21
ATOM     21  C   UNL     1       6.528   5.606  15.818  0.00  0.00    +0.000 C 
BRANCH  21  22
ATOM     22  C   UNL     1       6.558   4.978  14.444  0.00  0.00    +0.000 A 
ATOM     23  C   UNL     1       7.567   5.327  13.533  0.00  0.00    +0.000 A 
ATOM     24  C   UNL     1       7.652   4.695  12.292  0.00  0.00    +0.000 A 
ATOM     25  C   UNL     1       6.725   3.715  11.945  0.00  0.00    +0.000 A 
ATOM     26  C   UNL     1       5.710   3.372  12.836  0.00  0.00    +0.000 A 
ATOM     27  C   UNL     1       5.623   4.002  14.080  0.00  0.00    +0.000 A 
ENDBRANCH  21  22
ENDBRANCH  20  21
ENDBRANCH  11  20
TORSDOF 5
ENDMDL
