MODEL 1
REMARK VINA RESULT:      -8.6      0.000      0.000
REMARK  Name = 
REMARK  4 active torsions:
REMARK  status: ('A' for Active; 'I' for Inactive)
REMARK    1  A    between atoms: C_2  and  C_7
REMARK    2  A    between atoms: N_3  and  C_4
REMARK    3  A    between atoms: C_10  and  N_11
REMARK    4  A    between atoms: C_15  and  C_16
REMARK                            x       y       z     vdW  Elec       q    Type
REMARK                         _______ _______ _______ _____ _____    ______ ____
ROOT
ATOM      1  C   UNL     1       8.539   9.066  18.444  0.00  0.00    +0.000 A 
ATOM      2  C   UNL     1       7.620   9.097  17.403  0.00  0.00    +0.000 A 
ATOM      3  N   UNL     1       6.851   8.034  17.009  0.00  0.00    +0.000 NA
ATOM      4  C   UNL     1       6.994   6.830  17.631  0.00  0.00    +0.000 A 
ATOM      5  C   UNL     1       7.944   6.714  18.663  0.00  0.00    +0.000 A 
ATOM      6 CL   UNL     1       8.131   5.282  19.625  0.00  0.00    +0.000 Cl
ATOM      7  C   UNL     1       8.700   7.833  19.072  0.00  0.00    +0.000 A 
ENDROOT
BRANCH   4   8
ATOM      8  N   UNL     1       6.067   5.823  17.337  0.00  0.00    +0.000 N 
ATOM      9  C   UNL     1       6.572   4.677  16.573  0.00  0.00    +0.000 C 
ATOM     10  C   UNL     1       5.418   4.138  15.725  0.00  0.00    +0.000 C 
ATOM     11  C   UNL     1       4.230   3.729  16.592  0.00  0.00    +0.000 C 
ATOM     12  C   UNL     1       3.803   4.852  17.567  0.00  0.00    +0.000 C 
ATOM     13  C   UNL     1       5.031   5.438  18.325  0.00  0.00    +0.000 C 
BRANCH  12  14
ATOM     14  C   UNL     1       2.675   4.374  18.477  0.00  0.00    +0.000 A 
ATOM     15  C   UNL     1       2.377   5.012  19.692  0.00  0.00    +0.000 A 
ATOM     16  C   UNL     1       1.392   4.507  20.548  0.00  0.00    +0.000 A 
ATOM     17  C   UNL     1       0.678   3.364  20.197  0.00  0.00    +0.000 A 
ATOM     18  C   UNL     1       0.950   2.725  18.990  0.00  0.00    +0.000 A 
ATOM     19  C   UNL     1       1.940   3.226  18.137  0.00  0.00    +0.000 A 
ENDBRANCH  12  14
ENDBRANCH   4   8
BRANCH   1  21
ATOM     20  O   UNL     1       9.322  10.581  20.064  0.00  0.00    +0.000 OA
ATOM     21  C   UNL     1       9.213  10.340  18.864  0.00  0.00    +0.000 C 
ATOM     22  N   UNL     1       9.691  11.186  17.873  0.00  0.00    +0.000 N 
ATOM     23  H   UNL     1       9.558  10.967  16.897  0.00  0.00    +0.000 HD
BRANCH  22  24
ATOM     24  C   UNL     1      10.388  12.411  18.155  0.00  0.00    +0.000 C 
ATOM     25  C   UNL     1      11.889  12.465  18.281  0.00  0.00    +0.000 C 
ATOM     26  C   UNL     1      11.222  13.066  17.079  0.00  0.00    +0.000 C 
ENDBRANCH  22  24
ENDBRANCH   1  21
TORSDOF 4
ENDMDL
MODEL 2
REMARK VINA RESULT:      -8.3      1.280      1.537
REMARK  Name = 
REMARK  4 active torsions:
REMARK  status: ('A' for Active; 'I' for Inactive)
REMARK    1  A    between atoms: C_2  and  C_7
REMARK    2  A    between atoms: N_3  and  C_4
REMARK    3  A    between atoms: C_10  and  N_11
REMARK    4  A    between atoms: C_15  and  C_16
REMARK                            x       y       z     vdW  Elec       q    Type
REMARK                         _______ _______ _______ _____ _____    ______ ____
ROOT
ATOM      1  C   UNL     1       8.562   9.108  18.434  0.00  0.00    +0.000 A 
ATOM      2  C   UNL     1       7.654   9.127  17.383  0.00  0.00    +0.000 A 
ATOM      3  N   UNL     1       6.888   8.061  16.993  0.00  0.00    +0.000 NA
ATOM      4  C   UNL     1       7.023   6.864  17.632  0.00  0.00    +0.000 A 
ATOM      5  C   UNL     1       7.963   6.759  18.675  0.00  0.00    +0.000 A 
ATOM      6 CL   UNL     1       8.138   5.339  19.655  0.00  0.00    +0.000 Cl
ATOM      7  C   UNL     1       8.715   7.882  19.078  0.00  0.00    +0.000 A 
ENDROOT
BRANCH   4   8
ATOM      8  N   UNL     1       6.099   5.855  17.339  0.00  0.00    +0.000 N 
ATOM      9  C   UNL     1       6.607   4.707  16.579  0.00  0.00    +0.000 C 
ATOM     10  C   UNL     1       5.455   4.164  15.732  0.00  0.00    +0.000 C 
ATOM     11  C   UNL     1       4.266   3.755  16.598  0.00  0.00    +0.000 C 
ATOM     12  C   UNL     1       3.837   4.879  17.570  0.00  0.00    +0.000 C 
ATOM     13  C   UNL     1       5.063   5.470  18.327  0.00  0.00    +0.000 C 
BRANCH  12  14
ATOM     14  C   UNL     1       2.709   4.402  18.481  0.00  0.00    +0.000 A 
ATOM     15  C   UNL     1       2.415   5.037  19.698  0.00  0.00    +0.000 A 
ATOM     16  C   UNL     1       1.429   4.532  20.554  0.00  0.00    +0.000 A 
ATOM     17  C   UNL     1       0.712   3.392  20.201  0.00  0.00    +0.000 A 
ATOM     18  C   UNL     1       0.981   2.756  18.992  0.00  0.00    +0.000 A 
ATOM     19  C   UNL     1       1.971   3.257  18.138  0.00  0.00    +0.000 A 
ENDBRANCH  12  14
ENDBRANCH   4   8
BRANCH   1  21
ATOM     20  O   UNL     1       9.652  11.141  17.972  0.00  0.00    +0.000 OA
ATOM     21  C   UNL     1       9.232  10.386  18.846  0.00  0.00    +0.000 C 
ATOM     22  N   UNL     1       9.340  10.661  20.202  0.00  0.00    +0.000 N 
ATOM     23  H   UNL     1       9.008  10.004  20.892  0.00  0.00    +0.000 HD
BRANCH  22  24
ATOM     24  C   UNL     1       9.924  11.871  20.716  0.00  0.00    +0.000 C 
ATOM     25  C   UNL     1       9.195  13.189  20.675  0.00  0.00    +0.000 C 
ATOM     26  C   UNL     1       9.385  12.485  21.986  0.00  0.00    +0.000 C 
ENDBRANCH  22  24
ENDBRANCH   1  21
TORSDOF 4
ENDMDL
MODEL 3
REMARK VINA RESULT:      -7.9      1.259      1.721
REMARK  Name = 
REMARK  4 active torsions:
REMARK  status: ('A' for Active; 'I' for Inactive)
REMARK    1  A    between atoms: C_2  and  C_7
REMARK    2  A    between atoms: N_3  and  C_4
REMARK    3  A    between atoms: C_10  and  N_11
REMARK    4  A    between atoms: C_15  and  C_16
REMARK                            x       y       z     vdW  Elec       q    Type
REMARK                         _______ _______ _______ _____ _____    ______ ____
ROOT
ATOM      1  C   UNL     1       8.489   9.106  18.301  0.00  0.00    +0.000 A 
ATOM      2  C   UNL     1       7.585   9.028  17.250  0.00  0.00    +0.000 A 
ATOM      3  N   UNL     1       6.865   7.910  16.920  0.00  0.00    +0.000 NA
ATOM      4  C   UNL     1       7.048   6.758  17.626  0.00  0.00    +0.000 A 
ATOM      5  C   UNL     1       7.987   6.752  18.674  0.00  0.00    +0.000 A 
ATOM      6 CL   UNL     1       8.218   5.398  19.734  0.00  0.00    +0.000 Cl
ATOM      7  C   UNL     1       8.691   7.926  19.014  0.00  0.00    +0.000 A 
ENDROOT
BRANCH   4   8
ATOM      8  N   UNL     1       6.167   5.696  17.390  0.00  0.00    +0.000 N 
ATOM      9  C   UNL     1       6.725   4.530  16.696  0.00  0.00    +0.000 C 
ATOM     10  C   UNL     1       5.599   3.893  15.879  0.00  0.00    +0.000 C 
ATOM     11  C   UNL     1       4.426   3.483  16.767  0.00  0.00    +0.000 C 
ATOM     12  C   UNL     1       3.947   4.642  17.673  0.00  0.00    +0.000 C 
ATOM     13  C   UNL     1       5.145   5.325  18.397  0.00  0.00    +0.000 C 
BRANCH  12  14
ATOM     14  C   UNL     1       2.837   4.169  18.608  0.00  0.00    +0.000 A 
ATOM     15  C   UNL     1       1.941   3.150  18.246  0.00  0.00    +0.000 A 
ATOM     16  C   UNL     1       0.882   2.790  19.087  0.00  0.00    +0.000 A 
ATOM     17  C   UNL     1       0.710   3.431  20.310  0.00  0.00    +0.000 A 
ATOM     18  C   UNL     1       1.597   4.435  20.693  0.00  0.00    +0.000 A 
ATOM     19  C   UNL     1       2.651   4.801  19.849  0.00  0.00    +0.000 A 
ENDBRANCH  12  14
ENDBRANCH   4   8
BRANCH   1  21
ATOM     20  O   UNL     1       9.722  11.037  17.768  0.00  0.00    +0.000 OA
ATOM     21  C   UNL     1       9.104  10.432  18.641  0.00  0.00    +0.000 C 
ATOM     22  N   UNL     1       8.939  10.919  19.930  0.00  0.00    +0.000 N 
ATOM     23  H   UNL     1       8.449  10.380  20.629  0.00  0.00    +0.000 HD
BRANCH  22  24
ATOM     24  C   UNL     1       9.447  12.194  20.360  0.00  0.00    +0.000 C 
ATOM     25  C   UNL     1       9.607  12.538  21.819  0.00  0.00    +0.000 C 
ATOM     26  C   UNL     1      10.823  12.286  20.978  0.00  0.00    +0.000 C 
ENDBRANCH  22  24
ENDBRANCH   1  21
TORSDOF 4
ENDMDL
MODEL 4
REMARK VINA RESULT:      -7.9      0.762      1.041
REMARK  Name = 
REMARK  4 active torsions:
REMARK  status: ('A' for Active; 'I' for Inactive)
REMARK    1  A    between atoms: C_2  and  C_7
REMARK    2  A    between atoms: N_3  and  C_4
REMARK    3  A    between atoms: C_10  and  N_11
REMARK    4  A    between atoms: C_15  and  C_16
REMARK                            x       y       z     vdW  Elec       q    Type
REMARK                         _______ _______ _______ _____ _____    ______ ____
ROOT
ATOM      1  C   UNL     1       8.479   9.162  18.417  0.00  0.00    +0.000 A 
ATOM      2  C   UNL     1       7.534   9.164  17.400  0.00  0.00    +0.000 A 
ATOM      3  N   UNL     1       6.785   8.079  17.028  0.00  0.00    +0.000 NA
ATOM      4  C   UNL     1       6.977   6.881  17.650  0.00  0.00    +0.000 A 
ATOM      5  C   UNL     1       7.956   6.795  18.657  0.00  0.00    +0.000 A 
ATOM      6 CL   UNL     1       8.207   5.372  19.617  0.00  0.00    +0.000 Cl
ATOM      7  C   UNL     1       8.690   7.936  19.043  0.00  0.00    +0.000 A 
ENDROOT
BRANCH   4   8
ATOM      8  N   UNL     1       6.071   5.848  17.381  0.00  0.00    +0.000 N 
ATOM      9  C   UNL     1       6.586   4.718  16.600  0.00  0.00    +0.000 C 
ATOM     10  C   UNL     1       5.424   4.147  15.786  0.00  0.00    +0.000 C 
ATOM     11  C   UNL     1       4.274   3.702  16.688  0.00  0.00    +0.000 C 
ATOM     12  C   UNL     1       3.845   4.811  17.677  0.00  0.00    +0.000 C 
ATOM     13  C   UNL     1       5.077   5.432  18.399  0.00  0.00    +0.000 C 
BRANCH  12  14
ATOM     14  C   UNL     1       2.759   4.299  18.620  0.00  0.00    +0.000 A 
ATOM     15  C   UNL     1       2.758   4.606  19.991  0.00  0.00    +0.000 A 
ATOM     16  C   UNL     1       1.797   4.059  20.850  0.00  0.00    +0.000 A 
ATOM     17  C   UNL     1       0.815   3.208  20.351  0.00  0.00    +0.000 A 
ATOM     18  C   UNL     1       0.793   2.903  18.993  0.00  0.00    +0.000 A 
ATOM     19  C   UNL     1       1.757   3.444  18.134  0.00  0.00    +0.000 A 
ENDBRANCH  12  14
ENDBRANCH   4   8
BRANCH   1  21
ATOM     20  O   UNL     1       9.850  10.470  19.811  0.00  0.00    +0.000 OA
ATOM     21  C   UNL     1       9.128  10.455  18.817  0.00  0.00    +0.000 C 
ATOM     22  N   UNL     1       8.886  11.578  18.037  0.00  0.00    +0.000 N 
ATOM     23  H   UNL     1       8.264  11.533  17.244  0.00  0.00    +0.000 HD
BRANCH  22  24
ATOM     24  C   UNL     1       9.483  12.859  18.298  0.00  0.00    +0.000 C 
ATOM     25  C   UNL     1       8.794  14.149  17.933  0.00  0.00    +0.000 C 
ATOM     26  C   UNL     1       8.910  13.751  19.375  0.00  0.00    +0.000 C 
ENDBRANCH  22  24
ENDBRANCH   1  21
TORSDOF 4
ENDMDL
MODEL 5
REMARK VINA RESULT:      -7.5      6.461      8.369
REMARK  Name = 
REMARK  4 active torsions:
REMARK  status: ('A' for Active; 'I' for Inactive)
REMARK    1  A    between atoms: C_2  and  C_7
REMARK    2  A    between atoms: N_3  and  C_4
REMARK    3  A    between atoms: C_10  and  N_11
REMARK    4  A    between atoms: C_15  and  C_16
REMARK                            x       y       z     vdW  Elec       q    Type
REMARK                         _______ _______ _______ _____ _____    ______ ____
ROOT
ATOM      1  C   UNL     1       3.338   6.863  18.414  0.00  0.00    +0.000 A 
ATOM      2  C   UNL     1       3.089   7.789  17.410  0.00  0.00    +0.000 A 
ATOM      3  N   UNL     1       2.208   8.833  17.512  0.00  0.00    +0.000 NA
ATOM      4  C   UNL     1       1.476   8.989  18.652  0.00  0.00    +0.000 A 
ATOM      5  C   UNL     1       1.643   8.056  19.692  0.00  0.00    +0.000 A 
ATOM      6 CL   UNL     1       0.877   8.214  21.241  0.00  0.00    +0.000 Cl
ATOM      7  C   UNL     1       2.580   7.009  19.574  0.00  0.00    +0.000 A 
ENDROOT
BRANCH   4   8
ATOM      8  N   UNL     1       0.732  10.165  18.799  0.00  0.00    +0.000 N 
ATOM      9  C   UNL     1       1.486  11.423  18.756  0.00  0.00    +0.000 C 
ATOM     10  C   UNL     1       0.759  12.433  19.645  0.00  0.00    +0.000 C 
ATOM     11  C   UNL     1      -0.681  12.650  19.184  0.00  0.00    +0.000 C 
ATOM     12  C   UNL     1      -1.447  11.317  19.014  0.00  0.00    +0.000 C 
ATOM     13  C   UNL     1      -0.616  10.288  18.193  0.00  0.00    +0.000 C 
BRANCH  12  14
ATOM     14  C   UNL     1      -2.849  11.569  18.466  0.00  0.00    +0.000 A 
ATOM     15  C   UNL     1      -3.879  12.092  19.265  0.00  0.00    +0.000 A 
ATOM     16  C   UNL     1      -5.177  12.239  18.762  0.00  0.00    +0.000 A 
ATOM     17  C   UNL     1      -5.463  11.879  17.448  0.00  0.00    +0.000 A 
ATOM     18  C   UNL     1      -4.452  11.372  16.636  0.00  0.00    +0.000 A 
ATOM     19  C   UNL     1      -3.156  11.218  17.141  0.00  0.00    +0.000 A 
ENDBRANCH  12  14
ENDBRANCH   4   8
BRANCH   1  21
ATOM     20  O   UNL     1       4.703   5.094  19.152  0.00  0.00    +0.000 OA
ATOM     21  C   UNL     1       4.432   5.852  18.223  0.00  0.00    +0.000 C 
ATOM     22  N   UNL     1       5.083   5.816  16.998  0.00  0.00    +0.000 N 
ATOM     23  H   UNL     1       4.852   6.473  16.269  0.00  0.00    +0.000 HD
BRANCH  22  24
ATOM     24  C   UNL     1       6.117   4.867  16.685  0.00  0.00    +0.000 C 
ATOM     25  C   UNL     1       5.935   3.808  15.628  0.00  0.00    +0.000 C 
ATOM     26  C   UNL     1       6.854   4.965  15.370  0.00  0.00    +0.000 C 
ENDBRANCH  22  24
ENDBRANCH   1  21
TORSDOF 4
ENDMDL
MODEL 6
REMARK VINA RESULT:      -7.4      6.437      8.449
REMARK  Name = 
REMARK  4 active torsions:
REMARK  status: ('A' for Active; 'I' for Inactive)
REMARK    1  A    between atoms: C_2  and  C_7
REMARK    2  A    between atoms: N_3  and  C_4
REMARK    3  A    between atoms: C_10  and  N_11
REMARK    4  A    between atoms: C_15  and  C_16
REMARK                            x       y       z     vdW  Elec       q    Type
REMARK                         _______ _______ _______ _____ _____    ______ ____
ROOT
ATOM      1  C   UNL     1       3.316   6.782  18.451  0.00  0.00    +0.000 A 
ATOM      2  C   UNL     1       3.082   7.689  17.426  0.00  0.00    +0.000 A 
ATOM      3  N   UNL     1       2.209   8.742  17.500  0.00  0.00    +0.000 NA
ATOM      4  C   UNL     1       1.469   8.927  18.629  0.00  0.00    +0.000 A 
ATOM      5  C   UNL     1       1.620   8.014  19.690  0.00  0.00    +0.000 A 
ATOM      6 CL   UNL     1       0.842   8.210  21.229  0.00  0.00    +0.000 Cl
ATOM      7  C   UNL     1       2.550   6.958  19.601  0.00  0.00    +0.000 A 
ENDROOT
BRANCH   4   8
ATOM      8  N   UNL     1       0.733  10.112  18.747  0.00  0.00    +0.000 N 
ATOM      9  C   UNL     1       1.479  11.362  18.561  0.00  0.00    +0.000 C 
ATOM     10  C   UNL     1       0.813  12.433  19.427  0.00  0.00    +0.000 C 
ATOM     11  C   UNL     1      -0.656  12.620  19.056  0.00  0.00    +0.000 C 
ATOM     12  C   UNL     1      -1.429  11.280  19.036  0.00  0.00    +0.000 C 
ATOM     13  C   UNL     1      -0.655  10.194  18.232  0.00  0.00    +0.000 C 
BRANCH  12  14
ATOM     14  C   UNL     1      -2.867  11.495  18.573  0.00  0.00    +0.000 A 
ATOM     15  C   UNL     1      -3.292  11.152  17.279  0.00  0.00    +0.000 A 
ATOM     16  C   UNL     1      -4.595  11.433  16.851  0.00  0.00    +0.000 A 
ATOM     17  C   UNL     1      -5.498  12.049  17.713  0.00  0.00    +0.000 A 
ATOM     18  C   UNL     1      -5.098  12.385  19.005  0.00  0.00    +0.000 A 
ATOM     19  C   UNL     1      -3.794  12.110  19.431  0.00  0.00    +0.000 A 
ENDBRANCH  12  14
ENDBRANCH   4   8
BRANCH   1  21
ATOM     20  O   UNL     1       4.966   5.333  19.295  0.00  0.00    +0.000 OA
ATOM     21  C   UNL     1       4.402   5.759  18.289  0.00  0.00    +0.000 C 
ATOM     22  N   UNL     1       4.717   5.334  17.006  0.00  0.00    +0.000 N 
ATOM     23  H   UNL     1       4.251   5.727  16.202  0.00  0.00    +0.000 HD
BRANCH  22  24
ATOM     24  C   UNL     1       5.709   4.331  16.731  0.00  0.00    +0.000 C 
ATOM     25  C   UNL     1       6.017   3.877  15.327  0.00  0.00    +0.000 C 
ATOM     26  C   UNL     1       7.010   4.721  16.070  0.00  0.00    +0.000 C 
ENDBRANCH  22  24
ENDBRANCH   1  21
TORSDOF 4
ENDMDL
MODEL 7
REMARK VINA RESULT:      -7.2      6.556      8.589
REMARK  Name = 
REMARK  4 active torsions:
REMARK  status: ('A' for Active; 'I' for Inactive)
REMARK    1  A    between atoms: C_2  and  C_7
REMARK    2  A    between atoms: N_3  and  C_4
REMARK    3  A    between atoms: C_10  and  N_11
REMARK    4  A    between atoms: C_15  and  C_16
REMARK                            x       y       z     vdW  Elec       q    Type
REMARK                         _______ _______ _______ _____ _____    ______ ____
ROOT
ATOM      1  C   UNL     1       2.901   6.837  18.454  0.00  0.00    +0.000 A 
ATOM      2  C   UNL     1       2.686   7.892  17.577  0.00  0.00    +0.000 A 
ATOM      3  N   UNL     1       2.037   9.054  17.897  0.00  0.00    +0.000 NA
ATOM      4  C   UNL     1       1.515   9.213  19.147  0.00  0.00    +0.000 A 
ATOM      5  C   UNL     1       1.652   8.162  20.073  0.00  0.00    +0.000 A 
ATOM      6 CL   UNL     1       1.155   8.286  21.730  0.00  0.00    +0.000 Cl
ATOM      7  C   UNL     1       2.354   6.989  19.727  0.00  0.00    +0.000 A 
ENDROOT
BRANCH   4   8
ATOM      8  N   UNL     1       1.028  10.477  19.501  0.00  0.00    +0.000 N 
ATOM      9  C   UNL     1       1.537  11.612  18.721  0.00  0.00    +0.000 C 
ATOM     10  C   UNL     1       1.558  12.834  19.640  0.00  0.00    +0.000 C 
ATOM     11  C   UNL     1       0.169  13.140  20.197  0.00  0.00    +0.000 C 
ATOM     12  C   UNL     1      -0.488  11.898  20.843  0.00  0.00    +0.000 C 
ATOM     13  C   UNL     1      -0.385  10.655  19.910  0.00  0.00    +0.000 C 
BRANCH  12  14
ATOM     14  C   UNL     1      -1.907  12.219  21.304  0.00  0.00    +0.000 A 
ATOM     15  C   UNL     1      -2.906  12.632  20.407  0.00  0.00    +0.000 A 
ATOM     16  C   UNL     1      -4.177  12.999  20.865  0.00  0.00    +0.000 A 
ATOM     17  C   UNL     1      -4.475  12.944  22.223  0.00  0.00    +0.000 A 
ATOM     18  C   UNL     1      -3.502  12.524  23.126  0.00  0.00    +0.000 A 
ATOM     19  C   UNL     1      -2.228  12.164  22.670  0.00  0.00    +0.000 A 
ENDBRANCH  12  14
ENDBRANCH   4   8
BRANCH   1  21
ATOM     20  O   UNL     1       3.213   4.740  17.435  0.00  0.00    +0.000 OA
ATOM     21  C   UNL     1       3.751   5.681  18.016  0.00  0.00    +0.000 C 
ATOM     22  N   UNL     1       5.113   5.732  18.280  0.00  0.00    +0.000 N 
ATOM     23  H   UNL     1       5.514   6.508  18.783  0.00  0.00    +0.000 HD
BRANCH  22  24
ATOM     24  C   UNL     1       6.032   4.704  17.872  0.00  0.00    +0.000 C 
ATOM     25  C   UNL     1       6.890   4.843  16.641  0.00  0.00    +0.000 C 
ATOM     26  C   UNL     1       7.520   4.932  17.999  0.00  0.00    +0.000 C 
ENDBRANCH  22  24
ENDBRANCH   1  21
TORSDOF 4
ENDMDL
MODEL 8
REMARK VINA RESULT:      -7.1      6.851      9.433
REMARK  Name = 
REMARK  4 active torsions:
REMARK  status: ('A' for Active; 'I' for Inactive)
REMARK    1  A    between atoms: C_2  and  C_7
REMARK    2  A    between atoms: N_3  and  C_4
REMARK    3  A    between atoms: C_10  and  N_11
REMARK    4  A    between atoms: C_15  and  C_16
REMARK                            x       y       z     vdW  Elec       q    Type
REMARK                         _______ _______ _______ _____ _____    ______ ____
ROOT
ATOM      1  C   UNL     1       2.475   7.264  18.585  0.00  0.00    +0.000 A 
ATOM      2  C   UNL     1       2.170   8.347  17.772  0.00  0.00    +0.000 A 
ATOM      3  N   UNL     1       1.555   9.494  18.198  0.00  0.00    +0.000 NA
ATOM      4  C   UNL     1       1.163   9.607  19.499  0.00  0.00    +0.000 A 
ATOM      5  C   UNL     1       1.397   8.525  20.369  0.00  0.00    +0.000 A 
ATOM      6 CL   UNL     1       1.073   8.589  22.072  0.00  0.00    +0.000 Cl
ATOM      7  C   UNL     1       2.062   7.368  19.911  0.00  0.00    +0.000 A 
ENDROOT
BRANCH   4   8
ATOM      8  N   UNL     1       0.714  10.855  19.945  0.00  0.00    +0.000 N 
ATOM      9  C   UNL     1       1.228  12.027  19.227  0.00  0.00    +0.000 C 
ATOM     10  C   UNL     1       1.298  13.187  20.221  0.00  0.00    +0.000 C 
ATOM     11  C   UNL     1      -0.070  13.485  20.832  0.00  0.00    +0.000 C 
ATOM     12  C   UNL     1      -0.738  12.217  21.415  0.00  0.00    +0.000 C 
ATOM     13  C   UNL     1      -0.685  11.035  20.402  0.00  0.00    +0.000 C 
BRANCH  12  14
ATOM     14  C   UNL     1      -2.137  12.537  21.932  0.00  0.00    +0.000 A 
ATOM     15  C   UNL     1      -2.489  12.371  23.282  0.00  0.00    +0.000 A 
ATOM     16  C   UNL     1      -3.800  12.594  23.717  0.00  0.00    +0.000 A 
ATOM     17  C   UNL     1      -4.779  12.999  22.814  0.00  0.00    +0.000 A 
ATOM     18  C   UNL     1      -4.446  13.181  21.473  0.00  0.00    +0.000 A 
ATOM     19  C   UNL     1      -3.137  12.952  21.036  0.00  0.00    +0.000 A 
ENDBRANCH  12  14
ENDBRANCH   4   8
BRANCH   1  21
ATOM     20  O   UNL     1       4.462   6.319  17.752  0.00  0.00    +0.000 OA
ATOM     21  C   UNL     1       3.278   6.128  18.021  0.00  0.00    +0.000 C 
ATOM     22  N   UNL     1       2.645   4.906  17.837  0.00  0.00    +0.000 N 
ATOM     23  H   UNL     1       1.663   4.795  18.044  0.00  0.00    +0.000 HD
BRANCH  22  24
ATOM     24  C   UNL     1       3.320   3.737  17.343  0.00  0.00    +0.000 C 
ATOM     25  C   UNL     1       3.985   2.750  18.267  0.00  0.00    +0.000 C 
ATOM     26  C   UNL     1       2.716   2.371  17.563  0.00  0.00    +0.000 C 
ENDBRANCH  22  24
ENDBRANCH   1  21
TORSDOF 4
ENDMDL
MODEL 9
REMARK VINA RESULT:      -7.1      5.564      8.152
REMARK  Name = 
REMARK  4 active torsions:
REMARK  status: ('A' for Active; 'I' for Inactive)
REMARK    1  A    between atoms: C_2  and  C_7
REMARK    2  A    between atoms: N_3  and  C_4
REMARK    3  A    between atoms: C_10  and  N_11
REMARK    4  A    between atoms: C_15  and  C_16
REMARK                            x       y       z     vdW  Elec       q    Type
REMARK                         _______ _______ _______ _____ _____    ______ ____
ROOT
ATOM      1  C   UNL     1       0.493  10.362  20.925  0.00  0.00    +0.000 A 
ATOM      2  C   UNL     1       0.577   9.288  21.800  0.00  0.00    +0.000 A 
ATOM      3  N   UNL     1       1.116   8.067  21.489  0.00  0.00    +0.000 NA
ATOM      4  C   UNL     1       1.580   7.837  20.228  0.00  0.00    +0.000 A 
ATOM      5  C   UNL     1       1.480   8.868  19.274  0.00  0.00    +0.000 A 
ATOM      6 CL   UNL     1       2.152   8.754  17.679  0.00  0.00    +0.000 Cl
ATOM      7  C   UNL     1       0.951  10.126  19.631  0.00  0.00    +0.000 A 
ENDROOT
BRANCH   4   8
ATOM      8  N   UNL     1       2.293   6.655  19.995  0.00  0.00    +0.000 N 
ATOM      9  C   UNL     1       1.620   5.405  20.365  0.00  0.00    +0.000 C 
ATOM     10  C   UNL     1       2.698   4.401  20.775  0.00  0.00    +0.000 C 
ATOM     11  C   UNL     1       3.698   4.161  19.647  0.00  0.00    +0.000 C 
ATOM     12  C   UNL     1       4.273   5.483  19.086  0.00  0.00    +0.000 C 
ATOM     13  C   UNL     1       3.141   6.510  18.787  0.00  0.00    +0.000 C 
BRANCH  12  14
ATOM     14  C   UNL     1       5.197   5.209  17.902  0.00  0.00    +0.000 A 
ATOM     15  C   UNL     1       6.506   4.729  18.075  0.00  0.00    +0.000 A 
ATOM     16  C   UNL     1       7.361   4.561  16.979  0.00  0.00    +0.000 A 
ATOM     17  C   UNL     1       6.918   4.856  15.693  0.00  0.00    +0.000 A 
ATOM     18  C   UNL     1       5.619   5.320  15.501  0.00  0.00    +0.000 A 
ATOM     19  C   UNL     1       4.765   5.494  16.597  0.00  0.00    +0.000 A 
ENDBRANCH  12  14
ENDBRANCH   4   8
BRANCH   1  21
ATOM     20  O   UNL     1       0.827  12.590  21.602  0.00  0.00    +0.000 OA
ATOM     21  C   UNL     1       0.009  11.688  21.438  0.00  0.00    +0.000 C 
ATOM     22  N   UNL     1      -1.347  11.835  21.695  0.00  0.00    +0.000 N 
ATOM     23  H   UNL     1      -1.984  11.062  21.574  0.00  0.00    +0.000 HD
BRANCH  22  24
ATOM     24  C   UNL     1      -1.932  13.068  22.149  0.00  0.00    +0.000 C 
ATOM     25  C   UNL     1      -3.424  13.268  22.211  0.00  0.00    +0.000 C 
ATOM     26  C   UNL     1      -2.641  13.118  23.481  0.00  0.00    +0.000 C 
ENDBRANCH  22  24
ENDBRANCH   1  21
TORSDOF 4
ENDMDL
