MODEL 1
REMARK VINA RESULT:      -8.5      0.000      0.000
REMARK  Name = 
REMARK  3 active torsions:
REMARK  status: ('A' for Active; 'I' for Inactive)
REMARK    1  A    between atoms: C_1  and  C_2
REMARK    2  A    between atoms: C_11  and  C_12
REMARK    3  A    between atoms: N_20  and  O_21
REMARK                            x       y       z     vdW  Elec       q    Type
REMARK                         _______ _______ _______ _____ _____    ______ ____
ROOT
ATOM      1  C   UNL     1       1.986   4.257  21.289  0.00  0.00    +0.000 C 
ATOM      2  C   UNL     1       2.506   4.058  19.892  0.00  0.00    +0.000 A 
ATOM      3  C   UNL     1       3.663   4.738  19.482  0.00  0.00    +0.000 A 
ATOM      4  C   UNL     1       4.191   4.597  18.206  0.00  0.00    +0.000 A 
ATOM      5  N   UNL     1       5.307   5.283  17.885  0.00  0.00    +0.000 NA
ATOM      6  C   UNL     1       5.733   5.073  16.631  0.00  0.00    +0.000 A 
ATOM      7  C   UNL     1       5.102   4.234  15.725  0.00  0.00    +0.000 A 
ATOM      8  N   UNL     1       3.990   3.537  16.015  0.00  0.00    +0.000 NA
ATOM      9  C   UNL     1       3.534   3.726  17.278  0.00  0.00    +0.000 A 
ATOM     10  C   UNL     1       2.388   3.057  17.690  0.00  0.00    +0.000 A 
ATOM     11  C   UNL     1       1.859   3.205  18.983  0.00  0.00    +0.000 A 
ATOM     12  C   UNL     1       0.616   2.451  19.369  0.00  0.00    +0.000 C 
ATOM     13  C   UNL     1       5.808   4.230  14.472  0.00  0.00    +0.000 A 
ATOM     14  C   UNL     1       5.563   3.557  13.288  0.00  0.00    +0.000 A 
ATOM     15  C   UNL     1       6.443   3.759  12.218  0.00  0.00    +0.000 A 
ATOM     16  C   UNL     1       7.549   4.623  12.342  0.00  0.00    +0.000 A 
ATOM     17  C   UNL     1       7.796   5.302  13.538  0.00  0.00    +0.000 A 
ATOM     18  C   UNL     1       6.914   5.088  14.581  0.00  0.00    +0.000 A 
ATOM     19  C   UNL     1       6.912   5.657  15.954  0.00  0.00    +0.000 C 
ATOM     20  N   UNL     1       7.817   6.491  16.360  0.00  0.00    +0.000 NA
ENDROOT
BRANCH  20  21
ATOM     21  O   UNL     1       7.592   6.876  17.683  0.00  0.00    +0.000 OA
ATOM     22  H   UNL     1       8.493   6.946  18.047  0.00  0.00    +0.000 HD
ENDBRANCH  20  21
TORSDOF 1
ENDMDL
MODEL 2
REMARK VINA RESULT:      -8.2      4.801      8.022
REMARK  Name = 
REMARK  3 active torsions:
REMARK  status: ('A' for Active; 'I' for Inactive)
REMARK    1  A    between atoms: C_1  and  C_2
REMARK    2  A    between atoms: C_11  and  C_12
REMARK    3  A    between atoms: N_20  and  O_21
REMARK                            x       y       z     vdW  Elec       q    Type
REMARK                         _______ _______ _______ _____ _____    ______ ____
ROOT
ATOM      1  C   UNL     1       4.385   3.798  17.223  0.00  0.00    +0.000 C 
ATOM      2  C   UNL     1       3.612   4.599  18.235  0.00  0.00    +0.000 A 
ATOM      3  C   UNL     1       3.287   5.936  17.957  0.00  0.00    +0.000 A 
ATOM      4  C   UNL     1       2.577   6.726  18.850  0.00  0.00    +0.000 A 
ATOM      5  N   UNL     1       2.302   8.002  18.511  0.00  0.00    +0.000 NA
ATOM      6  C   UNL     1       1.611   8.676  19.443  0.00  0.00    +0.000 A 
ATOM      7  C   UNL     1       1.205   8.134  20.653  0.00  0.00    +0.000 A 
ATOM      8  N   UNL     1       1.464   6.867  21.018  0.00  0.00    +0.000 NA
ATOM      9  C   UNL     1       2.160   6.158  20.096  0.00  0.00    +0.000 A 
ATOM     10  C   UNL     1       2.486   4.834  20.366  0.00  0.00    +0.000 A 
ATOM     11  C   UNL     1       3.205   4.040  19.457  0.00  0.00    +0.000 A 
ATOM     12  C   UNL     1       3.526   2.612  19.808  0.00  0.00    +0.000 C 
ATOM     13  C   UNL     1       0.487   9.114  21.423  0.00  0.00    +0.000 A 
ATOM     14  C   UNL     1      -0.101   9.040  22.674  0.00  0.00    +0.000 A 
ATOM     15  C   UNL     1      -0.739  10.182  23.172  0.00  0.00    +0.000 A 
ATOM     16  C   UNL     1      -0.784  11.374  22.423  0.00  0.00    +0.000 A 
ATOM     17  C   UNL     1      -0.189  11.448  21.160  0.00  0.00    +0.000 A 
ATOM     18  C   UNL     1       0.436  10.308  20.687  0.00  0.00    +0.000 A 
ATOM     19  C   UNL     1       1.146  10.079  19.402  0.00  0.00    +0.000 C 
ATOM     20  N   UNL     1       1.267  11.004  18.503  0.00  0.00    +0.000 NA
ENDROOT
BRANCH  20  21
ATOM     21  O   UNL     1       1.974  10.540  17.391  0.00  0.00    +0.000 OA
ATOM     22  H   UNL     1       1.863   9.574  17.450  0.00  0.00    +0.000 HD
ENDBRANCH  20  21
TORSDOF 1
ENDMDL
MODEL 3
REMARK VINA RESULT:      -8.2      3.471      4.603
REMARK  Name = 
REMARK  3 active torsions:
REMARK  status: ('A' for Active; 'I' for Inactive)
REMARK    1  A    between atoms: C_1  and  C_2
REMARK    2  A    between atoms: C_11  and  C_12
REMARK    3  A    between atoms: N_20  and  O_21
REMARK                            x       y       z     vdW  Elec       q    Type
REMARK                         _______ _______ _______ _____ _____    ______ ____
ROOT
ATOM      1  C   UNL     1      -0.141   8.903  22.043  0.00  0.00    +0.000 C 
ATOM      2  C   UNL     1       0.743   8.548  20.879  0.00  0.00    +0.000 A 
ATOM      3  C   UNL     1       1.360   7.288  20.839  0.00  0.00    +0.000 A 
ATOM      4  C   UNL     1       2.186   6.902  19.792  0.00  0.00    +0.000 A 
ATOM      5  N   UNL     1       2.743   5.674  19.824  0.00  0.00    +0.000 NA
ATOM      6  C   UNL     1       3.521   5.402  18.766  0.00  0.00    +0.000 A 
ATOM      7  C   UNL     1       3.750   6.284  17.721  0.00  0.00    +0.000 A 
ATOM      8  N   UNL     1       3.209   7.513  17.662  0.00  0.00    +0.000 NA
ATOM      9  C   UNL     1       2.415   7.819  18.717  0.00  0.00    +0.000 A 
ATOM     10  C   UNL     1       1.802   9.065  18.763  0.00  0.00    +0.000 A 
ATOM     11  C   UNL     1       0.967   9.449  19.826  0.00  0.00    +0.000 A 
ATOM     12  C   UNL     1       0.331  10.813  19.817  0.00  0.00    +0.000 C 
ATOM     13  C   UNL     1       4.626   5.691  16.747  0.00  0.00    +0.000 A 
ATOM     14  C   UNL     1       5.130   6.178  15.554  0.00  0.00    +0.000 A 
ATOM     15  C   UNL     1       5.978   5.351  14.809  0.00  0.00    +0.000 A 
ATOM     16  C   UNL     1       6.310   4.058  15.257  0.00  0.00    +0.000 A 
ATOM     17  C   UNL     1       5.801   3.566  16.462  0.00  0.00    +0.000 A 
ATOM     18  C   UNL     1       4.965   4.399  17.182  0.00  0.00    +0.000 A 
ATOM     19  C   UNL     1       4.279   4.164  18.479  0.00  0.00    +0.000 C 
ATOM     20  N   UNL     1       4.397   3.052  19.135  0.00  0.00    +0.000 NA
ENDROOT
BRANCH  20  21
ATOM     21  O   UNL     1       3.656   3.081  20.318  0.00  0.00    +0.000 OA
ATOM     22  H   UNL     1       4.005   2.318  20.813  0.00  0.00    +0.000 HD
ENDBRANCH  20  21
TORSDOF 1
ENDMDL
MODEL 4
REMARK VINA RESULT:      -7.7      4.581      5.803
REMARK  Name = 
REMARK  3 active torsions:
REMARK  status: ('A' for Active; 'I' for Inactive)
REMARK    1  A    between atoms: C_1  and  C_2
REMARK    2  A    between atoms: C_11  and  C_12
REMARK    3  A    between atoms: N_20  and  O_21
REMARK                            x       y       z     vdW  Elec       q    Type
REMARK                         _______ _______ _______ _____ _____    ______ ____
ROOT
ATOM      1  C   UNL     1      -0.800  11.114  21.176  0.00  0.00    +0.000 C 
ATOM      2  C   UNL     1       0.151  10.443  20.224  0.00  0.00    +0.000 A 
ATOM      3  C   UNL     1       0.643   9.163  20.526  0.00  0.00    +0.000 A 
ATOM      4  C   UNL     1       1.523   8.492  19.688  0.00  0.00    +0.000 A 
ATOM      5  N   UNL     1       1.951   7.264  20.046  0.00  0.00    +0.000 NA
ATOM      6  C   UNL     1       2.796   6.705  19.167  0.00  0.00    +0.000 A 
ATOM      7  C   UNL     1       3.208   7.312  17.990  0.00  0.00    +0.000 A 
ATOM      8  N   UNL     1       2.798   8.533  17.607  0.00  0.00    +0.000 NA
ATOM      9  C   UNL     1       1.942   9.125  18.474  0.00  0.00    +0.000 A 
ATOM     10  C   UNL     1       1.452  10.393  18.182  0.00  0.00    +0.000 A 
ATOM     11  C   UNL     1       0.561  11.066  19.035  0.00  0.00    +0.000 A 
ATOM     12  C   UNL     1       0.066  12.437  18.661  0.00  0.00    +0.000 C 
ATOM     13  C   UNL     1       4.111   6.451  17.273  0.00  0.00    +0.000 A 
ATOM     14  C   UNL     1       4.771   6.621  16.069  0.00  0.00    +0.000 A 
ATOM     15  C   UNL     1       5.601   5.587  15.620  0.00  0.00    +0.000 A 
ATOM     16  C   UNL     1       5.760   4.406  16.370  0.00  0.00    +0.000 A 
ATOM     17  C   UNL     1       5.093   4.236  17.586  0.00  0.00    +0.000 A 
ATOM     18  C   UNL     1       4.279   5.269  18.011  0.00  0.00    +0.000 A 
ATOM     19  C   UNL     1       3.452   5.381  19.241  0.00  0.00    +0.000 C 
ATOM     20  N   UNL     1       3.399   4.439  20.129  0.00  0.00    +0.000 NA
ENDROOT
BRANCH  20  21
ATOM     21  O   UNL     1       2.555   4.787  21.186  0.00  0.00    +0.000 OA
ATOM     22  H   UNL     1       2.543   5.760  21.145  0.00  0.00    +0.000 HD
ENDBRANCH  20  21
TORSDOF 1
ENDMDL
MODEL 5
REMARK VINA RESULT:      -7.6      4.119      5.575
REMARK  Name = 
REMARK  3 active torsions:
REMARK  status: ('A' for Active; 'I' for Inactive)
REMARK    1  A    between atoms: C_1  and  C_2
REMARK    2  A    between atoms: C_11  and  C_12
REMARK    3  A    between atoms: N_20  and  O_21
REMARK                            x       y       z     vdW  Elec       q    Type
REMARK                         _______ _______ _______ _____ _____    ______ ____
ROOT
ATOM      1  C   UNL     1      -0.740   9.767  22.698  0.00  0.00    +0.000 C 
ATOM      2  C   UNL     1       0.150   9.353  21.558  0.00  0.00    +0.000 A 
ATOM      3  C   UNL     1       0.660   8.045  21.519  0.00  0.00    +0.000 A 
ATOM      4  C   UNL     1       1.485   7.604  20.494  0.00  0.00    +0.000 A 
ATOM      5  N   UNL     1       1.935   6.333  20.525  0.00  0.00    +0.000 NA
ATOM      6  C   UNL     1       2.723   6.010  19.489  0.00  0.00    +0.000 A 
ATOM      7  C   UNL     1       3.061   6.883  18.465  0.00  0.00    +0.000 A 
ATOM      8  N   UNL     1       2.628   8.154  18.408  0.00  0.00    +0.000 NA
ATOM      9  C   UNL     1       1.827   8.512  19.441  0.00  0.00    +0.000 A 
ATOM     10  C   UNL     1       1.320   9.805  19.487  0.00  0.00    +0.000 A 
ATOM     11  C   UNL     1       0.484  10.245  20.527  0.00  0.00    +0.000 A 
ATOM     12  C   UNL     1      -0.034  11.658  20.519  0.00  0.00    +0.000 C 
ATOM     13  C   UNL     1       3.917   6.230  17.512  0.00  0.00    +0.000 A 
ATOM     14  C   UNL     1       4.500   6.688  16.344  0.00  0.00    +0.000 A 
ATOM     15  C   UNL     1       5.301   5.802  15.614  0.00  0.00    +0.000 A 
ATOM     16  C   UNL     1       5.507   4.480  16.052  0.00  0.00    +0.000 A 
ATOM     17  C   UNL     1       4.917   4.017  17.232  0.00  0.00    +0.000 A 
ATOM     18  C   UNL     1       4.131   4.909  17.938  0.00  0.00    +0.000 A 
ATOM     19  C   UNL     1       3.383   4.716  19.207  0.00  0.00    +0.000 C 
ATOM     20  N   UNL     1       3.385   3.590  19.849  0.00  0.00    +0.000 NA
ENDROOT
BRANCH  20  21
ATOM     21  O   UNL     1       2.610   3.666  21.008  0.00  0.00    +0.000 OA
ATOM     22  H   UNL     1       2.879   4.518  21.396  0.00  0.00    +0.000 HD
ENDBRANCH  20  21
TORSDOF 1
ENDMDL
MODEL 6
REMARK VINA RESULT:      -7.4      4.388      6.715
REMARK  Name = 
REMARK  3 active torsions:
REMARK  status: ('A' for Active; 'I' for Inactive)
REMARK    1  A    between atoms: C_1  and  C_2
REMARK    2  A    between atoms: C_11  and  C_12
REMARK    3  A    between atoms: N_20  and  O_21
REMARK                            x       y       z     vdW  Elec       q    Type
REMARK                         _______ _______ _______ _____ _____    ______ ____
ROOT
ATOM      1  C   UNL     1       0.877  12.520  18.407  0.00  0.00    +0.000 C 
ATOM      2  C   UNL     1       1.024  11.136  18.977  0.00  0.00    +0.000 A 
ATOM      3  C   UNL     1       1.832  10.198  18.315  0.00  0.00    +0.000 A 
ATOM      4  C   UNL     1       2.008   8.906  18.792  0.00  0.00    +0.000 A 
ATOM      5  N   UNL     1       2.800   8.062  18.101  0.00  0.00    +0.000 NA
ATOM      6  C   UNL     1       2.902   6.841  18.648  0.00  0.00    +0.000 A 
ATOM      7  C   UNL     1       2.262   6.456  19.816  0.00  0.00    +0.000 A 
ATOM      8  N   UNL     1       1.467   7.275  20.526  0.00  0.00    +0.000 NA
ATOM      9  C   UNL     1       1.344   8.518  20.000  0.00  0.00    +0.000 A 
ATOM     10  C   UNL     1       0.545   9.452  20.649  0.00  0.00    +0.000 A 
ATOM     11  C   UNL     1       0.372  10.758  20.161  0.00  0.00    +0.000 A 
ATOM     12  C   UNL     1      -0.506  11.722  20.911  0.00  0.00    +0.000 C 
ATOM     13  C   UNL     1       2.577   5.089  20.132  0.00  0.00    +0.000 A 
ATOM     14  C   UNL     1       2.181   4.280  21.182  0.00  0.00    +0.000 A 
ATOM     15  C   UNL     1       2.661   2.965  21.220  0.00  0.00    +0.000 A 
ATOM     16  C   UNL     1       3.524   2.478  20.220  0.00  0.00    +0.000 A 
ATOM     17  C   UNL     1       3.923   3.296  19.160  0.00  0.00    +0.000 A 
ATOM     18  C   UNL     1       3.438   4.590  19.141  0.00  0.00    +0.000 A 
ATOM     19  C   UNL     1       3.679   5.680  18.161  0.00  0.00    +0.000 C 
ATOM     20  N   UNL     1       4.440   5.524  17.123  0.00  0.00    +0.000 NA
ENDROOT
BRANCH  20  21
ATOM     21  O   UNL     1       4.503   6.693  16.361  0.00  0.00    +0.000 OA
ATOM     22  H   UNL     1       3.566   6.889  16.184  0.00  0.00    +0.000 HD
ENDBRANCH  20  21
TORSDOF 1
ENDMDL
MODEL 7
REMARK VINA RESULT:      -7.3      6.586      8.881
REMARK  Name = 
REMARK  3 active torsions:
REMARK  status: ('A' for Active; 'I' for Inactive)
REMARK    1  A    between atoms: C_1  and  C_2
REMARK    2  A    between atoms: C_11  and  C_12
REMARK    3  A    between atoms: N_20  and  O_21
REMARK                            x       y       z     vdW  Elec       q    Type
REMARK                         _______ _______ _______ _____ _____    ______ ____
ROOT
ATOM      1  C   UNL     1       2.981   4.179  20.176  0.00  0.00    +0.000 C 
ATOM      2  C   UNL     1       2.584   5.579  19.798  0.00  0.00    +0.000 A 
ATOM      3  C   UNL     1       1.962   6.402  20.751  0.00  0.00    +0.000 A 
ATOM      4  C   UNL     1       1.572   7.703  20.463  0.00  0.00    +0.000 A 
ATOM      5  N   UNL     1       0.981   8.432  21.431  0.00  0.00    +0.000 NA
ATOM      6  C   UNL     1       0.646   9.673  21.049  0.00  0.00    +0.000 A 
ATOM      7  C   UNL     1       0.875  10.186  19.781  0.00  0.00    +0.000 A 
ATOM      8  N   UNL     1       1.462   9.483  18.797  0.00  0.00    +0.000 NA
ATOM      9  C   UNL     1       1.814   8.224  19.152  0.00  0.00    +0.000 A 
ATOM     10  C   UNL     1       2.429   7.404  18.213  0.00  0.00    +0.000 A 
ATOM     11  C   UNL     1       2.822   6.088  18.511  0.00  0.00    +0.000 A 
ATOM     12  C   UNL     1       3.484   5.251  17.451  0.00  0.00    +0.000 C 
ATOM     13  C   UNL     1       0.400  11.540  19.696  0.00  0.00    +0.000 A 
ATOM     14  C   UNL     1       0.409  12.447  18.650  0.00  0.00    +0.000 A 
ATOM     15  C   UNL     1      -0.138  13.716  18.872  0.00  0.00    +0.000 A 
ATOM     16  C   UNL     1      -0.682  14.064  20.124  0.00  0.00    +0.000 A 
ATOM     17  C   UNL     1      -0.690  13.148  21.179  0.00  0.00    +0.000 A 
ATOM     18  C   UNL     1      -0.146  11.900  20.938  0.00  0.00    +0.000 A 
ATOM     19  C   UNL     1      -0.012  10.732  21.847  0.00  0.00    +0.000 C 
ATOM     20  N   UNL     1      -0.427  10.757  23.074  0.00  0.00    +0.000 NA
ENDROOT
BRANCH  20  21
ATOM     21  O   UNL     1      -0.186   9.539  23.715  0.00  0.00    +0.000 OA
ATOM     22  H   UNL     1       0.543   9.159  23.194  0.00  0.00    +0.000 HD
ENDBRANCH  20  21
TORSDOF 1
ENDMDL
MODEL 8
REMARK VINA RESULT:      -7.3      4.473      6.940
REMARK  Name = 
REMARK  3 active torsions:
REMARK  status: ('A' for Active; 'I' for Inactive)
REMARK    1  A    between atoms: C_1  and  C_2
REMARK    2  A    between atoms: C_11  and  C_12
REMARK    3  A    between atoms: N_20  and  O_21
REMARK                            x       y       z     vdW  Elec       q    Type
REMARK                         _______ _______ _______ _____ _____    ______ ____
ROOT
ATOM      1  C   UNL     1       0.004  12.444  20.065  0.00  0.00    +0.000 C 
ATOM      2  C   UNL     1       0.294  11.007  20.399  0.00  0.00    +0.000 A 
ATOM      3  C   UNL     1       1.111  10.250  19.543  0.00  0.00    +0.000 A 
ATOM      4  C   UNL     1       1.416   8.920  19.797  0.00  0.00    +0.000 A 
ATOM      5  N   UNL     1       2.208   8.259  18.929  0.00  0.00    +0.000 NA
ATOM      6  C   UNL     1       2.440   6.982  19.268  0.00  0.00    +0.000 A 
ATOM      7  C   UNL     1       1.925   6.372  20.402  0.00  0.00    +0.000 A 
ATOM      8  N   UNL     1       1.134   7.005  21.285  0.00  0.00    +0.000 NA
ATOM      9  C   UNL     1       0.881   8.299  20.971  0.00  0.00    +0.000 A 
ATOM     10  C   UNL     1       0.072   9.054  21.813  0.00  0.00    +0.000 A 
ATOM     11  C   UNL     1      -0.232  10.400  21.550  0.00  0.00    +0.000 A 
ATOM     12  C   UNL     1      -1.113  11.163  22.502  0.00  0.00    +0.000 C 
ATOM     13  C   UNL     1       2.361   5.004  20.476  0.00  0.00    +0.000 A 
ATOM     14  C   UNL     1       2.109   4.014  21.409  0.00  0.00    +0.000 A 
ATOM     15  C   UNL     1       2.683   2.753  21.207  0.00  0.00    +0.000 A 
ATOM     16  C   UNL     1       3.495   2.497  20.085  0.00  0.00    +0.000 A 
ATOM     17  C   UNL     1       3.749   3.497  19.143  0.00  0.00    +0.000 A 
ATOM     18  C   UNL     1       3.173   4.734  19.362  0.00  0.00    +0.000 A 
ATOM     19  C   UNL     1       3.256   5.977  18.552  0.00  0.00    +0.000 C 
ATOM     20  N   UNL     1       3.940   6.044  17.453  0.00  0.00    +0.000 NA
ENDROOT
BRANCH  20  21
ATOM     21  O   UNL     1       3.859   7.316  16.882  0.00  0.00    +0.000 OA
ATOM     22  H   UNL     1       2.999   7.296  16.425  0.00  0.00    +0.000 HD
ENDBRANCH  20  21
TORSDOF 1
ENDMDL
MODEL 9
REMARK VINA RESULT:      -6.8      1.107      1.118
REMARK  Name = 
REMARK  3 active torsions:
REMARK  status: ('A' for Active; 'I' for Inactive)
REMARK    1  A    between atoms: C_1  and  C_2
REMARK    2  A    between atoms: C_11  and  C_12
REMARK    3  A    between atoms: N_20  and  O_21
REMARK                            x       y       z     vdW  Elec       q    Type
REMARK                         _______ _______ _______ _____ _____    ______ ____
ROOT
ATOM      1  C   UNL     1       1.831   3.173  21.954  0.00  0.00    +0.000 C 
ATOM      2  C   UNL     1       2.298   3.284  20.529  0.00  0.00    +0.000 A 
ATOM      3  C   UNL     1       3.608   3.712  20.262  0.00  0.00    +0.000 A 
ATOM      4  C   UNL     1       4.098   3.834  18.968  0.00  0.00    +0.000 A 
ATOM      5  N   UNL     1       5.368   4.250  18.792  0.00  0.00    +0.000 NA
ATOM      6  C   UNL     1       5.740   4.332  17.506  0.00  0.00    +0.000 A 
ATOM      7  C   UNL     1       4.914   4.023  16.436  0.00  0.00    +0.000 A 
ATOM      8  N   UNL     1       3.645   3.605  16.580  0.00  0.00    +0.000 NA
ATOM      9  C   UNL     1       3.238   3.510  17.870  0.00  0.00    +0.000 A 
ATOM     10  C   UNL     1       1.942   3.088  18.141  0.00  0.00    +0.000 A 
ATOM     11  C   UNL     1       1.453   2.967  19.453  0.00  0.00    +0.000 A 
ATOM     12  C   UNL     1       0.040   2.503  19.680  0.00  0.00    +0.000 C 
ATOM     13  C   UNL     1       5.612   4.215  15.193  0.00  0.00    +0.000 A 
ATOM     14  C   UNL     1       5.208   4.037  13.882  0.00  0.00    +0.000 A 
ATOM     15  C   UNL     1       6.129   4.312  12.864  0.00  0.00    +0.000 A 
ATOM     16  C   UNL     1       7.431   4.755  13.163  0.00  0.00    +0.000 A 
ATOM     17  C   UNL     1       7.839   4.934  14.488  0.00  0.00    +0.000 A 
ATOM     18  C   UNL     1       6.914   4.657  15.477  0.00  0.00    +0.000 A 
ATOM     19  C   UNL     1       7.048   4.750  16.955  0.00  0.00    +0.000 C 
ATOM     20  N   UNL     1       8.145   5.133  17.529  0.00  0.00    +0.000 NA
ENDROOT
BRANCH  20  21
ATOM     21  O   UNL     1       8.015   5.135  18.919  0.00  0.00    +0.000 OA
ATOM     22  H   UNL     1       8.306   4.239  19.167  0.00  0.00    +0.000 HD
ENDBRANCH  20  21
TORSDOF 1
ENDMDL
