MODEL 1
REMARK VINA RESULT:      -8.6      0.000      0.000
REMARK  Name = 
REMARK  7 active torsions:
REMARK  status: ('A' for Active; 'I' for Inactive)
REMARK    1  A    between atoms: C_1  and  C_2
REMARK    2  A    between atoms: C_2  and  C_3
REMARK    3  A    between atoms: C_2  and  C_4
REMARK    4  A    between atoms: C_8  and  S_9
REMARK    5  A    between atoms: S_9  and  C_10
REMARK    6  A    between atoms: C_10  and  C_11
REMARK    7  A    between atoms: N_13  and  C_14
REMARK                            x       y       z     vdW  Elec       q    Type
REMARK                         _______ _______ _______ _____ _____    ______ ____
ROOT
ATOM      1  C   UNL     1       4.294   4.013  17.843  0.00  0.00    +0.000 A 
ATOM      2  N   UNL     1       4.401   4.559  19.045  0.00  0.00    +0.000 NA
ATOM      3  N   UNL     1       5.483   5.387  19.069  0.00  0.00    +0.000 NA
ATOM      4  C   UNL     1       6.022   5.355  17.874  0.00  0.00    +0.000 A 
ATOM      5  C   UNL     1       7.187   6.045  17.413  0.00  0.00    +0.000 A 
ATOM      6  N   UNL     1       7.621   5.912  16.201  0.00  0.00    +0.000 NA
ATOM      7  C   UNL     1       6.886   5.078  15.321  0.00  0.00    +0.000 A 
ATOM      8  C   UNL     1       7.372   4.943  14.016  0.00  0.00    +0.000 A 
ATOM      9  C   UNL     1       6.670   4.193  13.073  0.00  0.00    +0.000 A 
ATOM     10  C   UNL     1       5.467   3.586  13.424  0.00  0.00    +0.000 A 
ATOM     11  C   UNL     1       4.969   3.690  14.726  0.00  0.00    +0.000 A 
ATOM     12  C   UNL     1       5.688   4.407  15.681  0.00  0.00    +0.000 A 
ATOM     13  N   UNL     1       5.297   4.538  17.037  0.00  0.00    +0.000 N 
ENDROOT
BRANCH   1  15
ATOM     14  C   UNL     1       3.342   1.755  18.386  0.00  0.00    +0.000 C 
ATOM     15  C   UNL     1       3.223   3.014  17.505  0.00  0.00    +0.000 C 
ATOM     16  C   UNL     1       1.840   3.635  17.711  0.00  0.00    +0.000 C 
ENDBRANCH   1  15
BRANCH   5  17
ATOM     17  S   UNL     1       7.966   7.091  18.580  0.00  0.00    +0.000 S 
BRANCH  17  18
ATOM     18  C   UNL     1       7.749   8.715  17.810  0.00  0.00    +0.000 C 
BRANCH  18  19
ATOM     19  C   UNL     1       8.705   9.731  18.419  0.00  0.00    +0.000 C 
ATOM     20  O   UNL     1       9.169   9.543  19.542  0.00  0.00    +0.000 OA
ATOM     21  N   UNL     1       9.003  10.809  17.597  0.00  0.00    +0.000 N 
ATOM     22  H   UNL     1       8.410  10.944  16.781  0.00  0.00    +0.000 HD
BRANCH  21  23
ATOM     23  C   UNL     1       9.828  11.910  17.937  0.00  0.00    +0.000 A 
ATOM     24  C   UNL     1      11.219  11.835  18.028  0.00  0.00    +0.000 A 
ATOM     25  C   UNL     1      11.965  12.932  18.476  0.00  0.00    +0.000 A 
ATOM     26  C   UNL     1      11.320  14.118  18.820  0.00  0.00    +0.000 A 
ATOM     27 BR   UNL     1      12.326  15.564  19.503  0.00  0.00    +0.000 Br
ATOM     28  C   UNL     1       9.941  14.232  18.680  0.00  0.00    +0.000 A 
ATOM     29  C   UNL     1       9.211  13.135  18.227  0.00  0.00    +0.000 A 
ATOM     30  F   UNL     1       7.879  13.251  18.106  0.00  0.00    +0.000 F 
ENDBRANCH  21  23
ENDBRANCH  18  19
ENDBRANCH  17  18
ENDBRANCH   5  17
TORSDOF 5
ENDMDL
MODEL 2
REMARK VINA RESULT:      -8.4      6.741      9.114
REMARK  Name = 
REMARK  7 active torsions:
REMARK  status: ('A' for Active; 'I' for Inactive)
REMARK    1  A    between atoms: C_1  and  C_2
REMARK    2  A    between atoms: C_2  and  C_3
REMARK    3  A    between atoms: C_2  and  C_4
REMARK    4  A    between atoms: C_8  and  S_9
REMARK    5  A    between atoms: S_9  and  C_10
REMARK    6  A    between atoms: C_10  and  C_11
REMARK    7  A    between atoms: N_13  and  C_14
REMARK                            x       y       z     vdW  Elec       q    Type
REMARK                         _______ _______ _______ _____ _____    ______ ____
ROOT
ATOM      1  C   UNL     1       5.202   5.415  16.714  0.00  0.00    +0.000 A 
ATOM      2  N   UNL     1       5.184   6.576  16.078  0.00  0.00    +0.000 NA
ATOM      3  N   UNL     1       4.226   7.376  16.627  0.00  0.00    +0.000 NA
ATOM      4  C   UNL     1       3.674   6.703  17.607  0.00  0.00    +0.000 A 
ATOM      5  C   UNL     1       2.611   7.114  18.470  0.00  0.00    +0.000 A 
ATOM      6  N   UNL     1       2.149   6.339  19.398  0.00  0.00    +0.000 NA
ATOM      7  C   UNL     1       2.753   5.066  19.559  0.00  0.00    +0.000 A 
ATOM      8  C   UNL     1       2.239   4.239  20.565  0.00  0.00    +0.000 A 
ATOM      9  C   UNL     1       2.820   3.000  20.829  0.00  0.00    +0.000 A 
ATOM     10  C   UNL     1       3.933   2.585  20.100  0.00  0.00    +0.000 A 
ATOM     11  C   UNL     1       4.454   3.384  19.079  0.00  0.00    +0.000 A 
ATOM     12  C   UNL     1       3.851   4.606  18.786  0.00  0.00    +0.000 A 
ATOM     13  N   UNL     1       4.271   5.471  17.745  0.00  0.00    +0.000 N 
ENDROOT
BRANCH   1  15
ATOM     14  C   UNL     1       6.362   4.287  14.796  0.00  0.00    +0.000 C 
ATOM     15  C   UNL     1       6.121   4.294  16.318  0.00  0.00    +0.000 C 
ATOM     16  C   UNL     1       7.465   4.439  17.033  0.00  0.00    +0.000 C 
ENDBRANCH   1  15
BRANCH   5  17
ATOM     17  S   UNL     1       1.996   8.732  18.207  0.00  0.00    +0.000 S 
BRANCH  17  18
ATOM     18  C   UNL     1       1.537   9.222  19.887  0.00  0.00    +0.000 C 
BRANCH  18  19
ATOM     19  C   UNL     1       0.097   9.712  19.931  0.00  0.00    +0.000 C 
ATOM     20  O   UNL     1      -0.557   9.608  20.967  0.00  0.00    +0.000 OA
ATOM     21  N   UNL     1      -0.355  10.287  18.751  0.00  0.00    +0.000 N 
ATOM     22  H   UNL     1       0.212  10.137  17.919  0.00  0.00    +0.000 HD
BRANCH  21  23
ATOM     23  C   UNL     1      -1.662  10.781  18.514  0.00  0.00    +0.000 A 
ATOM     24  C   UNL     1      -2.260  11.782  19.282  0.00  0.00    +0.000 A 
ATOM     25  C   UNL     1      -3.595  12.146  19.063  0.00  0.00    +0.000 A 
ATOM     26  C   UNL     1      -4.332  11.520  18.060  0.00  0.00    +0.000 A 
ATOM     27 BR   UNL     1      -6.155  11.958  17.829  0.00  0.00    +0.000 Br
ATOM     28  C   UNL     1      -3.736  10.562  17.246  0.00  0.00    +0.000 A 
ATOM     29  C   UNL     1      -2.405  10.213  17.471  0.00  0.00    +0.000 A 
ATOM     30  F   UNL     1      -1.842   9.279  16.687  0.00  0.00    +0.000 F 
ENDBRANCH  21  23
ENDBRANCH  18  19
ENDBRANCH  17  18
ENDBRANCH   5  17
TORSDOF 5
ENDMDL
MODEL 3
REMARK VINA RESULT:      -8.4      7.049      8.935
REMARK  Name = 
REMARK  7 active torsions:
REMARK  status: ('A' for Active; 'I' for Inactive)
REMARK    1  A    between atoms: C_1  and  C_2
REMARK    2  A    between atoms: C_2  and  C_3
REMARK    3  A    between atoms: C_2  and  C_4
REMARK    4  A    between atoms: C_8  and  S_9
REMARK    5  A    between atoms: S_9  and  C_10
REMARK    6  A    between atoms: C_10  and  C_11
REMARK    7  A    between atoms: N_13  and  C_14
REMARK                            x       y       z     vdW  Elec       q    Type
REMARK                         _______ _______ _______ _____ _____    ______ ____
ROOT
ATOM      1  C   UNL     1       2.473   4.135  19.992  0.00  0.00    +0.000 A 
ATOM      2  N   UNL     1       1.631   4.698  20.846  0.00  0.00    +0.000 NA
ATOM      3  N   UNL     1       1.537   6.030  20.574  0.00  0.00    +0.000 NA
ATOM      4  C   UNL     1       2.310   6.271  19.543  0.00  0.00    +0.000 A 
ATOM      5  C   UNL     1       2.557   7.523  18.899  0.00  0.00    +0.000 A 
ATOM      6  N   UNL     1       3.361   7.623  17.889  0.00  0.00    +0.000 NA
ATOM      7  C   UNL     1       3.976   6.438  17.413  0.00  0.00    +0.000 A 
ATOM      8  C   UNL     1       4.845   6.564  16.324  0.00  0.00    +0.000 A 
ATOM      9  C   UNL     1       5.438   5.438  15.756  0.00  0.00    +0.000 A 
ATOM     10  C   UNL     1       5.153   4.172  16.264  0.00  0.00    +0.000 A 
ATOM     11  C   UNL     1       4.303   4.020  17.363  0.00  0.00    +0.000 A 
ATOM     12  C   UNL     1       3.739   5.148  17.957  0.00  0.00    +0.000 A 
ATOM     13  N   UNL     1       2.901   5.110  19.099  0.00  0.00    +0.000 N 
ENDROOT
BRANCH   1  15
ATOM     14  C   UNL     1       2.751   2.150  21.501  0.00  0.00    +0.000 C 
ATOM     15  C   UNL     1       2.829   2.676  20.055  0.00  0.00    +0.000 C 
ATOM     16  C   UNL     1       1.874   1.864  19.179  0.00  0.00    +0.000 C 
ENDBRANCH   1  15
BRANCH   5  17
ATOM     17  S   UNL     1       1.686   8.898  19.544  0.00  0.00    +0.000 S 
BRANCH  17  18
ATOM     18  C   UNL     1       1.327   9.837  18.040  0.00  0.00    +0.000 C 
BRANCH  18  19
ATOM     19  C   UNL     1       0.085  10.698  18.226  0.00  0.00    +0.000 C 
ATOM     20  O   UNL     1       0.134  11.704  18.932  0.00  0.00    +0.000 OA
ATOM     21  N   UNL     1      -1.030  10.265  17.522  0.00  0.00    +0.000 N 
ATOM     22  H   UNL     1      -0.994   9.323  17.137  0.00  0.00    +0.000 HD
BRANCH  21  23
ATOM     23  C   UNL     1      -2.317  10.858  17.555  0.00  0.00    +0.000 A 
ATOM     24  C   UNL     1      -2.884  11.409  18.705  0.00  0.00    +0.000 A 
ATOM     25  C   UNL     1      -4.203  11.880  18.694  0.00  0.00    +0.000 A 
ATOM     26  C   UNL     1      -4.955  11.816  17.523  0.00  0.00    +0.000 A 
ATOM     27 BR   UNL     1      -6.760  12.375  17.540  0.00  0.00    +0.000 Br
ATOM     28  C   UNL     1      -4.388  11.325  16.352  0.00  0.00    +0.000 A 
ATOM     29  C   UNL     1      -3.073  10.865  16.375  0.00  0.00    +0.000 A 
ATOM     30  F   UNL     1      -2.539  10.381  15.242  0.00  0.00    +0.000 F 
ENDBRANCH  21  23
ENDBRANCH  18  19
ENDBRANCH  17  18
ENDBRANCH   5  17
TORSDOF 5
ENDMDL
MODEL 4
REMARK VINA RESULT:      -8.4      0.888      1.249
REMARK  Name = 
REMARK  7 active torsions:
REMARK  status: ('A' for Active; 'I' for Inactive)
REMARK    1  A    between atoms: C_1  and  C_2
REMARK    2  A    between atoms: C_2  and  C_3
REMARK    3  A    between atoms: C_2  and  C_4
REMARK    4  A    between atoms: C_8  and  S_9
REMARK    5  A    between atoms: S_9  and  C_10
REMARK    6  A    between atoms: C_10  and  C_11
REMARK    7  A    between atoms: N_13  and  C_14
REMARK                            x       y       z     vdW  Elec       q    Type
REMARK                         _______ _______ _______ _____ _____    ______ ____
ROOT
ATOM      1  C   UNL     1       4.249   4.298  17.956  0.00  0.00    +0.000 A 
ATOM      2  N   UNL     1       4.406   4.883  19.134  0.00  0.00    +0.000 NA
ATOM      3  N   UNL     1       5.525   5.659  19.105  0.00  0.00    +0.000 NA
ATOM      4  C   UNL     1       6.038   5.557  17.903  0.00  0.00    +0.000 A 
ATOM      5  C   UNL     1       7.224   6.173  17.394  0.00  0.00    +0.000 A 
ATOM      6  N   UNL     1       7.627   5.975  16.180  0.00  0.00    +0.000 NA
ATOM      7  C   UNL     1       6.836   5.144  15.347  0.00  0.00    +0.000 A 
ATOM      8  C   UNL     1       7.288   4.938  14.039  0.00  0.00    +0.000 A 
ATOM      9  C   UNL     1       6.533   4.188  13.139  0.00  0.00    +0.000 A 
ATOM     10  C   UNL     1       5.310   3.651  13.536  0.00  0.00    +0.000 A 
ATOM     11  C   UNL     1       4.845   3.827  14.841  0.00  0.00    +0.000 A 
ATOM     12  C   UNL     1       5.615   4.545  15.755  0.00  0.00    +0.000 A 
ATOM     13  N   UNL     1       5.259   4.744  17.112  0.00  0.00    +0.000 N 
ENDROOT
BRANCH   1  15
ATOM     14  C   UNL     1       3.485   1.915  18.142  0.00  0.00    +0.000 C 
ATOM     15  C   UNL     1       3.126   3.339  17.676  0.00  0.00    +0.000 C 
ATOM     16  C   UNL     1       1.856   3.792  18.398  0.00  0.00    +0.000 C 
ENDBRANCH   1  15
BRANCH   5  17
ATOM     17  S   UNL     1       8.075   7.225  18.506  0.00  0.00    +0.000 S 
BRANCH  17  18
ATOM     18  C   UNL     1       7.879   8.834  17.702  0.00  0.00    +0.000 C 
BRANCH  18  19
ATOM     19  C   UNL     1       8.666   9.905  18.443  0.00  0.00    +0.000 C 
ATOM     20  O   UNL     1       9.219   9.636  19.508  0.00  0.00    +0.000 OA
ATOM     21  N   UNL     1       8.717  11.135  17.800  0.00  0.00    +0.000 N 
ATOM     22  H   UNL     1       8.065  11.280  17.033  0.00  0.00    +0.000 HD
BRANCH  21  23
ATOM     23  C   UNL     1       9.345  12.305  18.293  0.00  0.00    +0.000 A 
ATOM     24  C   UNL     1       8.661  13.332  18.947  0.00  0.00    +0.000 A 
ATOM     25  C   UNL     1       9.324  14.511  19.310  0.00  0.00    +0.000 A 
ATOM     26  C   UNL     1      10.681  14.660  19.035  0.00  0.00    +0.000 A 
ATOM     27 BR   UNL     1      11.546  16.287  19.453  0.00  0.00    +0.000 Br
ATOM     28  C   UNL     1      11.393  13.625  18.437  0.00  0.00    +0.000 A 
ATOM     29  C   UNL     1      10.723  12.455  18.086  0.00  0.00    +0.000 A 
ATOM     30  F   UNL     1      11.417  11.466  17.499  0.00  0.00    +0.000 F 
ENDBRANCH  21  23
ENDBRANCH  18  19
ENDBRANCH  17  18
ENDBRANCH   5  17
TORSDOF 5
ENDMDL
MODEL 5
REMARK VINA RESULT:      -8.3      6.793      9.246
REMARK  Name = 
REMARK  7 active torsions:
REMARK  status: ('A' for Active; 'I' for Inactive)
REMARK    1  A    between atoms: C_1  and  C_2
REMARK    2  A    between atoms: C_2  and  C_3
REMARK    3  A    between atoms: C_2  and  C_4
REMARK    4  A    between atoms: C_8  and  S_9
REMARK    5  A    between atoms: S_9  and  C_10
REMARK    6  A    between atoms: C_10  and  C_11
REMARK    7  A    between atoms: N_13  and  C_14
REMARK                            x       y       z     vdW  Elec       q    Type
REMARK                         _______ _______ _______ _____ _____    ______ ____
ROOT
ATOM      1  C   UNL     1       4.889   5.422  16.701  0.00  0.00    +0.000 A 
ATOM      2  N   UNL     1       5.149   6.718  16.628  0.00  0.00    +0.000 NA
ATOM      3  N   UNL     1       4.279   7.398  17.426  0.00  0.00    +0.000 NA
ATOM      4  C   UNL     1       3.500   6.510  17.996  0.00  0.00    +0.000 A 
ATOM      5  C   UNL     1       2.420   6.737  18.905  0.00  0.00    +0.000 A 
ATOM      6  N   UNL     1       1.719   5.761  19.387  0.00  0.00    +0.000 NA
ATOM      7  C   UNL     1       2.074   4.441  19.009  0.00  0.00    +0.000 A 
ATOM      8  C   UNL     1       1.304   3.398  19.536  0.00  0.00    +0.000 A 
ATOM      9  C   UNL     1       1.628   2.071  19.265  0.00  0.00    +0.000 A 
ATOM     10  C   UNL     1       2.738   1.774  18.476  0.00  0.00    +0.000 A 
ATOM     11  C   UNL     1       3.513   2.797  17.923  0.00  0.00    +0.000 A 
ATOM     12  C   UNL     1       3.168   4.126  18.161  0.00  0.00    +0.000 A 
ATOM     13  N   UNL     1       3.857   5.237  17.614  0.00  0.00    +0.000 N 
ENDROOT
BRANCH   1  15
ATOM     14  C   UNL     1       5.569   4.710  14.392  0.00  0.00    +0.000 C 
ATOM     15  C   UNL     1       5.648   4.402  15.900  0.00  0.00    +0.000 C 
ATOM     16  C   UNL     1       7.117   4.386  16.326  0.00  0.00    +0.000 C 
ENDBRANCH   1  15
BRANCH   5  17
ATOM     17  S   UNL     1       2.127   8.407  19.339  0.00  0.00    +0.000 S 
BRANCH  17  18
ATOM     18  C   UNL     1       1.246   9.011  17.878  0.00  0.00    +0.000 C 
BRANCH  18  19
ATOM     19  C   UNL     1      -0.028   9.739  18.281  0.00  0.00    +0.000 C 
ATOM     20  O   UNL     1      -0.225  10.030  19.459  0.00  0.00    +0.000 OA
ATOM     21  N   UNL     1      -0.874  10.052  17.225  0.00  0.00    +0.000 N 
ATOM     22  H   UNL     1      -0.692   9.589  16.337  0.00  0.00    +0.000 HD
BRANCH  21  23
ATOM     23  C   UNL     1      -2.137  10.686  17.331  0.00  0.00    +0.000 A 
ATOM     24  C   UNL     1      -2.629  11.235  18.517  0.00  0.00    +0.000 A 
ATOM     25  C   UNL     1      -3.930  11.749  18.578  0.00  0.00    +0.000 A 
ATOM     26  C   UNL     1      -4.740  11.731  17.445  0.00  0.00    +0.000 A 
ATOM     27 BR   UNL     1      -6.522  12.349  17.560  0.00  0.00    +0.000 Br
ATOM     28  C   UNL     1      -4.247  11.242  16.239  0.00  0.00    +0.000 A 
ATOM     29  C   UNL     1      -2.949  10.739  16.190  0.00  0.00    +0.000 A 
ATOM     30  F   UNL     1      -2.487  10.259  15.025  0.00  0.00    +0.000 F 
ENDBRANCH  21  23
ENDBRANCH  18  19
ENDBRANCH  17  18
ENDBRANCH   5  17
TORSDOF 5
ENDMDL
MODEL 6
REMARK VINA RESULT:      -8.2      6.441      8.000
REMARK  Name = 
REMARK  7 active torsions:
REMARK  status: ('A' for Active; 'I' for Inactive)
REMARK    1  A    between atoms: C_1  and  C_2
REMARK    2  A    between atoms: C_2  and  C_3
REMARK    3  A    between atoms: C_2  and  C_4
REMARK    4  A    between atoms: C_8  and  S_9
REMARK    5  A    between atoms: S_9  and  C_10
REMARK    6  A    between atoms: C_10  and  C_11
REMARK    7  A    between atoms: N_13  and  C_14
REMARK                            x       y       z     vdW  Elec       q    Type
REMARK                         _______ _______ _______ _____ _____    ______ ____
ROOT
ATOM      1  C   UNL     1       4.871   5.360  16.720  0.00  0.00    +0.000 A 
ATOM      2  N   UNL     1       5.064   6.667  16.627  0.00  0.00    +0.000 NA
ATOM      3  N   UNL     1       4.180   7.312  17.439  0.00  0.00    +0.000 NA
ATOM      4  C   UNL     1       3.460   6.393  18.037  0.00  0.00    +0.000 A 
ATOM      5  C   UNL     1       2.392   6.577  18.969  0.00  0.00    +0.000 A 
ATOM      6  N   UNL     1       1.753   5.574  19.479  0.00  0.00    +0.000 NA
ATOM      7  C   UNL     1       2.163   4.269  19.106  0.00  0.00    +0.000 A 
ATOM      8  C   UNL     1       1.459   3.196  19.663  0.00  0.00    +0.000 A 
ATOM      9  C   UNL     1       1.843   1.882  19.398  0.00  0.00    +0.000 A 
ATOM     10  C   UNL     1       2.948   1.632  18.587  0.00  0.00    +0.000 A 
ATOM     11  C   UNL     1       3.657   2.685  18.004  0.00  0.00    +0.000 A 
ATOM     12  C   UNL     1       3.252   3.998  18.236  0.00  0.00    +0.000 A 
ATOM     13  N   UNL     1       3.872   5.135  17.660  0.00  0.00    +0.000 N 
ENDROOT
BRANCH   1  15
ATOM     14  C   UNL     1       5.463   4.604  14.402  0.00  0.00    +0.000 C 
ATOM     15  C   UNL     1       5.661   4.370  15.912  0.00  0.00    +0.000 C 
ATOM     16  C   UNL     1       7.150   4.490  16.243  0.00  0.00    +0.000 C 
ENDBRANCH   1  15
BRANCH   5  17
ATOM     17  S   UNL     1       2.026   8.236  19.392  0.00  0.00    +0.000 S 
BRANCH  17  18
ATOM     18  C   UNL     1       1.233   8.031  21.006  0.00  0.00    +0.000 C 
BRANCH  18  19
ATOM     19  C   UNL     1       1.097   9.372  21.714  0.00  0.00    +0.000 C 
ATOM     20  O   UNL     1       1.722   9.586  22.751  0.00  0.00    +0.000 OA
ATOM     21  N   UNL     1       0.267  10.282  21.074  0.00  0.00    +0.000 N 
ATOM     22  H   UNL     1      -0.336   9.918  20.338  0.00  0.00    +0.000 HD
BRANCH  21  23
ATOM     23  C   UNL     1      -0.063  11.578  21.541  0.00  0.00    +0.000 A 
ATOM     24  C   UNL     1       0.497  12.750  21.027  0.00  0.00    +0.000 A 
ATOM     25  C   UNL     1       0.210  13.991  21.609  0.00  0.00    +0.000 A 
ATOM     26  C   UNL     1      -0.652  14.066  22.700  0.00  0.00    +0.000 A 
ATOM     27 BR   UNL     1      -0.966  15.734  23.531  0.00  0.00    +0.000 Br
ATOM     28  C   UNL     1      -1.265  12.917  23.190  0.00  0.00    +0.000 A 
ATOM     29  C   UNL     1      -0.976  11.689  22.598  0.00  0.00    +0.000 A 
ATOM     30  F   UNL     1      -1.563  10.584  23.085  0.00  0.00    +0.000 F 
ENDBRANCH  21  23
ENDBRANCH  18  19
ENDBRANCH  17  18
ENDBRANCH   5  17
TORSDOF 5
ENDMDL
MODEL 7
REMARK VINA RESULT:      -8.2      6.653      8.604
REMARK  Name = 
REMARK  7 active torsions:
REMARK  status: ('A' for Active; 'I' for Inactive)
REMARK    1  A    between atoms: C_1  and  C_2
REMARK    2  A    between atoms: C_2  and  C_3
REMARK    3  A    between atoms: C_2  and  C_4
REMARK    4  A    between atoms: C_8  and  S_9
REMARK    5  A    between atoms: S_9  and  C_10
REMARK    6  A    between atoms: C_10  and  C_11
REMARK    7  A    between atoms: N_13  and  C_14
REMARK                            x       y       z     vdW  Elec       q    Type
REMARK                         _______ _______ _______ _____ _____    ______ ____
ROOT
ATOM      1  C   UNL     1       5.026   5.463  16.684  0.00  0.00    +0.000 A 
ATOM      2  N   UNL     1       5.211   6.774  16.663  0.00  0.00    +0.000 NA
ATOM      3  N   UNL     1       4.272   7.374  17.447  0.00  0.00    +0.000 NA
ATOM      4  C   UNL     1       3.527   6.423  17.956  0.00  0.00    +0.000 A 
ATOM      5  C   UNL     1       2.401   6.556  18.828  0.00  0.00    +0.000 A 
ATOM      6  N   UNL     1       1.742   5.525  19.250  0.00  0.00    +0.000 NA
ATOM      7  C   UNL     1       2.188   4.242  18.844  0.00  0.00    +0.000 A 
ATOM      8  C   UNL     1       1.461   3.138  19.306  0.00  0.00    +0.000 A 
ATOM      9  C   UNL     1       1.874   1.842  19.005  0.00  0.00    +0.000 A 
ATOM     10  C   UNL     1       3.029   1.637  18.253  0.00  0.00    +0.000 A 
ATOM     11  C   UNL     1       3.763   2.722  17.765  0.00  0.00    +0.000 A 
ATOM     12  C   UNL     1       3.331   4.020  18.031  0.00  0.00    +0.000 A 
ATOM     13  N   UNL     1       3.973   5.187  17.548  0.00  0.00    +0.000 N 
ENDROOT
BRANCH   1  15
ATOM     14  C   UNL     1       5.313   4.341  14.457  0.00  0.00    +0.000 C 
ATOM     15  C   UNL     1       5.875   4.517  15.881  0.00  0.00    +0.000 C 
ATOM     16  C   UNL     1       7.307   5.045  15.789  0.00  0.00    +0.000 C 
ENDBRANCH   1  15
BRANCH   5  17
ATOM     17  S   UNL     1       1.993   8.190  19.304  0.00  0.00    +0.000 S 
BRANCH  17  18
ATOM     18  C   UNL     1       1.575   7.964  21.050  0.00  0.00    +0.000 C 
BRANCH  18  19
ATOM     19  C   UNL     1       0.285   8.696  21.394  0.00  0.00    +0.000 C 
ATOM     20  O   UNL     1      -0.725   8.057  21.684  0.00  0.00    +0.000 OA
ATOM     21  N   UNL     1       0.383  10.080  21.381  0.00  0.00    +0.000 N 
ATOM     22  H   UNL     1       1.210  10.479  20.941  0.00  0.00    +0.000 HD
BRANCH  21  23
ATOM     23  C   UNL     1      -0.675  10.991  21.622  0.00  0.00    +0.000 A 
ATOM     24  C   UNL     1      -1.209  11.238  22.888  0.00  0.00    +0.000 A 
ATOM     25  C   UNL     1      -2.327  12.067  23.041  0.00  0.00    +0.000 A 
ATOM     26  C   UNL     1      -2.906  12.667  21.925  0.00  0.00    +0.000 A 
ATOM     27 BR   UNL     1      -4.464  13.716  22.131  0.00  0.00    +0.000 Br
ATOM     28  C   UNL     1      -2.353  12.481  20.662  0.00  0.00    +0.000 A 
ATOM     29  C   UNL     1      -1.237  11.658  20.525  0.00  0.00    +0.000 A 
ATOM     30  F   UNL     1      -0.718  11.475  19.300  0.00  0.00    +0.000 F 
ENDBRANCH  21  23
ENDBRANCH  18  19
ENDBRANCH  17  18
ENDBRANCH   5  17
TORSDOF 5
ENDMDL
MODEL 8
REMARK VINA RESULT:      -8.2      7.222      9.158
REMARK  Name = 
REMARK  7 active torsions:
REMARK  status: ('A' for Active; 'I' for Inactive)
REMARK    1  A    between atoms: C_1  and  C_2
REMARK    2  A    between atoms: C_2  and  C_3
REMARK    3  A    between atoms: C_2  and  C_4
REMARK    4  A    between atoms: C_8  and  S_9
REMARK    5  A    between atoms: S_9  and  C_10
REMARK    6  A    between atoms: C_10  and  C_11
REMARK    7  A    between atoms: N_13  and  C_14
REMARK                            x       y       z     vdW  Elec       q    Type
REMARK                         _______ _______ _______ _____ _____    ______ ____
ROOT
ATOM      1  C   UNL     1       4.558   5.594  17.361  0.00  0.00    +0.000 A 
ATOM      2  N   UNL     1       4.458   6.831  16.899  0.00  0.00    +0.000 NA
ATOM      3  N   UNL     1       3.580   7.531  17.671  0.00  0.00    +0.000 NA
ATOM      4  C   UNL     1       3.159   6.720  18.612  0.00  0.00    +0.000 A 
ATOM      5  C   UNL     1       2.216   6.990  19.652  0.00  0.00    +0.000 A 
ATOM      6  N   UNL     1       1.878   6.086  20.516  0.00  0.00    +0.000 NA
ATOM      7  C   UNL     1       2.498   4.815  20.421  0.00  0.00    +0.000 A 
ATOM      8  C   UNL     1       2.118   3.849  21.359  0.00  0.00    +0.000 A 
ATOM      9  C   UNL     1       2.729   2.596  21.373  0.00  0.00    +0.000 A 
ATOM     10  C   UNL     1       3.738   2.304  20.457  0.00  0.00    +0.000 A 
ATOM     11  C   UNL     1       4.123   3.245  19.498  0.00  0.00    +0.000 A 
ATOM     12  C   UNL     1       3.487   4.485  19.457  0.00  0.00    +0.000 A 
ATOM     13  N   UNL     1       3.769   5.491  18.500  0.00  0.00    +0.000 N 
ENDROOT
BRANCH   1  15
ATOM     14  C   UNL     1       5.487   4.780  15.176  0.00  0.00    +0.000 C 
ATOM     15  C   UNL     1       5.418   4.555  16.699  0.00  0.00    +0.000 C 
ATOM     16  C   UNL     1       6.836   4.603  17.272  0.00  0.00    +0.000 C 
ENDBRANCH   1  15
BRANCH   5  17
ATOM     17  S   UNL     1       1.573   8.617  19.696  0.00  0.00    +0.000 S 
BRANCH  17  18
ATOM     18  C   UNL     1       1.467   8.916  21.478  0.00  0.00    +0.000 C 
BRANCH  18  19
ATOM     19  C   UNL     1       0.089   9.443  21.854  0.00  0.00    +0.000 C 
ATOM     20  O   UNL     1      -0.762   8.675  22.299  0.00  0.00    +0.000 OA
ATOM     21  N   UNL     1      -0.073  10.811  21.685  0.00  0.00    +0.000 N 
ATOM     22  H   UNL     1       0.633  11.294  21.133  0.00  0.00    +0.000 HD
BRANCH  21  23
ATOM     23  C   UNL     1      -1.264  11.543  21.920  0.00  0.00    +0.000 A 
ATOM     24  C   UNL     1      -1.864  11.660  23.175  0.00  0.00    +0.000 A 
ATOM     25  C   UNL     1      -3.098  12.305  23.317  0.00  0.00    +0.000 A 
ATOM     26  C   UNL     1      -3.732  12.850  22.203  0.00  0.00    +0.000 A 
ATOM     27 BR   UNL     1      -5.437  13.642  22.392  0.00  0.00    +0.000 Br
ATOM     28  C   UNL     1      -3.123  12.794  20.953  0.00  0.00    +0.000 A 
ATOM     29  C   UNL     1      -1.891  12.155  20.827  0.00  0.00    +0.000 A 
ATOM     30  F   UNL     1      -1.317  12.096  19.614  0.00  0.00    +0.000 F 
ENDBRANCH  21  23
ENDBRANCH  18  19
ENDBRANCH  17  18
ENDBRANCH   5  17
TORSDOF 5
ENDMDL
MODEL 9
REMARK VINA RESULT:      -8.1      5.810      7.184
REMARK  Name = 
REMARK  7 active torsions:
REMARK  status: ('A' for Active; 'I' for Inactive)
REMARK    1  A    between atoms: C_1  and  C_2
REMARK    2  A    between atoms: C_2  and  C_3
REMARK    3  A    between atoms: C_2  and  C_4
REMARK    4  A    between atoms: C_8  and  S_9
REMARK    5  A    between atoms: S_9  and  C_10
REMARK    6  A    between atoms: C_10  and  C_11
REMARK    7  A    between atoms: N_13  and  C_14
REMARK                            x       y       z     vdW  Elec       q    Type
REMARK                         _______ _______ _______ _____ _____    ______ ____
ROOT
ATOM      1  C   UNL     1       5.247   5.455  16.705  0.00  0.00    +0.000 A 
ATOM      2  N   UNL     1       5.289   6.581  16.010  0.00  0.00    +0.000 NA
ATOM      3  N   UNL     1       4.349   7.442  16.493  0.00  0.00    +0.000 NA
ATOM      4  C   UNL     1       3.749   6.842  17.493  0.00  0.00    +0.000 A 
ATOM      5  C   UNL     1       2.682   7.336  18.306  0.00  0.00    +0.000 A 
ATOM      6  N   UNL     1       2.170   6.627  19.260  0.00  0.00    +0.000 NA
ATOM      7  C   UNL     1       2.721   5.344  19.501  0.00  0.00    +0.000 A 
ATOM      8  C   UNL     1       2.153   4.589  20.534  0.00  0.00    +0.000 A 
ATOM      9  C   UNL     1       2.680   3.345  20.876  0.00  0.00    +0.000 A 
ATOM     10  C   UNL     1       3.793   2.852  20.198  0.00  0.00    +0.000 A 
ATOM     11  C   UNL     1       4.368   3.578  19.151  0.00  0.00    +0.000 A 
ATOM     12  C   UNL     1       3.819   4.804  18.781  0.00  0.00    +0.000 A 
ATOM     13  N   UNL     1       4.296   5.598  17.708  0.00  0.00    +0.000 N 
ENDROOT
BRANCH   1  15
ATOM     14  C   UNL     1       6.345   4.140  14.871  0.00  0.00    +0.000 C 
ATOM     15  C   UNL     1       6.133   4.282  16.390  0.00  0.00    +0.000 C 
ATOM     16  C   UNL     1       7.494   4.453  17.068  0.00  0.00    +0.000 C 
ENDBRANCH   1  15
BRANCH   5  17
ATOM     17  S   UNL     1       2.135   8.959  17.945  0.00  0.00    +0.000 S 
BRANCH  17  18
ATOM     18  C   UNL     1       1.106   9.323  19.388  0.00  0.00    +0.000 C 
BRANCH  18  19
ATOM     19  C   UNL     1       1.103  10.816  19.685  0.00  0.00    +0.000 C 
ATOM     20  O   UNL     1       1.055  11.211  20.849  0.00  0.00    +0.000 OA
ATOM     21  N   UNL     1       1.195  11.630  18.564  0.00  0.00    +0.000 N 
ATOM     22  H   UNL     1       1.033  11.188  17.661  0.00  0.00    +0.000 HD
BRANCH  21  23
ATOM     23  C   UNL     1       1.170  13.046  18.560  0.00  0.00    +0.000 A 
ATOM     24  C   UNL     1       2.320  13.839  18.563  0.00  0.00    +0.000 A 
ATOM     25  C   UNL     1       2.225  15.232  18.671  0.00  0.00    +0.000 A 
ATOM     26  C   UNL     1       0.975  15.839  18.761  0.00  0.00    +0.000 A 
ATOM     27 BR   UNL     1       0.860  17.711  18.992  0.00  0.00    +0.000 Br
ATOM     28  C   UNL     1      -0.184  15.072  18.701  0.00  0.00    +0.000 A 
ATOM     29  C   UNL     1      -0.076  13.687  18.587  0.00  0.00    +0.000 A 
ATOM     30  F   UNL     1      -1.199  12.954  18.543  0.00  0.00    +0.000 F 
ENDBRANCH  21  23
ENDBRANCH  18  19
ENDBRANCH  17  18
ENDBRANCH   5  17
TORSDOF 5
ENDMDL
