MODEL 1
REMARK VINA RESULT:      -8.1      0.000      0.000
REMARK  Name = 
REMARK  12 active torsions:
REMARK  status: ('A' for Active; 'I' for Inactive)
REMARK    1  A    between atoms: C_1  and  C_2
REMARK    2  A    between atoms: C_2  and  C_3
REMARK    3  A    between atoms: C_3  and  C_4
REMARK    4  A    between atoms: C_4  and  C_5
REMARK    5  A    between atoms: C_5  and  C_6
REMARK    6  A    between atoms: C_6  and  C_7
REMARK    7  A    between atoms: C_7  and  C_8
REMARK    8  A    between atoms: C_8  and  C_9
REMARK    9  A    between atoms: C_9  and  O_10
REMARK   10  A    between atoms: C_9  and  C_11
REMARK   11  A    between atoms: N_21  and  C_22
REMARK   12  A    between atoms: C_30  and  C_31
REMARK                            x       y       z     vdW  Elec       q    Type
REMARK                         _______ _______ _______ _____ _____    ______ ____
ROOT
ATOM      1  C   UNL     1       3.449   3.456  18.571  0.00  0.00    +0.000 C 
ATOM      2  C   UNL     1       3.467   2.348  19.649  0.00  0.00    +0.000 C 
ATOM      3  C   UNL     1       2.287   2.480  20.613  0.00  0.00    +0.000 C 
ATOM      4  C   UNL     1       2.065   3.874  21.212  0.00  0.00    +0.000 C 
ATOM      5  C   UNL     1       2.314   5.051  20.291  0.00  0.00    +0.000 C 
ATOM      6  C   UNL     1       1.610   6.210  20.432  0.00  0.00    +0.000 C 
ATOM      7  C   UNL     1       1.938   7.289  19.571  0.00  0.00    +0.000 A 
ATOM      8  C   UNL     1       2.784   7.209  18.505  0.00  0.00    +0.000 A 
ATOM      9  C   UNL     1       2.653   8.392  17.781  0.00  0.00    +0.000 A 
ATOM     10  N   UNL     1       1.763   9.199  18.347  0.00  0.00    +0.000 NA
ATOM     11  N   UNL     1       1.439   8.582  19.530  0.00  0.00    +0.000 N 
ATOM     12  C   UNL     1       3.472   5.972  18.178  0.00  0.00    +0.000 C 
ATOM     13  C   UNL     1       3.493   4.881  19.278  0.00  0.00    +0.000 C 
ATOM     14  C   UNL     1       4.790   5.064  20.106  0.00  0.00    +0.000 C 
ENDROOT
BRANCH  11  15
ATOM     15  C   UNL     1       0.828   9.376  20.527  0.00  0.00    +0.000 A 
ATOM     16  C   UNL     1       0.897   8.940  21.856  0.00  0.00    +0.000 A 
ATOM     17  C   UNL     1       0.209   9.637  22.848  0.00  0.00    +0.000 A 
ATOM     18  C   UNL     1      -0.558  10.732  22.483  0.00  0.00    +0.000 A 
ATOM     19  F   UNL     1      -1.244  11.387  23.432  0.00  0.00    +0.000 F 
ATOM     20  C   UNL     1      -0.652  11.154  21.162  0.00  0.00    +0.000 A 
ATOM     21  C   UNL     1       0.056  10.481  20.169  0.00  0.00    +0.000 A 
ENDBRANCH  11  15
BRANCH   1  22
ATOM     22  C   UNL     1       4.520   3.162  17.435  0.00  0.00    +0.000 C 
BRANCH  22  23
ATOM     23  O   UNL     1       4.408   1.783  17.062  0.00  0.00    +0.000 OA
ATOM     24  H   UNL     1       5.258   1.347  17.233  0.00  0.00    +0.000 HD
ENDBRANCH  22  23
BRANCH  22  25
ATOM     25  C   UNL     1       4.318   3.976  16.149  0.00  0.00    +0.000 C 
BRANCH  25  26
ATOM     26  C   UNL     1       5.529   4.493  15.390  0.00  0.00    +0.000 C 
BRANCH  26  27
ATOM     27  C   UNL     1       5.174   4.432  13.887  0.00  0.00    +0.000 C 
BRANCH  27  28
ATOM     28  C   UNL     1       6.159   3.577  13.121  0.00  0.00    +0.000 C 
BRANCH  28  29
ATOM     29  C   UNL     1       5.499   2.863  11.944  0.00  0.00    +0.000 C 
BRANCH  29  30
ATOM     30  C   UNL     1       4.589   3.854  11.231  0.00  0.00    +0.000 C 
BRANCH  30  32
ATOM     31  C   UNL     1       2.769   4.109   9.555  0.00  0.00    +0.000 C 
ATOM     32  C   UNL     1       3.356   3.200  10.623  0.00  0.00    +0.000 C 
ENDBRANCH  30  32
ENDBRANCH  29  30
ENDBRANCH  28  29
ENDBRANCH  27  28
ENDBRANCH  26  27
ENDBRANCH  25  26
ENDBRANCH  22  25
ENDBRANCH   1  22
TORSDOF 10
ENDMDL
MODEL 2
REMARK VINA RESULT:      -8.1      2.797      4.550
REMARK  Name = 
REMARK  12 active torsions:
REMARK  status: ('A' for Active; 'I' for Inactive)
REMARK    1  A    between atoms: C_1  and  C_2
REMARK    2  A    between atoms: C_2  and  C_3
REMARK    3  A    between atoms: C_3  and  C_4
REMARK    4  A    between atoms: C_4  and  C_5
REMARK    5  A    between atoms: C_5  and  C_6
REMARK    6  A    between atoms: C_6  and  C_7
REMARK    7  A    between atoms: C_7  and  C_8
REMARK    8  A    between atoms: C_8  and  C_9
REMARK    9  A    between atoms: C_9  and  O_10
REMARK   10  A    between atoms: C_9  and  C_11
REMARK   11  A    between atoms: N_21  and  C_22
REMARK   12  A    between atoms: C_30  and  C_31
REMARK                            x       y       z     vdW  Elec       q    Type
REMARK                         _______ _______ _______ _____ _____    ______ ____
ROOT
ATOM      1  C   UNL     1       3.993   3.920  17.781  0.00  0.00    +0.000 C 
ATOM      2  C   UNL     1       4.081   2.660  18.672  0.00  0.00    +0.000 C 
ATOM      3  C   UNL     1       2.855   2.522  19.576  0.00  0.00    +0.000 C 
ATOM      4  C   UNL     1       2.466   3.774  20.372  0.00  0.00    +0.000 C 
ATOM      5  C   UNL     1       2.630   5.102  19.661  0.00  0.00    +0.000 C 
ATOM      6  C   UNL     1       1.805   6.150  19.941  0.00  0.00    +0.000 C 
ATOM      7  C   UNL     1       2.054   7.381  19.279  0.00  0.00    +0.000 A 
ATOM      8  C   UNL     1       2.947   7.554  18.264  0.00  0.00    +0.000 A 
ATOM      9  C   UNL     1       2.724   8.821  17.727  0.00  0.00    +0.000 A 
ATOM     10  N   UNL     1       1.734   9.438  18.361  0.00  0.00    +0.000 NA
ATOM     11  N   UNL     1       1.427   8.610  19.413  0.00  0.00    +0.000 N 
ATOM     12  C   UNL     1       3.772   6.457  17.787  0.00  0.00    +0.000 C 
ATOM     13  C   UNL     1       3.861   5.210  18.703  0.00  0.00    +0.000 C 
ATOM     14  C   UNL     1       5.096   5.381  19.622  0.00  0.00    +0.000 C 
ENDROOT
BRANCH  11  15
ATOM     15  C   UNL     1       0.697   9.171  20.485  0.00  0.00    +0.000 A 
ATOM     16  C   UNL     1      -0.163  10.243  20.211  0.00  0.00    +0.000 A 
ATOM     17  C   UNL     1      -0.811  10.894  21.259  0.00  0.00    +0.000 A 
ATOM     18  C   UNL     1      -0.558  10.481  22.557  0.00  0.00    +0.000 A 
ATOM     19  F   UNL     1      -1.158  11.124  23.570  0.00  0.00    +0.000 F 
ATOM     20  C   UNL     1       0.314   9.436  22.838  0.00  0.00    +0.000 A 
ATOM     21  C   UNL     1       0.943   8.760  21.795  0.00  0.00    +0.000 A 
ENDBRANCH  11  15
BRANCH   1  22
ATOM     22  C   UNL     1       5.134   3.916  16.676  0.00  0.00    +0.000 C 
BRANCH  22  23
ATOM     23  O   UNL     1       4.702   4.738  15.585  0.00  0.00    +0.000 OA
ATOM     24  H   UNL     1       4.798   5.669  15.843  0.00  0.00    +0.000 HD
ENDBRANCH  22  23
BRANCH  22  25
ATOM     25  C   UNL     1       6.475   4.497  17.149  0.00  0.00    +0.000 C 
BRANCH  25  26
ATOM     26  C   UNL     1       7.129   5.618  16.357  0.00  0.00    +0.000 C 
BRANCH  26  27
ATOM     27  C   UNL     1       6.743   6.941  17.056  0.00  0.00    +0.000 C 
BRANCH  27  28
ATOM     28  C   UNL     1       7.878   7.467  17.906  0.00  0.00    +0.000 C 
BRANCH  28  29
ATOM     29  C   UNL     1       8.031   8.982  17.779  0.00  0.00    +0.000 C 
BRANCH  29  30
ATOM     30  C   UNL     1       8.981   9.460  18.871  0.00  0.00    +0.000 C 
BRANCH  30  32
ATOM     31  C   UNL     1      10.263  11.346  17.880  0.00  0.00    +0.000 C 
ATOM     32  C   UNL     1       9.174  10.969  18.872  0.00  0.00    +0.000 C 
ENDBRANCH  30  32
ENDBRANCH  29  30
ENDBRANCH  28  29
ENDBRANCH  27  28
ENDBRANCH  26  27
ENDBRANCH  25  26
ENDBRANCH  22  25
ENDBRANCH   1  22
TORSDOF 10
ENDMDL
MODEL 3
REMARK VINA RESULT:      -8.1      1.281      2.110
REMARK  Name = 
REMARK  12 active torsions:
REMARK  status: ('A' for Active; 'I' for Inactive)
REMARK    1  A    between atoms: C_1  and  C_2
REMARK    2  A    between atoms: C_2  and  C_3
REMARK    3  A    between atoms: C_3  and  C_4
REMARK    4  A    between atoms: C_4  and  C_5
REMARK    5  A    between atoms: C_5  and  C_6
REMARK    6  A    between atoms: C_6  and  C_7
REMARK    7  A    between atoms: C_7  and  C_8
REMARK    8  A    between atoms: C_8  and  C_9
REMARK    9  A    between atoms: C_9  and  O_10
REMARK   10  A    between atoms: C_9  and  C_11
REMARK   11  A    between atoms: N_21  and  C_22
REMARK   12  A    between atoms: C_30  and  C_31
REMARK                            x       y       z     vdW  Elec       q    Type
REMARK                         _______ _______ _______ _____ _____    ______ ____
ROOT
ATOM      1  C   UNL     1       4.258   4.464  17.294  0.00  0.00    +0.000 C 
ATOM      2  C   UNL     1       4.376   3.129  18.064  0.00  0.00    +0.000 C 
ATOM      3  C   UNL     1       3.136   2.857  18.917  0.00  0.00    +0.000 C 
ATOM      4  C   UNL     1       2.678   4.011  19.818  0.00  0.00    +0.000 C 
ATOM      5  C   UNL     1       2.805   5.407  19.241  0.00  0.00    +0.000 C 
ATOM      6  C   UNL     1       1.931   6.392  19.597  0.00  0.00    +0.000 C 
ATOM      7  C   UNL     1       2.146   7.688  19.062  0.00  0.00    +0.000 A 
ATOM      8  C   UNL     1       3.054   7.992  18.092  0.00  0.00    +0.000 A 
ATOM      9  C   UNL     1       2.792   9.295  17.672  0.00  0.00    +0.000 A 
ATOM     10  N   UNL     1       1.763   9.810  18.335  0.00  0.00    +0.000 NA
ATOM     11  N   UNL     1       1.466   8.874  19.295  0.00  0.00    +0.000 N 
ATOM     12  C   UNL     1       3.934   6.978  17.536  0.00  0.00    +0.000 C 
ATOM     13  C   UNL     1       4.052   5.654  18.331  0.00  0.00    +0.000 C 
ATOM     14  C   UNL     1       5.258   5.782  19.295  0.00  0.00    +0.000 C 
ENDROOT
BRANCH  11  15
ATOM     15  C   UNL     1       0.689   9.301  20.395  0.00  0.00    +0.000 A 
ATOM     16  C   UNL     1      -0.207  10.361  20.201  0.00  0.00    +0.000 A 
ATOM     17  C   UNL     1      -0.905  10.883  21.289  0.00  0.00    +0.000 A 
ATOM     18  C   UNL     1      -0.665  10.357  22.548  0.00  0.00    +0.000 A 
ATOM     19  F   UNL     1      -1.314  10.877  23.601  0.00  0.00    +0.000 F 
ATOM     20  C   UNL     1       0.242   9.324  22.752  0.00  0.00    +0.000 A 
ATOM     21  C   UNL     1       0.922   8.776  21.667  0.00  0.00    +0.000 A 
ENDBRANCH  11  15
BRANCH   1  22
ATOM     22  C   UNL     1       5.423   4.610  16.225  0.00  0.00    +0.000 C 
BRANCH  22  23
ATOM     23  O   UNL     1       6.285   3.472  16.345  0.00  0.00    +0.000 OA
ATOM     24  H   UNL     1       5.735   2.680  16.462  0.00  0.00    +0.000 HD
ENDBRANCH  22  23
BRANCH  22  25
ATOM     25  C   UNL     1       4.944   4.638  14.766  0.00  0.00    +0.000 C 
BRANCH  25  26
ATOM     26  C   UNL     1       5.660   3.792  13.725  0.00  0.00    +0.000 C 
BRANCH  26  27
ATOM     27  C   UNL     1       4.674   3.602  12.550  0.00  0.00    +0.000 C 
BRANCH  27  28
ATOM     28  C   UNL     1       5.390   3.149  11.297  0.00  0.00    +0.000 C 
BRANCH  28  29
ATOM     29  C   UNL     1       6.881   2.926  11.542  0.00  0.00    +0.000 C 
BRANCH  29  30
ATOM     30  C   UNL     1       7.213   1.481  11.193  0.00  0.00    +0.000 C 
BRANCH  30  32
ATOM     31  C   UNL     1       6.140  -0.751  11.424  0.00  0.00    +0.000 C 
ATOM     32  C   UNL     1       5.981   0.651  10.859  0.00  0.00    +0.000 C 
ENDBRANCH  30  32
ENDBRANCH  29  30
ENDBRANCH  28  29
ENDBRANCH  27  28
ENDBRANCH  26  27
ENDBRANCH  25  26
ENDBRANCH  22  25
ENDBRANCH   1  22
TORSDOF 10
ENDMDL
MODEL 4
REMARK VINA RESULT:      -7.9      1.784      3.294
REMARK  Name = 
REMARK  12 active torsions:
REMARK  status: ('A' for Active; 'I' for Inactive)
REMARK    1  A    between atoms: C_1  and  C_2
REMARK    2  A    between atoms: C_2  and  C_3
REMARK    3  A    between atoms: C_3  and  C_4
REMARK    4  A    between atoms: C_4  and  C_5
REMARK    5  A    between atoms: C_5  and  C_6
REMARK    6  A    between atoms: C_6  and  C_7
REMARK    7  A    between atoms: C_7  and  C_8
REMARK    8  A    between atoms: C_8  and  C_9
REMARK    9  A    between atoms: C_9  and  O_10
REMARK   10  A    between atoms: C_9  and  C_11
REMARK   11  A    between atoms: N_21  and  C_22
REMARK   12  A    between atoms: C_30  and  C_31
REMARK                            x       y       z     vdW  Elec       q    Type
REMARK                         _______ _______ _______ _____ _____    ______ ____
ROOT
ATOM      1  C   UNL     1       3.101   3.467  18.447  0.00  0.00    +0.000 C 
ATOM      2  C   UNL     1       2.917   2.279  19.418  0.00  0.00    +0.000 C 
ATOM      3  C   UNL     1       1.630   2.411  20.234  0.00  0.00    +0.000 C 
ATOM      4  C   UNL     1       1.408   3.764  20.919  0.00  0.00    +0.000 C 
ATOM      5  C   UNL     1       1.839   4.992  20.142  0.00  0.00    +0.000 C 
ATOM      6  C   UNL     1       1.186   6.179  20.293  0.00  0.00    +0.000 C 
ATOM      7  C   UNL     1       1.682   7.300  19.577  0.00  0.00    +0.000 A 
ATOM      8  C   UNL     1       2.654   7.249  18.623  0.00  0.00    +0.000 A 
ATOM      9  C   UNL     1       2.683   8.492  17.993  0.00  0.00    +0.000 A 
ATOM     10  N   UNL     1       1.772   9.308  18.511  0.00  0.00    +0.000 NA
ATOM     11  N   UNL     1       1.264   8.621  19.587  0.00  0.00    +0.000 N 
ATOM     12  C   UNL     1       3.311   5.999  18.279  0.00  0.00    +0.000 C 
ATOM     13  C   UNL     1       3.129   4.826  19.274  0.00  0.00    +0.000 C 
ATOM     14  C   UNL     1       4.314   4.859  20.272  0.00  0.00    +0.000 C 
ENDROOT
BRANCH  11  15
ATOM     15  C   UNL     1       0.571   9.372  20.563  0.00  0.00    +0.000 A 
ATOM     16  C   UNL     1      -0.118  10.520  20.150  0.00  0.00    +0.000 A 
ATOM     17  C   UNL     1      -0.715  11.346  21.101  0.00  0.00    +0.000 A 
ATOM     18  C   UNL     1      -0.580  11.025  22.442  0.00  0.00    +0.000 A 
ATOM     19  F   UNL     1      -1.129  11.834  23.360  0.00  0.00    +0.000 F 
ATOM     20  C   UNL     1       0.125   9.902  22.859  0.00  0.00    +0.000 A 
ATOM     21  C   UNL     1       0.700   9.055  21.915  0.00  0.00    +0.000 A 
ENDBRANCH  11  15
BRANCH   1  22
ATOM     22  C   UNL     1       4.293   3.195  17.433  0.00  0.00    +0.000 C 
BRANCH  22  23
ATOM     23  O   UNL     1       4.333   1.790  17.158  0.00  0.00    +0.000 OA
ATOM     24  H   UNL     1       5.261   1.523  17.047  0.00  0.00    +0.000 HD
ENDBRANCH  22  23
BRANCH  22  25
ATOM     25  C   UNL     1       4.143   3.897  16.075  0.00  0.00    +0.000 C 
BRANCH  25  26
ATOM     26  C   UNL     1       5.310   3.904  15.101  0.00  0.00    +0.000 C 
BRANCH  26  27
ATOM     27  C   UNL     1       5.998   5.281  15.239  0.00  0.00    +0.000 C 
BRANCH  27  28
ATOM     28  C   UNL     1       7.433   5.137  15.696  0.00  0.00    +0.000 C 
BRANCH  28  29
ATOM     29  C   UNL     1       7.526   4.784  17.179  0.00  0.00    +0.000 C 
BRANCH  29  30
ATOM     30  C   UNL     1       6.947   5.940  17.984  0.00  0.00    +0.000 C 
BRANCH  30  32
ATOM     31  C   UNL     1       7.784   8.258  17.649  0.00  0.00    +0.000 C 
ATOM     32  C   UNL     1       7.997   6.957  18.407  0.00  0.00    +0.000 C 
ENDBRANCH  30  32
ENDBRANCH  29  30
ENDBRANCH  28  29
ENDBRANCH  27  28
ENDBRANCH  26  27
ENDBRANCH  25  26
ENDBRANCH  22  25
ENDBRANCH   1  22
TORSDOF 10
ENDMDL
MODEL 5
REMARK VINA RESULT:      -7.9      1.823      3.235
REMARK  Name = 
REMARK  12 active torsions:
REMARK  status: ('A' for Active; 'I' for Inactive)
REMARK    1  A    between atoms: C_1  and  C_2
REMARK    2  A    between atoms: C_2  and  C_3
REMARK    3  A    between atoms: C_3  and  C_4
REMARK    4  A    between atoms: C_4  and  C_5
REMARK    5  A    between atoms: C_5  and  C_6
REMARK    6  A    between atoms: C_6  and  C_7
REMARK    7  A    between atoms: C_7  and  C_8
REMARK    8  A    between atoms: C_8  and  C_9
REMARK    9  A    between atoms: C_9  and  O_10
REMARK   10  A    between atoms: C_9  and  C_11
REMARK   11  A    between atoms: N_21  and  C_22
REMARK   12  A    between atoms: C_30  and  C_31
REMARK                            x       y       z     vdW  Elec       q    Type
REMARK                         _______ _______ _______ _____ _____    ______ ____
ROOT
ATOM      1  C   UNL     1       3.272   3.452  18.490  0.00  0.00    +0.000 C 
ATOM      2  C   UNL     1       3.196   2.305  19.524  0.00  0.00    +0.000 C 
ATOM      3  C   UNL     1       1.977   2.447  20.436  0.00  0.00    +0.000 C 
ATOM      4  C   UNL     1       1.779   3.826  21.079  0.00  0.00    +0.000 C 
ATOM      5  C   UNL     1       2.117   5.026  20.216  0.00  0.00    +0.000 C 
ATOM      6  C   UNL     1       1.450   6.205  20.370  0.00  0.00    +0.000 C 
ATOM      7  C   UNL     1       1.859   7.303  19.568  0.00  0.00    +0.000 A 
ATOM      8  C   UNL     1       2.751   7.229  18.540  0.00  0.00    +0.000 A 
ATOM      9  C   UNL     1       2.700   8.443  17.857  0.00  0.00    +0.000 A 
ATOM     10  N   UNL     1       1.815   9.262  18.413  0.00  0.00    +0.000 NA
ATOM     11  N   UNL     1       1.412   8.615  19.555  0.00  0.00    +0.000 N 
ATOM     12  C   UNL     1       3.408   5.978  18.198  0.00  0.00    +0.000 C 
ATOM     13  C   UNL     1       3.335   4.847  19.254  0.00  0.00    +0.000 C 
ATOM     14  C   UNL     1       4.597   4.949  20.148  0.00  0.00    +0.000 C 
ENDROOT
BRANCH  11  15
ATOM     15  C   UNL     1       0.783   9.394  20.552  0.00  0.00    +0.000 A 
ATOM     16  C   UNL     1       0.904   8.986  21.886  0.00  0.00    +0.000 A 
ATOM     17  C   UNL     1       0.204   9.664  22.882  0.00  0.00    +0.000 A 
ATOM     18  C   UNL     1      -0.625  10.712  22.517  0.00  0.00    +0.000 A 
ATOM     19  F   UNL     1      -1.322  11.349  23.470  0.00  0.00    +0.000 F 
ATOM     20  C   UNL     1      -0.770  11.106  21.192  0.00  0.00    +0.000 A 
ATOM     21  C   UNL     1      -0.052  10.453  20.194  0.00  0.00    +0.000 A 
ENDBRANCH  11  15
BRANCH   1  22
ATOM     22  C   UNL     1       4.385   3.159  17.395  0.00  0.00    +0.000 C 
BRANCH  22  23
ATOM     23  O   UNL     1       4.358   1.759  17.095  0.00  0.00    +0.000 OA
ATOM     24  H   UNL     1       4.857   1.286  17.781  0.00  0.00    +0.000 HD
ENDBRANCH  22  23
BRANCH  22  25
ATOM     25  C   UNL     1       4.169   3.891  16.062  0.00  0.00    +0.000 C 
BRANCH  25  26
ATOM     26  C   UNL     1       5.372   4.335  15.246  0.00  0.00    +0.000 C 
BRANCH  26  27
ATOM     27  C   UNL     1       5.178   5.838  14.947  0.00  0.00    +0.000 C 
BRANCH  27  28
ATOM     28  C   UNL     1       5.701   6.697  16.077  0.00  0.00    +0.000 C 
BRANCH  28  29
ATOM     29  C   UNL     1       7.078   6.238  16.551  0.00  0.00    +0.000 C 
BRANCH  29  30
ATOM     30  C   UNL     1       7.439   7.025  17.805  0.00  0.00    +0.000 C 
BRANCH  30  32
ATOM     31  C   UNL     1       7.921   4.687  18.502  0.00  0.00    +0.000 C 
ATOM     32  C   UNL     1       7.876   6.136  18.960  0.00  0.00    +0.000 C 
ENDBRANCH  30  32
ENDBRANCH  29  30
ENDBRANCH  28  29
ENDBRANCH  27  28
ENDBRANCH  26  27
ENDBRANCH  25  26
ENDBRANCH  22  25
ENDBRANCH   1  22
TORSDOF 10
ENDMDL
MODEL 6
REMARK VINA RESULT:      -7.7      2.030      3.610
REMARK  Name = 
REMARK  12 active torsions:
REMARK  status: ('A' for Active; 'I' for Inactive)
REMARK    1  A    between atoms: C_1  and  C_2
REMARK    2  A    between atoms: C_2  and  C_3
REMARK    3  A    between atoms: C_3  and  C_4
REMARK    4  A    between atoms: C_4  and  C_5
REMARK    5  A    between atoms: C_5  and  C_6
REMARK    6  A    between atoms: C_6  and  C_7
REMARK    7  A    between atoms: C_7  and  C_8
REMARK    8  A    between atoms: C_8  and  C_9
REMARK    9  A    between atoms: C_9  and  O_10
REMARK   10  A    between atoms: C_9  and  C_11
REMARK   11  A    between atoms: N_21  and  C_22
REMARK   12  A    between atoms: C_30  and  C_31
REMARK                            x       y       z     vdW  Elec       q    Type
REMARK                         _______ _______ _______ _____ _____    ______ ____
ROOT
ATOM      1  C   UNL     1       3.296   3.523  18.692  0.00  0.00    +0.000 C 
ATOM      2  C   UNL     1       3.353   2.455  19.808  0.00  0.00    +0.000 C 
ATOM      3  C   UNL     1       2.214   2.628  20.813  0.00  0.00    +0.000 C 
ATOM      4  C   UNL     1       2.023   4.044  21.370  0.00  0.00    +0.000 C 
ATOM      5  C   UNL     1       2.239   5.186  20.397  0.00  0.00    +0.000 C 
ATOM      6  C   UNL     1       1.546   6.353  20.525  0.00  0.00    +0.000 C 
ATOM      7  C   UNL     1       1.842   7.399  19.612  0.00  0.00    +0.000 A 
ATOM      8  C   UNL     1       2.643   7.275  18.517  0.00  0.00    +0.000 A 
ATOM      9  C   UNL     1       2.488   8.432  17.756  0.00  0.00    +0.000 A 
ATOM     10  N   UNL     1       1.626   9.264  18.328  0.00  0.00    +0.000 NA
ATOM     11  N   UNL     1       1.348   8.692  19.545  0.00  0.00    +0.000 N 
ATOM     12  C   UNL     1       3.313   6.023  18.207  0.00  0.00    +0.000 C 
ATOM     13  C   UNL     1       3.375   4.972  19.344  0.00  0.00    +0.000 C 
ATOM     14  C   UNL     1       4.705   5.179  20.112  0.00  0.00    +0.000 C 
ENDROOT
BRANCH  11  15
ATOM     15  C   UNL     1       0.781   9.525  20.536  0.00  0.00    +0.000 A 
ATOM     16  C   UNL     1       0.838   9.101  21.870  0.00  0.00    +0.000 A 
ATOM     17  C   UNL     1       0.190   9.840  22.858  0.00  0.00    +0.000 A 
ATOM     18  C   UNL     1      -0.527  10.965  22.485  0.00  0.00    +0.000 A 
ATOM     19  F   UNL     1      -1.176  11.662  23.430  0.00  0.00    +0.000 F 
ATOM     20  C   UNL     1      -0.610  11.377  21.160  0.00  0.00    +0.000 A 
ATOM     21  C   UNL     1       0.059  10.661  20.170  0.00  0.00    +0.000 A 
ENDBRANCH  11  15
BRANCH   1  22
ATOM     22  C   UNL     1       4.319   3.182  17.525  0.00  0.00    +0.000 C 
BRANCH  22  23
ATOM     23  O   UNL     1       3.862   1.997  16.863  0.00  0.00    +0.000 OA
ATOM     24  H   UNL     1       2.908   2.082  16.701  0.00  0.00    +0.000 HD
ENDBRANCH  22  23
BRANCH  22  25
ATOM     25  C   UNL     1       4.428   4.267  16.443  0.00  0.00    +0.000 C 
BRANCH  25  26
ATOM     26  C   UNL     1       5.717   4.408  15.650  0.00  0.00    +0.000 C 
BRANCH  26  27
ATOM     27  C   UNL     1       6.456   5.642  16.215  0.00  0.00    +0.000 C 
BRANCH  27  28
ATOM     28  C   UNL     1       7.184   5.309  17.498  0.00  0.00    +0.000 C 
BRANCH  28  29
ATOM     29  C   UNL     1       7.614   6.566  18.252  0.00  0.00    +0.000 C 
BRANCH  29  30
ATOM     30  C   UNL     1       7.918   7.656  17.232  0.00  0.00    +0.000 C 
BRANCH  30  32
ATOM     31  C   UNL     1       8.833   9.538  18.575  0.00  0.00    +0.000 C 
ATOM     32  C   UNL     1       7.644   9.057  17.758  0.00  0.00    +0.000 C 
ENDBRANCH  30  32
ENDBRANCH  29  30
ENDBRANCH  28  29
ENDBRANCH  27  28
ENDBRANCH  26  27
ENDBRANCH  25  26
ENDBRANCH  22  25
ENDBRANCH   1  22
TORSDOF 10
ENDMDL
MODEL 7
REMARK VINA RESULT:      -7.7      4.716      8.930
REMARK  Name = 
REMARK  12 active torsions:
REMARK  status: ('A' for Active; 'I' for Inactive)
REMARK    1  A    between atoms: C_1  and  C_2
REMARK    2  A    between atoms: C_2  and  C_3
REMARK    3  A    between atoms: C_3  and  C_4
REMARK    4  A    between atoms: C_4  and  C_5
REMARK    5  A    between atoms: C_5  and  C_6
REMARK    6  A    between atoms: C_6  and  C_7
REMARK    7  A    between atoms: C_7  and  C_8
REMARK    8  A    between atoms: C_8  and  C_9
REMARK    9  A    between atoms: C_9  and  O_10
REMARK   10  A    between atoms: C_9  and  C_11
REMARK   11  A    between atoms: N_21  and  C_22
REMARK   12  A    between atoms: C_30  and  C_31
REMARK                            x       y       z     vdW  Elec       q    Type
REMARK                         _______ _______ _______ _____ _____    ______ ____
ROOT
ATOM      1  C   UNL     1       0.405  11.674  20.909  0.00  0.00    +0.000 C 
ATOM      2  C   UNL     1      -0.671  11.711  22.018  0.00  0.00    +0.000 C 
ATOM      3  C   UNL     1      -0.536  10.525  22.975  0.00  0.00    +0.000 C 
ATOM      4  C   UNL     1      -0.422   9.145  22.318  0.00  0.00    +0.000 C 
ATOM      5  C   UNL     1       0.389   9.072  21.039  0.00  0.00    +0.000 C 
ATOM      6  C   UNL     1       1.076   7.940  20.711  0.00  0.00    +0.000 C 
ATOM      7  C   UNL     1       1.766   7.924  19.471  0.00  0.00    +0.000 A 
ATOM      8  C   UNL     1       1.935   9.005  18.658  0.00  0.00    +0.000 A 
ATOM      9  C   UNL     1       2.859   8.647  17.678  0.00  0.00    +0.000 A 
ATOM     10  N   UNL     1       3.270   7.396  17.849  0.00  0.00    +0.000 NA
ATOM     11  N   UNL     1       2.481   6.906  18.860  0.00  0.00    +0.000 N 
ATOM     12  C   UNL     1       1.368  10.300  18.993  0.00  0.00    +0.000 C 
ATOM     13  C   UNL     1       0.278  10.313  20.095  0.00  0.00    +0.000 C 
ATOM     14  C   UNL     1      -1.102  10.193  19.402  0.00  0.00    +0.000 C 
ENDROOT
BRANCH  11  15
ATOM     15  C   UNL     1       2.405   5.502  18.998  0.00  0.00    +0.000 A 
ATOM     16  C   UNL     1       1.810   4.766  17.965  0.00  0.00    +0.000 A 
ATOM     17  C   UNL     1       1.616   3.395  18.118  0.00  0.00    +0.000 A 
ATOM     18  C   UNL     1       1.989   2.798  19.311  0.00  0.00    +0.000 A 
ATOM     19  F   UNL     1       1.776   1.483  19.472  0.00  0.00    +0.000 F 
ATOM     20  C   UNL     1       2.555   3.526  20.350  0.00  0.00    +0.000 A 
ATOM     21  C   UNL     1       2.781   4.892  20.195  0.00  0.00    +0.000 A 
ENDBRANCH  11  15
BRANCH   1  22
ATOM     22  C   UNL     1       0.417  13.031  20.082  0.00  0.00    +0.000 C 
BRANCH  22  23
ATOM     23  O   UNL     1      -0.792  13.742  20.374  0.00  0.00    +0.000 OA
ATOM     24  H   UNL     1      -0.990  14.333  19.629  0.00  0.00    +0.000 HD
ENDBRANCH  22  23
BRANCH  22  25
ATOM     25  C   UNL     1       1.572  13.979  20.438  0.00  0.00    +0.000 C 
BRANCH  25  26
ATOM     26  C   UNL     1       2.960  13.715  19.877  0.00  0.00    +0.000 C 
BRANCH  26  27
ATOM     27  C   UNL     1       2.960  14.237  18.423  0.00  0.00    +0.000 C 
BRANCH  27  28
ATOM     28  C   UNL     1       3.498  15.648  18.344  0.00  0.00    +0.000 C 
BRANCH  28  29
ATOM     29  C   UNL     1       5.003  15.700  18.601  0.00  0.00    +0.000 C 
BRANCH  29  30
ATOM     30  C   UNL     1       5.677  14.666  17.708  0.00  0.00    +0.000 C 
BRANCH  30  32
ATOM     31  C   UNL     1       7.651  13.185  17.398  0.00  0.00    +0.000 C 
ATOM     32  C   UNL     1       7.153  14.477  18.026  0.00  0.00    +0.000 C 
ENDBRANCH  30  32
ENDBRANCH  29  30
ENDBRANCH  28  29
ENDBRANCH  27  28
ENDBRANCH  26  27
ENDBRANCH  25  26
ENDBRANCH  22  25
ENDBRANCH   1  22
TORSDOF 10
ENDMDL
MODEL 8
REMARK VINA RESULT:      -7.6      4.782      8.659
REMARK  Name = 
REMARK  12 active torsions:
REMARK  status: ('A' for Active; 'I' for Inactive)
REMARK    1  A    between atoms: C_1  and  C_2
REMARK    2  A    between atoms: C_2  and  C_3
REMARK    3  A    between atoms: C_3  and  C_4
REMARK    4  A    between atoms: C_4  and  C_5
REMARK    5  A    between atoms: C_5  and  C_6
REMARK    6  A    between atoms: C_6  and  C_7
REMARK    7  A    between atoms: C_7  and  C_8
REMARK    8  A    between atoms: C_8  and  C_9
REMARK    9  A    between atoms: C_9  and  O_10
REMARK   10  A    between atoms: C_9  and  C_11
REMARK   11  A    between atoms: N_21  and  C_22
REMARK   12  A    between atoms: C_30  and  C_31
REMARK                            x       y       z     vdW  Elec       q    Type
REMARK                         _______ _______ _______ _____ _____    ______ ____
ROOT
ATOM      1  C   UNL     1       1.196  12.053  19.503  0.00  0.00    +0.000 C 
ATOM      2  C   UNL     1       0.111  12.583  20.468  0.00  0.00    +0.000 C 
ATOM      3  C   UNL     1       0.007  11.722  21.728  0.00  0.00    +0.000 C 
ATOM      4  C   UNL     1      -0.105  10.210  21.497  0.00  0.00    +0.000 C 
ATOM      5  C   UNL     1       0.717   9.639  20.359  0.00  0.00    +0.000 C 
ATOM      6  C   UNL     1       1.202   8.366  20.418  0.00  0.00    +0.000 C 
ATOM      7  C   UNL     1       1.914   7.879  19.291  0.00  0.00    +0.000 A 
ATOM      8  C   UNL     1       2.295   8.634  18.223  0.00  0.00    +0.000 A 
ATOM      9  C   UNL     1       3.169   7.862  17.459  0.00  0.00    +0.000 A 
ATOM     10  N   UNL     1       3.348   6.666  18.008  0.00  0.00    +0.000 NA
ATOM     11  N   UNL     1       2.456   6.626  19.051  0.00  0.00    +0.000 N 
ATOM     12  C   UNL     1       1.956  10.044  18.134  0.00  0.00    +0.000 C 
ATOM     13  C   UNL     1       0.854  10.552  19.098  0.00  0.00    +0.000 C 
ATOM     14  C   UNL     1      -0.505  10.459  18.360  0.00  0.00    +0.000 C 
ENDROOT
BRANCH  11  15
ATOM     15  C   UNL     1       2.129   5.354  19.573  0.00  0.00    +0.000 A 
ATOM     16  C   UNL     1       2.377   5.111  20.930  0.00  0.00    +0.000 A 
ATOM     17  C   UNL     1       2.174   3.835  21.451  0.00  0.00    +0.000 A 
ATOM     18  C   UNL     1       1.762   2.824  20.597  0.00  0.00    +0.000 A 
ATOM     19  F   UNL     1       1.594   1.588  21.091  0.00  0.00    +0.000 F 
ATOM     20  C   UNL     1       1.541   3.052  19.244  0.00  0.00    +0.000 A 
ATOM     21  C   UNL     1       1.712   4.331  18.721  0.00  0.00    +0.000 A 
ENDBRANCH  11  15
BRANCH   1  22
ATOM     22  C   UNL     1       1.471  13.089  18.331  0.00  0.00    +0.000 C 
BRANCH  22  23
ATOM     23  O   UNL     1       0.465  14.108  18.390  0.00  0.00    +0.000 OA
ATOM     24  H   UNL     1      -0.169  13.875  19.088  0.00  0.00    +0.000 HD
ENDBRANCH  22  23
BRANCH  22  25
ATOM     25  C   UNL     1       2.823  13.812  18.429  0.00  0.00    +0.000 C 
BRANCH  25  26
ATOM     26  C   UNL     1       2.916  15.283  18.058  0.00  0.00    +0.000 C 
BRANCH  26  27
ATOM     27  C   UNL     1       4.418  15.605  17.887  0.00  0.00    +0.000 C 
BRANCH  27  28
ATOM     28  C   UNL     1       5.269  14.363  18.031  0.00  0.00    +0.000 C 
BRANCH  28  29
ATOM     29  C   UNL     1       6.729  14.626  17.668  0.00  0.00    +0.000 C 
BRANCH  29  30
ATOM     30  C   UNL     1       7.394  13.291  17.358  0.00  0.00    +0.000 C 
BRANCH  30  32
ATOM     31  C   UNL     1       9.078  11.605  18.069  0.00  0.00    +0.000 C 
ATOM     32  C   UNL     1       8.679  13.071  18.143  0.00  0.00    +0.000 C 
ENDBRANCH  30  32
ENDBRANCH  29  30
ENDBRANCH  28  29
ENDBRANCH  27  28
ENDBRANCH  26  27
ENDBRANCH  25  26
ENDBRANCH  22  25
ENDBRANCH   1  22
TORSDOF 10
ENDMDL
MODEL 9
REMARK VINA RESULT:      -7.5      4.722      9.360
REMARK  Name = 
REMARK  12 active torsions:
REMARK  status: ('A' for Active; 'I' for Inactive)
REMARK    1  A    between atoms: C_1  and  C_2
REMARK    2  A    between atoms: C_2  and  C_3
REMARK    3  A    between atoms: C_3  and  C_4
REMARK    4  A    between atoms: C_4  and  C_5
REMARK    5  A    between atoms: C_5  and  C_6
REMARK    6  A    between atoms: C_6  and  C_7
REMARK    7  A    between atoms: C_7  and  C_8
REMARK    8  A    between atoms: C_8  and  C_9
REMARK    9  A    between atoms: C_9  and  O_10
REMARK   10  A    between atoms: C_9  and  C_11
REMARK   11  A    between atoms: N_21  and  C_22
REMARK   12  A    between atoms: C_30  and  C_31
REMARK                            x       y       z     vdW  Elec       q    Type
REMARK                         _______ _______ _______ _____ _____    ______ ____
ROOT
ATOM      1  C   UNL     1       0.314  11.862  20.512  0.00  0.00    +0.000 C 
ATOM      2  C   UNL     1      -0.751  12.008  21.623  0.00  0.00    +0.000 C 
ATOM      3  C   UNL     1      -0.595  10.933  22.699  0.00  0.00    +0.000 C 
ATOM      4  C   UNL     1      -0.476   9.491  22.191  0.00  0.00    +0.000 C 
ATOM      5  C   UNL     1       0.322   9.288  20.918  0.00  0.00    +0.000 C 
ATOM      6  C   UNL     1       1.014   8.133  20.704  0.00  0.00    +0.000 C 
ATOM      7  C   UNL     1       1.691   7.990  19.465  0.00  0.00    +0.000 A 
ATOM      8  C   UNL     1       1.842   8.979  18.540  0.00  0.00    +0.000 A 
ATOM      9  C   UNL     1       2.758   8.525  17.593  0.00  0.00    +0.000 A 
ATOM     10  N   UNL     1       3.182   7.302  17.891  0.00  0.00    +0.000 NA
ATOM     11  N   UNL     1       2.408   6.918  18.958  0.00  0.00    +0.000 N 
ATOM     12  C   UNL     1       1.267  10.298  18.742  0.00  0.00    +0.000 C 
ATOM     13  C   UNL     1       0.190  10.420  19.849  0.00  0.00    +0.000 C 
ATOM     14  C   UNL     1      -1.197  10.217  19.188  0.00  0.00    +0.000 C 
ENDROOT
BRANCH  11  15
ATOM     15  C   UNL     1       2.346   5.536  19.246  0.00  0.00    +0.000 A 
ATOM     16  C   UNL     1       2.045   4.655  18.199  0.00  0.00    +0.000 A 
ATOM     17  C   UNL     1       1.863   3.299  18.469  0.00  0.00    +0.000 A 
ATOM     18  C   UNL     1       1.952   2.863  19.781  0.00  0.00    +0.000 A 
ATOM     19  F   UNL     1       1.749   1.564  20.046  0.00  0.00    +0.000 F 
ATOM     20  C   UNL     1       2.224   3.736  20.827  0.00  0.00    +0.000 A 
ATOM     21  C   UNL     1       2.437   5.087  20.564  0.00  0.00    +0.000 A 
ENDBRANCH  11  15
BRANCH   1  22
ATOM     22  C   UNL     1       0.305  13.122  19.545  0.00  0.00    +0.000 C 
BRANCH  22  23
ATOM     23  O   UNL     1      -0.873  13.889  19.821  0.00  0.00    +0.000 OA
ATOM     24  H   UNL     1      -0.604  14.755  20.167  0.00  0.00    +0.000 HD
ENDBRANCH  22  23
BRANCH  22  25
ATOM     25  C   UNL     1       1.495  14.075  19.736  0.00  0.00    +0.000 C 
BRANCH  25  26
ATOM     26  C   UNL     1       2.909  13.562  19.519  0.00  0.00    +0.000 C 
BRANCH  26  27
ATOM     27  C   UNL     1       3.866  14.701  19.939  0.00  0.00    +0.000 C 
BRANCH  27  28
ATOM     28  C   UNL     1       4.587  15.284  18.744  0.00  0.00    +0.000 C 
BRANCH  28  29
ATOM     29  C   UNL     1       4.115  16.701  18.428  0.00  0.00    +0.000 C 
BRANCH  29  30
ATOM     30  C   UNL     1       3.041  16.619  17.351  0.00  0.00    +0.000 C 
BRANCH  30  32
ATOM     31  C   UNL     1       1.741  17.690  19.180  0.00  0.00    +0.000 C 
ATOM     32  C   UNL     1       1.801  17.437  17.682  0.00  0.00    +0.000 C 
ENDBRANCH  30  32
ENDBRANCH  29  30
ENDBRANCH  28  29
ENDBRANCH  27  28
ENDBRANCH  26  27
ENDBRANCH  25  26
ENDBRANCH  22  25
ENDBRANCH   1  22
TORSDOF 10
ENDMDL
