MODEL 1
REMARK VINA RESULT:      -7.3      0.000      0.000
REMARK  Name = 
REMARK  6 active torsions:
REMARK  status: ('A' for Active; 'I' for Inactive)
REMARK    1  A    between atoms: C_2  and  O_3
REMARK    2  A    between atoms: O_3  and  C_4
REMARK    3  A    between atoms: N_6  and  C1*_7
REMARK    4  A    between atoms: C3*_9  and  O3*_10
REMARK    5  A    between atoms: C4*_11  and  C5*_12
REMARK    6  A    between atoms: C5*_12  and  O5*_13
REMARK                            x       y       z     vdW  Elec       q    Type
REMARK                         _______ _______ _______ _____ _____    ______ ____
ROOT
ATOM      1  C   UNL     1       5.764   4.671  15.312  0.00  0.00    +0.000 A 
ATOM      2  C   UNL     1       5.132   4.497  16.484  0.00  0.00    +0.000 A 
ATOM      3  N   UNL     1       5.778   4.491  17.708  0.00  0.00    +0.000 N 
ATOM      4  C   UNL     1       7.149   4.676  17.801  0.00  0.00    +0.000 A 
ATOM      5  O   UNL     1       7.759   4.764  18.863  0.00  0.00    +0.000 OA
ATOM      6  N   UNL     1       7.810   4.794  16.607  0.00  0.00    +0.000 N 
ATOM      7  C   UNL     1       7.230   4.913  15.374  0.00  0.00    +0.000 A 
ATOM      8  O   UNL     1       7.886   5.217  14.382  0.00  0.00    +0.000 OA
ATOM      9  H   UNL     1       8.802   4.972  16.656  0.00  0.00    +0.000 HD
ENDROOT
BRANCH   3  10
ATOM     10  C1* UNL     1       5.016   4.432  18.953  0.00  0.00    +0.000 C 
ATOM     11  C2* UNL     1       3.572   4.888  18.775  0.00  0.00    +0.000 C 
ATOM     12  C3* UNL     1       2.822   4.040  19.774  0.00  0.00    +0.000 C 
ATOM     13  C4* UNL     1       3.623   2.745  19.822  0.00  0.00    +0.000 C 
ATOM     14  O4* UNL     1       4.985   3.086  19.466  0.00  0.00    +0.000 OA
BRANCH  12  15
ATOM     15  O3* UNL     1       2.814   4.694  21.042  0.00  0.00    +0.000 OA
ATOM     16  H3* UNL     1       1.900   4.925  21.284  0.00  0.00    +0.000 HD
ENDBRANCH  12  15
BRANCH  13  17
ATOM     17  C5* UNL     1       3.112   1.699  18.825  0.00  0.00    +0.000 C 
BRANCH  17  18
ATOM     18  O5* UNL     1       4.177   0.840  18.416  0.00  0.00    +0.000 OA
ATOM     19  H5* UNL     1       4.785   0.764  19.176  0.00  0.00    +0.000 HD
ENDBRANCH  17  18
ENDBRANCH  13  17
ENDBRANCH   3  10
BRANCH   1  20
ATOM     20  O   UNL     1       5.170   4.727  14.064  0.00  0.00    +0.000 OA
BRANCH  20  22
ATOM     21  C   UNL     1       6.050   3.035  12.397  0.00  0.00    +0.000 C 
ATOM     22  C   UNL     1       5.634   3.836  13.190  0.00  0.00    +0.000 C 
ENDBRANCH  20  22
ENDBRANCH   1  20
TORSDOF 6
ENDMDL
MODEL 2
REMARK VINA RESULT:      -7.2      2.269      5.887
REMARK  Name = 
REMARK  6 active torsions:
REMARK  status: ('A' for Active; 'I' for Inactive)
REMARK    1  A    between atoms: C_2  and  O_3
REMARK    2  A    between atoms: O_3  and  C_4
REMARK    3  A    between atoms: N_6  and  C1*_7
REMARK    4  A    between atoms: C3*_9  and  O3*_10
REMARK    5  A    between atoms: C4*_11  and  C5*_12
REMARK    6  A    between atoms: C5*_12  and  O5*_13
REMARK                            x       y       z     vdW  Elec       q    Type
REMARK                         _______ _______ _______ _____ _____    ______ ____
ROOT
ATOM      1  C   UNL     1       2.647   5.971  19.648  0.00  0.00    +0.000 A 
ATOM      2  C   UNL     1       3.769   5.752  18.944  0.00  0.00    +0.000 A 
ATOM      3  N   UNL     1       4.253   4.490  18.649  0.00  0.00    +0.000 N 
ATOM      4  C   UNL     1       3.588   3.346  19.065  0.00  0.00    +0.000 A 
ATOM      5  O   UNL     1       3.926   2.206  18.760  0.00  0.00    +0.000 OA
ATOM      6  N   UNL     1       2.475   3.560  19.835  0.00  0.00    +0.000 N 
ATOM      7  C   UNL     1       1.884   4.769  20.078  0.00  0.00    +0.000 A 
ATOM      8  O   UNL     1       0.779   4.849  20.607  0.00  0.00    +0.000 OA
ATOM      9  H   UNL     1       1.954   2.741  20.111  0.00  0.00    +0.000 HD
ENDROOT
BRANCH   3  10
ATOM     10  C1* UNL     1       5.404   4.320  17.766  0.00  0.00    +0.000 C 
ATOM     11  C2* UNL     1       5.629   5.527  16.862  0.00  0.00    +0.000 C 
ATOM     12  C3* UNL     1       7.130   5.558  16.701  0.00  0.00    +0.000 C 
ATOM     13  C4* UNL     1       7.646   4.993  18.020  0.00  0.00    +0.000 C 
ATOM     14  O4* UNL     1       6.608   4.123  18.533  0.00  0.00    +0.000 OA
BRANCH  12  15
ATOM     15  O3* UNL     1       7.506   4.732  15.600  0.00  0.00    +0.000 OA
ATOM     16  H3* UNL     1       8.178   4.090  15.888  0.00  0.00    +0.000 HD
ENDBRANCH  12  15
BRANCH  13  17
ATOM     17  C5* UNL     1       7.919   6.085  19.060  0.00  0.00    +0.000 C 
BRANCH  17  18
ATOM     18  O5* UNL     1       7.970   5.521  20.371  0.00  0.00    +0.000 OA
ATOM     19  H5* UNL     1       7.314   4.799  20.392  0.00  0.00    +0.000 HD
ENDBRANCH  17  18
ENDBRANCH  13  17
ENDBRANCH   3  10
BRANCH   1  20
ATOM     20  O   UNL     1       2.093   7.205  19.939  0.00  0.00    +0.000 OA
BRANCH  20  22
ATOM     21  C   UNL     1       2.022   8.818  17.987  0.00  0.00    +0.000 C 
ATOM     22  C   UNL     1       2.056   8.050  18.911  0.00  0.00    +0.000 C 
ENDBRANCH  20  22
ENDBRANCH   1  20
TORSDOF 6
ENDMDL
MODEL 3
REMARK VINA RESULT:      -7.1      1.472      1.580
REMARK  Name = 
REMARK  6 active torsions:
REMARK  status: ('A' for Active; 'I' for Inactive)
REMARK    1  A    between atoms: C_2  and  O_3
REMARK    2  A    between atoms: O_3  and  C_4
REMARK    3  A    between atoms: N_6  and  C1*_7
REMARK    4  A    between atoms: C3*_9  and  O3*_10
REMARK    5  A    between atoms: C4*_11  and  C5*_12
REMARK    6  A    between atoms: C5*_12  and  O5*_13
REMARK                            x       y       z     vdW  Elec       q    Type
REMARK                         _______ _______ _______ _____ _____    ______ ____
ROOT
ATOM      1  C   UNL     1       6.061   5.708  16.586  0.00  0.00    +0.000 A 
ATOM      2  C   UNL     1       5.370   5.018  17.507  0.00  0.00    +0.000 A 
ATOM      3  N   UNL     1       5.784   4.864  18.818  0.00  0.00    +0.000 N 
ATOM      4  C   UNL     1       6.964   5.434  19.274  0.00  0.00    +0.000 A 
ATOM      5  O   UNL     1       7.335   5.399  20.444  0.00  0.00    +0.000 OA
ATOM      6  N   UNL     1       7.706   6.089  18.326  0.00  0.00    +0.000 N 
ATOM      7  C   UNL     1       7.311   6.368  17.047  0.00  0.00    +0.000 A 
ATOM      8  O   UNL     1       7.951   7.133  16.331  0.00  0.00    +0.000 OA
ATOM      9  H   UNL     1       8.545   6.547  18.649  0.00  0.00    +0.000 HD
ENDROOT
BRANCH   3  10
ATOM     10  C1* UNL     1       4.921   4.215  19.802  0.00  0.00    +0.000 C 
ATOM     11  C2* UNL     1       3.451   4.573  19.613  0.00  0.00    +0.000 C 
ATOM     12  C3* UNL     1       2.736   3.319  20.054  0.00  0.00    +0.000 C 
ATOM     13  C4* UNL     1       3.706   2.202  19.688  0.00  0.00    +0.000 C 
ATOM     14  O4* UNL     1       5.033   2.781  19.709  0.00  0.00    +0.000 OA
BRANCH  12  15
ATOM     15  O3* UNL     1       2.511   3.370  21.463  0.00  0.00    +0.000 OA
ATOM     16  H3* UNL     1       3.024   2.668  21.901  0.00  0.00    +0.000 HD
ENDBRANCH  12  15
BRANCH  13  17
ATOM     17  C5* UNL     1       3.449   1.636  18.286  0.00  0.00    +0.000 C 
BRANCH  17  18
ATOM     18  O5* UNL     1       2.050   1.636  17.999  0.00  0.00    +0.000 OA
ATOM     19  H5* UNL     1       1.690   2.473  18.351  0.00  0.00    +0.000 HD
ENDBRANCH  17  18
ENDBRANCH  13  17
ENDBRANCH   3  10
BRANCH   1  20
ATOM     20  O   UNL     1       5.679   5.931  15.275  0.00  0.00    +0.000 OA
BRANCH  20  22
ATOM     21  C   UNL     1       5.936   3.924  13.751  0.00  0.00    +0.000 C 
ATOM     22  C   UNL     1       5.817   4.878  14.472  0.00  0.00    +0.000 C 
ENDBRANCH  20  22
ENDBRANCH   1  20
TORSDOF 6
ENDMDL
MODEL 4
REMARK VINA RESULT:      -7.0      1.001      1.030
REMARK  Name = 
REMARK  6 active torsions:
REMARK  status: ('A' for Active; 'I' for Inactive)
REMARK    1  A    between atoms: C_2  and  O_3
REMARK    2  A    between atoms: O_3  and  C_4
REMARK    3  A    between atoms: N_6  and  C1*_7
REMARK    4  A    between atoms: C3*_9  and  O3*_10
REMARK    5  A    between atoms: C4*_11  and  C5*_12
REMARK    6  A    between atoms: C5*_12  and  O5*_13
REMARK                            x       y       z     vdW  Elec       q    Type
REMARK                         _______ _______ _______ _____ _____    ______ ____
ROOT
ATOM      1  C   UNL     1       5.699   4.654  15.309  0.00  0.00    +0.000 A 
ATOM      2  C   UNL     1       5.033   4.436  16.455  0.00  0.00    +0.000 A 
ATOM      3  N   UNL     1       5.632   4.450  17.702  0.00  0.00    +0.000 N 
ATOM      4  C   UNL     1       6.988   4.703  17.849  0.00  0.00    +0.000 A 
ATOM      5  O   UNL     1       7.553   4.810  18.934  0.00  0.00    +0.000 OA
ATOM      6  N   UNL     1       7.686   4.866  16.681  0.00  0.00    +0.000 N 
ATOM      7  C   UNL     1       7.147   4.969  15.429  0.00  0.00    +0.000 A 
ATOM      8  O   UNL     1       7.824   5.316  14.465  0.00  0.00    +0.000 OA
ATOM      9  H   UNL     1       8.665   5.094  16.770  0.00  0.00    +0.000 HD
ENDROOT
BRANCH   3  10
ATOM     10  C1* UNL     1       4.829   4.340  18.917  0.00  0.00    +0.000 C 
ATOM     11  C2* UNL     1       3.617   5.265  18.901  0.00  0.00    +0.000 C 
ATOM     12  C3* UNL     1       2.585   4.489  19.683  0.00  0.00    +0.000 C 
ATOM     13  C4* UNL     1       2.927   3.033  19.386  0.00  0.00    +0.000 C 
ATOM     14  O4* UNL     1       4.343   2.993  19.084  0.00  0.00    +0.000 OA
BRANCH  12  15
ATOM     15  O3* UNL     1       2.722   4.782  21.072  0.00  0.00    +0.000 OA
ATOM     16  H3* UNL     1       2.030   5.412  21.342  0.00  0.00    +0.000 HD
ENDBRANCH  12  15
BRANCH  13  17
ATOM     17  C5* UNL     1       2.160   2.483  18.179  0.00  0.00    +0.000 C 
BRANCH  17  18
ATOM     18  O5* UNL     1       1.089   3.360  17.828  0.00  0.00    +0.000 OA
ATOM     19  H5* UNL     1       0.855   3.162  16.901  0.00  0.00    +0.000 HD
ENDBRANCH  17  18
ENDBRANCH  13  17
ENDBRANCH   3  10
BRANCH   1  20
ATOM     20  O   UNL     1       5.149   4.694  14.040  0.00  0.00    +0.000 OA
BRANCH  20  22
ATOM     21  C   UNL     1       6.125   3.016  12.412  0.00  0.00    +0.000 C 
ATOM     22  C   UNL     1       5.664   3.811  13.187  0.00  0.00    +0.000 C 
ENDBRANCH  20  22
ENDBRANCH   1  20
TORSDOF 6
ENDMDL
MODEL 5
REMARK VINA RESULT:      -7.0      1.635      1.717
REMARK  Name = 
REMARK  6 active torsions:
REMARK  status: ('A' for Active; 'I' for Inactive)
REMARK    1  A    between atoms: C_2  and  O_3
REMARK    2  A    between atoms: O_3  and  C_4
REMARK    3  A    between atoms: N_6  and  C1*_7
REMARK    4  A    between atoms: C3*_9  and  O3*_10
REMARK    5  A    between atoms: C4*_11  and  C5*_12
REMARK    6  A    between atoms: C5*_12  and  O5*_13
REMARK                            x       y       z     vdW  Elec       q    Type
REMARK                         _______ _______ _______ _____ _____    ______ ____
ROOT
ATOM      1  C   UNL     1       6.234   4.045  14.571  0.00  0.00    +0.000 A 
ATOM      2  C   UNL     1       5.267   3.936  15.497  0.00  0.00    +0.000 A 
ATOM      3  N   UNL     1       5.144   4.789  16.580  0.00  0.00    +0.000 N 
ATOM      4  C   UNL     1       6.030   5.838  16.776  0.00  0.00    +0.000 A 
ATOM      5  O   UNL     1       5.918   6.672  17.670  0.00  0.00    +0.000 OA
ATOM      6  N   UNL     1       7.055   5.921  15.870  0.00  0.00    +0.000 N 
ATOM      7  C   UNL     1       7.178   5.183  14.725  0.00  0.00    +0.000 A 
ATOM      8  O   UNL     1       8.015   5.460  13.870  0.00  0.00    +0.000 OA
ATOM      9  H   UNL     1       7.683   6.703  15.971  0.00  0.00    +0.000 HD
ENDROOT
BRANCH   3  10
ATOM     10  C1* UNL     1       3.993   4.698  17.474  0.00  0.00    +0.000 C 
ATOM     11  C2* UNL     1       2.889   3.807  16.915  0.00  0.00    +0.000 C 
ATOM     12  C3* UNL     1       2.281   3.198  18.155  0.00  0.00    +0.000 C 
ATOM     13  C4* UNL     1       3.454   3.108  19.125  0.00  0.00    +0.000 C 
ATOM     14  O4* UNL     1       4.384   4.153  18.750  0.00  0.00    +0.000 OA
BRANCH  12  15
ATOM     15  O3* UNL     1       1.258   4.059  18.655  0.00  0.00    +0.000 OA
ATOM     16  H3* UNL     1       1.614   4.600  19.382  0.00  0.00    +0.000 HD
ENDBRANCH  12  15
BRANCH  13  17
ATOM     17  C5* UNL     1       4.183   1.762  19.043  0.00  0.00    +0.000 C 
BRANCH  17  18
ATOM     18  O5* UNL     1       5.190   1.679  20.052  0.00  0.00    +0.000 OA
ATOM     19  H5* UNL     1       4.755   1.890  20.900  0.00  0.00    +0.000 HD
ENDBRANCH  17  18
ENDBRANCH  13  17
ENDBRANCH   3  10
BRANCH   1  20
ATOM     20  O   UNL     1       6.383   3.252  13.448  0.00  0.00    +0.000 OA
BRANCH  20  22
ATOM     21  C   UNL     1       4.527   3.486  11.740  0.00  0.00    +0.000 C 
ATOM     22  C   UNL     1       5.405   3.373  12.552  0.00  0.00    +0.000 C 
ENDBRANCH  20  22
ENDBRANCH   1  20
TORSDOF 6
ENDMDL
MODEL 6
REMARK VINA RESULT:      -6.9      2.259      3.127
REMARK  Name = 
REMARK  6 active torsions:
REMARK  status: ('A' for Active; 'I' for Inactive)
REMARK    1  A    between atoms: C_2  and  O_3
REMARK    2  A    between atoms: O_3  and  C_4
REMARK    3  A    between atoms: N_6  and  C1*_7
REMARK    4  A    between atoms: C3*_9  and  O3*_10
REMARK    5  A    between atoms: C4*_11  and  C5*_12
REMARK    6  A    between atoms: C5*_12  and  O5*_13
REMARK                            x       y       z     vdW  Elec       q    Type
REMARK                         _______ _______ _______ _____ _____    ______ ____
ROOT
ATOM      1  C   UNL     1       5.622   4.789  16.570  0.00  0.00    +0.000 A 
ATOM      2  C   UNL     1       4.522   4.153  17.004  0.00  0.00    +0.000 A 
ATOM      3  N   UNL     1       3.478   4.786  17.655  0.00  0.00    +0.000 N 
ATOM      4  C   UNL     1       3.503   6.151  17.900  0.00  0.00    +0.000 A 
ATOM      5  O   UNL     1       2.570   6.775  18.398  0.00  0.00    +0.000 OA
ATOM      6  N   UNL     1       4.648   6.798  17.516  0.00  0.00    +0.000 N 
ATOM      7  C   UNL     1       5.667   6.261  16.778  0.00  0.00    +0.000 A 
ATOM      8  O   UNL     1       6.556   6.963  16.306  0.00  0.00    +0.000 OA
ATOM      9  H   UNL     1       4.666   7.798  17.646  0.00  0.00    +0.000 HD
ENDROOT
BRANCH   3  10
ATOM     10  C1* UNL     1       2.253   4.061  17.981  0.00  0.00    +0.000 C 
ATOM     11  C2* UNL     1       2.407   2.553  17.821  0.00  0.00    +0.000 C 
ATOM     12  C3* UNL     1       1.496   2.002  18.891  0.00  0.00    +0.000 C 
ATOM     13  C4* UNL     1       1.551   3.056  19.991  0.00  0.00    +0.000 C 
ATOM     14  O4* UNL     1       1.860   4.314  19.344  0.00  0.00    +0.000 OA
BRANCH  12  15
ATOM     15  O3* UNL     1       0.175   1.867  18.367  0.00  0.00    +0.000 OA
ATOM     16  H3* UNL     1       0.178   1.220  17.639  0.00  0.00    +0.000 HD
ENDBRANCH  12  15
BRANCH  13  17
ATOM     17  C5* UNL     1       2.642   2.767  21.028  0.00  0.00    +0.000 C 
BRANCH  17  18
ATOM     18  O5* UNL     1       2.178   3.090  22.340  0.00  0.00    +0.000 OA
ATOM     19  H5* UNL     1       2.797   3.753  22.701  0.00  0.00    +0.000 HD
ENDBRANCH  17  18
ENDBRANCH  13  17
ENDBRANCH   3  10
BRANCH   1  20
ATOM     20  O   UNL     1       6.676   4.220  15.878  0.00  0.00    +0.000 OA
BRANCH  20  22
ATOM     21  C   UNL     1       6.209   3.802  13.423  0.00  0.00    +0.000 C 
ATOM     22  C   UNL     1       6.434   4.000  14.587  0.00  0.00    +0.000 C 
ENDBRANCH  20  22
ENDBRANCH   1  20
TORSDOF 6
ENDMDL
MODEL 7
REMARK VINA RESULT:      -6.9      1.629      2.762
REMARK  Name = 
REMARK  6 active torsions:
REMARK  status: ('A' for Active; 'I' for Inactive)
REMARK    1  A    between atoms: C_2  and  O_3
REMARK    2  A    between atoms: O_3  and  C_4
REMARK    3  A    between atoms: N_6  and  C1*_7
REMARK    4  A    between atoms: C3*_9  and  O3*_10
REMARK    5  A    between atoms: C4*_11  and  C5*_12
REMARK    6  A    between atoms: C5*_12  and  O5*_13
REMARK                            x       y       z     vdW  Elec       q    Type
REMARK                         _______ _______ _______ _____ _____    ______ ____
ROOT
ATOM      1  C   UNL     1       5.882   4.693  16.136  0.00  0.00    +0.000 A 
ATOM      2  C   UNL     1       4.643   4.221  16.354  0.00  0.00    +0.000 A 
ATOM      3  N   UNL     1       4.223   3.704  17.566  0.00  0.00    +0.000 N 
ATOM      4  C   UNL     1       5.075   3.647  18.660  0.00  0.00    +0.000 A 
ATOM      5  O   UNL     1       4.730   3.277  19.779  0.00  0.00    +0.000 OA
ATOM      6  N   UNL     1       6.357   4.069  18.430  0.00  0.00    +0.000 N 
ATOM      7  C   UNL     1       6.811   4.685  17.296  0.00  0.00    +0.000 A 
ATOM      8  O   UNL     1       7.919   5.212  17.252  0.00  0.00    +0.000 OA
ATOM      9  H   UNL     1       6.979   4.075  19.225  0.00  0.00    +0.000 HD
ENDROOT
BRANCH   3  10
ATOM     10  C1* UNL     1       2.826   3.333  17.775  0.00  0.00    +0.000 C 
ATOM     11  C2* UNL     1       2.677   2.099  18.659  0.00  0.00    +0.000 C 
ATOM     12  C3* UNL     1       1.383   2.359  19.391  0.00  0.00    +0.000 C 
ATOM     13  C4* UNL     1       1.337   3.878  19.515  0.00  0.00    +0.000 C 
ATOM     14  O4* UNL     1       2.104   4.408  18.407  0.00  0.00    +0.000 OA
BRANCH  12  15
ATOM     15  O3* UNL     1       0.290   1.868  18.615  0.00  0.00    +0.000 OA
ATOM     16  H3* UNL     1       0.030   2.538  17.958  0.00  0.00    +0.000 HD
ENDBRANCH  12  15
BRANCH  13  17
ATOM     17  C5* UNL     1       1.964   4.380  20.820  0.00  0.00    +0.000 C 
BRANCH  17  18
ATOM     18  O5* UNL     1       2.810   5.502  20.566  0.00  0.00    +0.000 OA
ATOM     19  H5* UNL     1       2.891   5.990  21.407  0.00  0.00    +0.000 HD
ENDBRANCH  17  18
ENDBRANCH  13  17
ENDBRANCH   3  10
BRANCH   1  20
ATOM     20  O   UNL     1       6.346   5.258  14.962  0.00  0.00    +0.000 OA
BRANCH  20  22
ATOM     21  C   UNL     1       6.300   3.704  12.962  0.00  0.00    +0.000 C 
ATOM     22  C   UNL     1       6.321   4.444  13.909  0.00  0.00    +0.000 C 
ENDBRANCH  20  22
ENDBRANCH   1  20
TORSDOF 6
ENDMDL
MODEL 8
REMARK VINA RESULT:      -6.8      2.180      5.981
REMARK  Name = 
REMARK  6 active torsions:
REMARK  status: ('A' for Active; 'I' for Inactive)
REMARK    1  A    between atoms: C_2  and  O_3
REMARK    2  A    between atoms: O_3  and  C_4
REMARK    3  A    between atoms: N_6  and  C1*_7
REMARK    4  A    between atoms: C3*_9  and  O3*_10
REMARK    5  A    between atoms: C4*_11  and  C5*_12
REMARK    6  A    between atoms: C5*_12  and  O5*_13
REMARK                            x       y       z     vdW  Elec       q    Type
REMARK                         _______ _______ _______ _____ _____    ______ ____
ROOT
ATOM      1  C   UNL     1       2.831   5.954  19.668  0.00  0.00    +0.000 A 
ATOM      2  C   UNL     1       3.931   5.710  18.938  0.00  0.00    +0.000 A 
ATOM      3  N   UNL     1       4.409   4.439  18.677  0.00  0.00    +0.000 N 
ATOM      4  C   UNL     1       3.762   3.311  19.160  0.00  0.00    +0.000 A 
ATOM      5  O   UNL     1       4.095   2.160  18.890  0.00  0.00    +0.000 OA
ATOM      6  N   UNL     1       2.674   3.553  19.957  0.00  0.00    +0.000 N 
ATOM      7  C   UNL     1       2.086   4.769  20.169  0.00  0.00    +0.000 A 
ATOM      8  O   UNL     1       0.999   4.867  20.730  0.00  0.00    +0.000 OA
ATOM      9  H   UNL     1       2.165   2.744  20.281  0.00  0.00    +0.000 HD
ENDROOT
BRANCH   3  10
ATOM     10  C1* UNL     1       5.532   4.237  17.766  0.00  0.00    +0.000 C 
ATOM     11  C2* UNL     1       5.430   5.101  16.514  0.00  0.00    +0.000 C 
ATOM     12  C3* UNL     1       6.874   5.393  16.182  0.00  0.00    +0.000 C 
ATOM     13  C4* UNL     1       7.560   5.412  17.543  0.00  0.00    +0.000 C 
ATOM     14  O4* UNL     1       6.778   4.560  18.414  0.00  0.00    +0.000 OA
BRANCH  12  15
ATOM     15  O3* UNL     1       7.391   4.352  15.354  0.00  0.00    +0.000 OA
ATOM     16  H3* UNL     1       6.847   3.552  15.459  0.00  0.00    +0.000 HD
ENDBRANCH  12  15
BRANCH  13  17
ATOM     17  C5* UNL     1       7.608   6.816  18.157  0.00  0.00    +0.000 C 
BRANCH  17  18
ATOM     18  O5* UNL     1       7.661   7.806  17.130  0.00  0.00    +0.000 OA
ATOM     19  H5* UNL     1       8.336   8.457  17.402  0.00  0.00    +0.000 HD
ENDBRANCH  17  18
ENDBRANCH  13  17
ENDBRANCH   3  10
BRANCH   1  20
ATOM     20  O   UNL     1       2.281   7.198  19.927  0.00  0.00    +0.000 OA
BRANCH  20  22
ATOM     21  C   UNL     1       1.957   8.647  17.875  0.00  0.00    +0.000 C 
ATOM     22  C   UNL     1       2.108   7.960  18.849  0.00  0.00    +0.000 C 
ENDBRANCH  20  22
ENDBRANCH   1  20
TORSDOF 6
ENDMDL
MODEL 9
REMARK VINA RESULT:      -6.8      1.384      1.388
REMARK  Name = 
REMARK  6 active torsions:
REMARK  status: ('A' for Active; 'I' for Inactive)
REMARK    1  A    between atoms: C_2  and  O_3
REMARK    2  A    between atoms: O_3  and  C_4
REMARK    3  A    between atoms: N_6  and  C1*_7
REMARK    4  A    between atoms: C3*_9  and  O3*_10
REMARK    5  A    between atoms: C4*_11  and  C5*_12
REMARK    6  A    between atoms: C5*_12  and  O5*_13
REMARK                            x       y       z     vdW  Elec       q    Type
REMARK                         _______ _______ _______ _____ _____    ______ ____
ROOT
ATOM      1  C   UNL     1       6.385   4.045  14.826  0.00  0.00    +0.000 A 
ATOM      2  C   UNL     1       5.611   4.004  15.922  0.00  0.00    +0.000 A 
ATOM      3  N   UNL     1       5.674   4.941  16.938  0.00  0.00    +0.000 N 
ATOM      4  C   UNL     1       6.556   6.010  16.881  0.00  0.00    +0.000 A 
ATOM      5  O   UNL     1       6.594   6.914  17.712  0.00  0.00    +0.000 OA
ATOM      6  N   UNL     1       7.391   6.026  15.795  0.00  0.00    +0.000 N 
ATOM      7  C   UNL     1       7.315   5.199  14.709  0.00  0.00    +0.000 A 
ATOM      8  O   UNL     1       7.971   5.412  13.693  0.00  0.00    +0.000 OA
ATOM      9  H   UNL     1       8.009   6.820  15.714  0.00  0.00    +0.000 HD
ENDROOT
BRANCH   3  10
ATOM     10  C1* UNL     1       4.713   4.915  18.038  0.00  0.00    +0.000 C 
ATOM     11  C2* UNL     1       3.268   4.925  17.550  0.00  0.00    +0.000 C 
ATOM     12  C3* UNL     1       2.549   4.110  18.598  0.00  0.00    +0.000 C 
ATOM     13  C4* UNL     1       3.601   3.109  19.062  0.00  0.00    +0.000 C 
ATOM     14  O4* UNL     1       4.891   3.730  18.839  0.00  0.00    +0.000 OA
BRANCH  12  15
ATOM     15  O3* UNL     1       2.137   4.964  19.664  0.00  0.00    +0.000 OA
ATOM     16  H3* UNL     1       2.295   5.892  19.418  0.00  0.00    +0.000 HD
ENDBRANCH  12  15
BRANCH  13  17
ATOM     17  C5* UNL     1       3.554   1.797  18.271  0.00  0.00    +0.000 C 
BRANCH  17  18
ATOM     18  O5* UNL     1       2.241   1.574  17.756  0.00  0.00    +0.000 OA
ATOM     19  H5* UNL     1       2.344   1.035  16.948  0.00  0.00    +0.000 HD
ENDBRANCH  17  18
ENDBRANCH  13  17
ENDBRANCH   3  10
BRANCH   1  20
ATOM     20  O   UNL     1       6.339   3.164  13.760  0.00  0.00    +0.000 OA
BRANCH  20  22
ATOM     21  C   UNL     1       4.626   3.740  11.985  0.00  0.00    +0.000 C 
ATOM     22  C   UNL     1       5.439   3.470  12.828  0.00  0.00    +0.000 C 
ENDBRANCH  20  22
ENDBRANCH   1  20
TORSDOF 6
ENDMDL
