MODEL 1
REMARK VINA RESULT:      -7.1      0.000      0.000
REMARK  Name = 
REMARK  8 active torsions:
REMARK  status: ('A' for Active; 'I' for Inactive)
REMARK    1  A    between atoms: C_1  and  C_2
REMARK    2  A    between atoms: C_2  and  C_3
REMARK    3  A    between atoms: C_2  and  O_4
REMARK    4  A    between atoms: O_4  and  C_5
REMARK    5  A    between atoms: C_5  and  C_7
REMARK    6  A    between atoms: C_7  and  C_8
REMARK    7  A    between atoms: C_8  and  C_9
REMARK    8  A    between atoms: N_11  and  C_12
REMARK                            x       y       z     vdW  Elec       q    Type
REMARK                         _______ _______ _______ _____ _____    ______ ____
ROOT
ATOM      1  C   UNL     1       3.912   5.253  17.524  0.00  0.00    +0.000 C 
ATOM      2  O   UNL     1       3.639   6.228  18.221  0.00  0.00    +0.000 OA
ATOM      3  N   UNL     1       3.529   3.946  17.765  0.00  0.00    +0.000 N 
ATOM      4  H   UNL     1       3.969   3.224  17.203  0.00  0.00    +0.000 HD
ENDROOT
BRANCH   3   5
ATOM      5  C   UNL     1       2.801   3.507  18.893  0.00  0.00    +0.000 A 
ATOM      6  C   UNL     1       1.405   3.577  18.970  0.00  0.00    +0.000 A 
ATOM      7  C   UNL     1       0.734   3.228  20.144  0.00  0.00    +0.000 A 
ATOM      8  C   UNL     1       1.462   2.795  21.240  0.00  0.00    +0.000 A 
ATOM      9  F   UNL     1       0.824   2.499  22.380  0.00  0.00    +0.000 F 
ATOM     10  C   UNL     1       2.844   2.665  21.172  0.00  0.00    +0.000 A 
ATOM     11  C   UNL     1       3.515   3.010  19.993  0.00  0.00    +0.000 A 
ENDBRANCH   3   5
BRANCH   1  12
ATOM     12  C   UNL     1       4.745   5.431  16.269  0.00  0.00    +0.000 C 
BRANCH  12  13
ATOM     13  C   UNL     1       5.789   4.317  16.188  0.00  0.00    +0.000 C 
BRANCH  13  14
ATOM     14  C   UNL     1       7.163   4.911  15.987  0.00  0.00    +0.000 C 
ATOM     15  O   UNL     1       7.581   5.303  14.904  0.00  0.00    +0.000 OA
BRANCH  14  16
ATOM     16  O   UNL     1       7.833   4.991  17.169  0.00  0.00    +0.000 OA
BRANCH  16  18
ATOM     17  C   UNL     1       7.961   5.702  19.475  0.00  0.00    +0.000 C 
ATOM     18  C   UNL     1       7.317   5.947  18.115  0.00  0.00    +0.000 C 
ATOM     19  C   UNL     1       7.657   7.343  17.607  0.00  0.00    +0.000 C 
ENDBRANCH  16  18
ENDBRANCH  14  16
ENDBRANCH  13  14
ENDBRANCH  12  13
ENDBRANCH   1  12
TORSDOF 6
ENDMDL
MODEL 2
REMARK VINA RESULT:      -6.9      1.276      1.580
REMARK  Name = 
REMARK  8 active torsions:
REMARK  status: ('A' for Active; 'I' for Inactive)
REMARK    1  A    between atoms: C_1  and  C_2
REMARK    2  A    between atoms: C_2  and  C_3
REMARK    3  A    between atoms: C_2  and  O_4
REMARK    4  A    between atoms: O_4  and  C_5
REMARK    5  A    between atoms: C_5  and  C_7
REMARK    6  A    between atoms: C_7  and  C_8
REMARK    7  A    between atoms: C_8  and  C_9
REMARK    8  A    between atoms: N_11  and  C_12
REMARK                            x       y       z     vdW  Elec       q    Type
REMARK                         _______ _______ _______ _____ _____    ______ ____
ROOT
ATOM      1  C   UNL     1       4.245   3.868  16.844  0.00  0.00    +0.000 C 
ATOM      2  O   UNL     1       4.745   2.820  17.246  0.00  0.00    +0.000 OA
ATOM      3  N   UNL     1       3.248   4.589  17.475  0.00  0.00    +0.000 N 
ATOM      4  H   UNL     1       2.813   5.338  16.947  0.00  0.00    +0.000 HD
ENDROOT
BRANCH   3   5
ATOM      5  C   UNL     1       2.598   4.204  18.669  0.00  0.00    +0.000 A 
ATOM      6  C   UNL     1       2.984   4.676  19.929  0.00  0.00    +0.000 A 
ATOM      7  C   UNL     1       2.380   4.189  21.091  0.00  0.00    +0.000 A 
ATOM      8  C   UNL     1       1.379   3.238  20.991  0.00  0.00    +0.000 A 
ATOM      9  F   UNL     1       0.828   2.741  22.105  0.00  0.00    +0.000 F 
ATOM     10  C   UNL     1       0.940   2.794  19.749  0.00  0.00    +0.000 A 
ATOM     11  C   UNL     1       1.542   3.286  18.585  0.00  0.00    +0.000 A 
ENDBRANCH   3   5
BRANCH   1  12
ATOM     12  C   UNL     1       4.718   4.481  15.539  0.00  0.00    +0.000 C 
BRANCH  12  13
ATOM     13  C   UNL     1       5.552   5.728  15.834  0.00  0.00    +0.000 C 
BRANCH  13  14
ATOM     14  C   UNL     1       7.023   5.384  15.804  0.00  0.00    +0.000 C 
ATOM     15  O   UNL     1       7.673   5.278  14.772  0.00  0.00    +0.000 OA
BRANCH  14  16
ATOM     16  O   UNL     1       7.517   5.264  17.067  0.00  0.00    +0.000 OA
BRANCH  16  18
ATOM     17  C   UNL     1       6.744   5.441  19.350  0.00  0.00    +0.000 C 
ATOM     18  C   UNL     1       6.976   6.182  18.038  0.00  0.00    +0.000 C 
ATOM     19  C   UNL     1       7.984   7.309  18.233  0.00  0.00    +0.000 C 
ENDBRANCH  16  18
ENDBRANCH  14  16
ENDBRANCH  13  14
ENDBRANCH  12  13
ENDBRANCH   1  12
TORSDOF 6
ENDMDL
MODEL 3
REMARK VINA RESULT:      -6.8      2.198      3.611
REMARK  Name = 
REMARK  8 active torsions:
REMARK  status: ('A' for Active; 'I' for Inactive)
REMARK    1  A    between atoms: C_1  and  C_2
REMARK    2  A    between atoms: C_2  and  C_3
REMARK    3  A    between atoms: C_2  and  O_4
REMARK    4  A    between atoms: O_4  and  C_5
REMARK    5  A    between atoms: C_5  and  C_7
REMARK    6  A    between atoms: C_7  and  C_8
REMARK    7  A    between atoms: C_8  and  C_9
REMARK    8  A    between atoms: N_11  and  C_12
REMARK                            x       y       z     vdW  Elec       q    Type
REMARK                         _______ _______ _______ _____ _____    ______ ____
ROOT
ATOM      1  C   UNL     1       4.499   3.939  16.962  0.00  0.00    +0.000 C 
ATOM      2  O   UNL     1       4.254   5.111  17.242  0.00  0.00    +0.000 OA
ATOM      3  N   UNL     1       4.035   2.826  17.640  0.00  0.00    +0.000 N 
ATOM      4  H   UNL     1       4.455   1.933  17.404  0.00  0.00    +0.000 HD
ENDROOT
BRANCH   3   5
ATOM      5  C   UNL     1       3.240   2.858  18.807  0.00  0.00    +0.000 A 
ATOM      6  C   UNL     1       3.779   2.754  20.095  0.00  0.00    +0.000 A 
ATOM      7  C   UNL     1       2.948   2.685  21.216  0.00  0.00    +0.000 A 
ATOM      8  C   UNL     1       1.574   2.736  21.047  0.00  0.00    +0.000 A 
ATOM      9  F   UNL     1       0.775   2.629  22.117  0.00  0.00    +0.000 F 
ATOM     10  C   UNL     1       1.016   2.894  19.784  0.00  0.00    +0.000 A 
ATOM     11  C   UNL     1       1.850   2.967  18.662  0.00  0.00    +0.000 A 
ENDBRANCH   3   5
BRANCH   1  12
ATOM     12  C   UNL     1       5.389   3.614  15.778  0.00  0.00    +0.000 C 
BRANCH  12  13
ATOM     13  C   UNL     1       6.301   4.806  15.484  0.00  0.00    +0.000 C 
BRANCH  13  14
ATOM     14  C   UNL     1       6.854   4.699  14.082  0.00  0.00    +0.000 C 
ATOM     15  O   UNL     1       7.525   5.575  13.550  0.00  0.00    +0.000 OA
BRANCH  14  16
ATOM     16  O   UNL     1       6.547   3.493  13.532  0.00  0.00    +0.000 OA
BRANCH  16  18
ATOM     17  C   UNL     1       7.016   2.326  11.467  0.00  0.00    +0.000 C 
ATOM     18  C   UNL     1       6.291   3.502  12.114  0.00  0.00    +0.000 C 
ATOM     19  C   UNL     1       4.786   3.379  11.906  0.00  0.00    +0.000 C 
ENDBRANCH  16  18
ENDBRANCH  14  16
ENDBRANCH  13  14
ENDBRANCH  12  13
ENDBRANCH   1  12
TORSDOF 6
ENDMDL
MODEL 4
REMARK VINA RESULT:      -6.8      2.471      3.917
REMARK  Name = 
REMARK  8 active torsions:
REMARK  status: ('A' for Active; 'I' for Inactive)
REMARK    1  A    between atoms: C_1  and  C_2
REMARK    2  A    between atoms: C_2  and  C_3
REMARK    3  A    between atoms: C_2  and  O_4
REMARK    4  A    between atoms: O_4  and  C_5
REMARK    5  A    between atoms: C_5  and  C_7
REMARK    6  A    between atoms: C_7  and  C_8
REMARK    7  A    between atoms: C_8  and  C_9
REMARK    8  A    between atoms: N_11  and  C_12
REMARK                            x       y       z     vdW  Elec       q    Type
REMARK                         _______ _______ _______ _____ _____    ______ ____
ROOT
ATOM      1  C   UNL     1       5.906   4.515  17.342  0.00  0.00    +0.000 C 
ATOM      2  O   UNL     1       6.296   4.232  18.473  0.00  0.00    +0.000 OA
ATOM      3  N   UNL     1       4.610   4.392  16.873  0.00  0.00    +0.000 N 
ATOM      4  H   UNL     1       4.468   4.499  15.874  0.00  0.00    +0.000 HD
ENDROOT
BRANCH   3   5
ATOM      5  C   UNL     1       3.526   3.866  17.609  0.00  0.00    +0.000 A 
ATOM      6  C   UNL     1       3.299   2.492  17.746  0.00  0.00    +0.000 A 
ATOM      7  C   UNL     1       2.156   2.016  18.396  0.00  0.00    +0.000 A 
ATOM      8  C   UNL     1       1.247   2.919  18.921  0.00  0.00    +0.000 A 
ATOM      9  F   UNL     1       0.132   2.466  19.507  0.00  0.00    +0.000 F 
ATOM     10  C   UNL     1       1.478   4.288  18.846  0.00  0.00    +0.000 A 
ATOM     11  C   UNL     1       2.625   4.763  18.199  0.00  0.00    +0.000 A 
ENDBRANCH   3   5
BRANCH   1  12
ATOM     12  C   UNL     1       6.886   5.051  16.315  0.00  0.00    +0.000 C 
BRANCH  12  13
ATOM     13  C   UNL     1       6.138   5.396  15.027  0.00  0.00    +0.000 C 
BRANCH  13  14
ATOM     14  C   UNL     1       6.869   4.822  13.837  0.00  0.00    +0.000 C 
ATOM     15  O   UNL     1       7.843   5.354  13.319  0.00  0.00    +0.000 OA
BRANCH  14  16
ATOM     16  O   UNL     1       6.327   3.630  13.466  0.00  0.00    +0.000 OA
BRANCH  16  18
ATOM     17  C   UNL     1       6.941   2.266  11.567  0.00  0.00    +0.000 C 
ATOM     18  C   UNL     1       6.117   3.454  12.051  0.00  0.00    +0.000 C 
ATOM     19  C   UNL     1       4.631   3.199  11.823  0.00  0.00    +0.000 C 
ENDBRANCH  16  18
ENDBRANCH  14  16
ENDBRANCH  13  14
ENDBRANCH  12  13
ENDBRANCH   1  12
TORSDOF 6
ENDMDL
MODEL 5
REMARK VINA RESULT:      -6.8      0.656      1.169
REMARK  Name = 
REMARK  8 active torsions:
REMARK  status: ('A' for Active; 'I' for Inactive)
REMARK    1  A    between atoms: C_1  and  C_2
REMARK    2  A    between atoms: C_2  and  C_3
REMARK    3  A    between atoms: C_2  and  O_4
REMARK    4  A    between atoms: O_4  and  C_5
REMARK    5  A    between atoms: C_5  and  C_7
REMARK    6  A    between atoms: C_7  and  C_8
REMARK    7  A    between atoms: C_8  and  C_9
REMARK    8  A    between atoms: N_11  and  C_12
REMARK                            x       y       z     vdW  Elec       q    Type
REMARK                         _______ _______ _______ _____ _____    ______ ____
ROOT
ATOM      1  C   UNL     1       4.117   5.177  17.342  0.00  0.00    +0.000 C 
ATOM      2  O   UNL     1       4.129   6.083  18.173  0.00  0.00    +0.000 OA
ATOM      3  N   UNL     1       3.498   3.949  17.485  0.00  0.00    +0.000 N 
ATOM      4  H   UNL     1       3.716   3.238  16.794  0.00  0.00    +0.000 HD
ENDROOT
BRANCH   3   5
ATOM      5  C   UNL     1       2.816   3.512  18.642  0.00  0.00    +0.000 A 
ATOM      6  C   UNL     1       1.423   3.571  18.769  0.00  0.00    +0.000 A 
ATOM      7  C   UNL     1       0.799   3.224  19.970  0.00  0.00    +0.000 A 
ATOM      8  C   UNL     1       1.570   2.804  21.041  0.00  0.00    +0.000 A 
ATOM      9  F   UNL     1       0.977   2.511  22.206  0.00  0.00    +0.000 F 
ATOM     10  C   UNL     1       2.950   2.685  20.922  0.00  0.00    +0.000 A 
ATOM     11  C   UNL     1       3.574   3.028  19.717  0.00  0.00    +0.000 A 
ENDBRANCH   3   5
BRANCH   1  12
ATOM     12  C   UNL     1       4.834   5.358  16.018  0.00  0.00    +0.000 C 
BRANCH  12  13
ATOM     13  C   UNL     1       5.958   4.327  15.901  0.00  0.00    +0.000 C 
BRANCH  13  14
ATOM     14  C   UNL     1       7.208   4.849  16.568  0.00  0.00    +0.000 C 
ATOM     15  O   UNL     1       8.086   4.126  17.023  0.00  0.00    +0.000 OA
BRANCH  14  16
ATOM     16  O   UNL     1       7.237   6.210  16.545  0.00  0.00    +0.000 OA
BRANCH  16  18
ATOM     17  C   UNL     1       7.586   8.330  17.651  0.00  0.00    +0.000 C 
ATOM     18  C   UNL     1       7.901   6.838  17.659  0.00  0.00    +0.000 C 
ATOM     19  C   UNL     1       7.385   6.191  18.940  0.00  0.00    +0.000 C 
ENDBRANCH  16  18
ENDBRANCH  14  16
ENDBRANCH  13  14
ENDBRANCH  12  13
ENDBRANCH   1  12
TORSDOF 6
ENDMDL
MODEL 6
REMARK VINA RESULT:      -6.8      2.607      4.162
REMARK  Name = 
REMARK  8 active torsions:
REMARK  status: ('A' for Active; 'I' for Inactive)
REMARK    1  A    between atoms: C_1  and  C_2
REMARK    2  A    between atoms: C_2  and  C_3
REMARK    3  A    between atoms: C_2  and  O_4
REMARK    4  A    between atoms: O_4  and  C_5
REMARK    5  A    between atoms: C_5  and  C_7
REMARK    6  A    between atoms: C_7  and  C_8
REMARK    7  A    between atoms: C_8  and  C_9
REMARK    8  A    between atoms: N_11  and  C_12
REMARK                            x       y       z     vdW  Elec       q    Type
REMARK                         _______ _______ _______ _____ _____    ______ ____
ROOT
ATOM      1  C   UNL     1       5.857   4.437  16.743  0.00  0.00    +0.000 C 
ATOM      2  O   UNL     1       6.007   5.266  17.638  0.00  0.00    +0.000 OA
ATOM      3  N   UNL     1       4.815   3.534  16.636  0.00  0.00    +0.000 N 
ATOM      4  H   UNL     1       4.911   2.798  15.944  0.00  0.00    +0.000 HD
ENDROOT
BRANCH   3   5
ATOM      5  C   UNL     1       3.772   3.381  17.576  0.00  0.00    +0.000 A 
ATOM      6  C   UNL     1       3.811   2.432  18.604  0.00  0.00    +0.000 A 
ATOM      7  C   UNL     1       2.713   2.245  19.448  0.00  0.00    +0.000 A 
ATOM      8  C   UNL     1       1.579   3.019  19.270  0.00  0.00    +0.000 A 
ATOM      9  F   UNL     1       0.511   2.814  20.051  0.00  0.00    +0.000 F 
ATOM     10  C   UNL     1       1.536   4.006  18.291  0.00  0.00    +0.000 A 
ATOM     11  C   UNL     1       2.638   4.195  17.450  0.00  0.00    +0.000 A 
ENDBRANCH   3   5
BRANCH   1  12
ATOM     12  C   UNL     1       6.876   4.340  15.623  0.00  0.00    +0.000 C 
BRANCH  12  13
ATOM     13  C   UNL     1       6.154   4.128  14.293  0.00  0.00    +0.000 C 
BRANCH  13  14
ATOM     14  C   UNL     1       7.026   4.595  13.152  0.00  0.00    +0.000 C 
ATOM     15  O   UNL     1       7.852   5.494  13.253  0.00  0.00    +0.000 OA
BRANCH  14  16
ATOM     16  O   UNL     1       6.799   3.852  12.034  0.00  0.00    +0.000 OA
BRANCH  16  18
ATOM     17  C   UNL     1       4.481   3.421  11.502  0.00  0.00    +0.000 C 
ATOM     18  C   UNL     1       5.750   2.869  12.141  0.00  0.00    +0.000 C 
ATOM     19  C   UNL     1       6.209   1.610  11.414  0.00  0.00    +0.000 C 
ENDBRANCH  16  18
ENDBRANCH  14  16
ENDBRANCH  13  14
ENDBRANCH  12  13
ENDBRANCH   1  12
TORSDOF 6
ENDMDL
MODEL 7
REMARK VINA RESULT:      -6.8      1.983      3.184
REMARK  Name = 
REMARK  8 active torsions:
REMARK  status: ('A' for Active; 'I' for Inactive)
REMARK    1  A    between atoms: C_1  and  C_2
REMARK    2  A    between atoms: C_2  and  C_3
REMARK    3  A    between atoms: C_2  and  O_4
REMARK    4  A    between atoms: O_4  and  C_5
REMARK    5  A    between atoms: C_5  and  C_7
REMARK    6  A    between atoms: C_7  and  C_8
REMARK    7  A    between atoms: C_8  and  C_9
REMARK    8  A    between atoms: N_11  and  C_12
REMARK                            x       y       z     vdW  Elec       q    Type
REMARK                         _______ _______ _______ _____ _____    ______ ____
ROOT
ATOM      1  C   UNL     1       6.140   4.679  18.732  0.00  0.00    +0.000 C 
ATOM      2  O   UNL     1       5.783   4.908  19.886  0.00  0.00    +0.000 OA
ATOM      3  N   UNL     1       5.367   4.105  17.739  0.00  0.00    +0.000 N 
ATOM      4  H   UNL     1       5.842   3.819  16.889  0.00  0.00    +0.000 HD
ENDROOT
BRANCH   3   5
ATOM      5  C   UNL     1       4.046   3.633  17.908  0.00  0.00    +0.000 A 
ATOM      6  C   UNL     1       2.919   4.415  17.627  0.00  0.00    +0.000 A 
ATOM      7  C   UNL     1       1.634   3.945  17.907  0.00  0.00    +0.000 A 
ATOM      8  C   UNL     1       1.475   2.683  18.455  0.00  0.00    +0.000 A 
ATOM      9  F   UNL     1       0.247   2.247  18.762  0.00  0.00    +0.000 F 
ATOM     10  C   UNL     1       2.575   1.866  18.692  0.00  0.00    +0.000 A 
ATOM     11  C   UNL     1       3.862   2.337  18.407  0.00  0.00    +0.000 A 
ENDBRANCH   3   5
BRANCH   1  12
ATOM     12  C   UNL     1       7.548   5.033  18.291  0.00  0.00    +0.000 C 
BRANCH  12  13
ATOM     13  C   UNL     1       7.531   6.376  17.559  0.00  0.00    +0.000 C 
BRANCH  13  14
ATOM     14  C   UNL     1       6.796   6.239  16.247  0.00  0.00    +0.000 C 
ATOM     15  O   UNL     1       5.757   6.835  15.987  0.00  0.00    +0.000 OA
BRANCH  14  16
ATOM     16  O   UNL     1       7.470   5.415  15.398  0.00  0.00    +0.000 OA
BRANCH  16  18
ATOM     17  C   UNL     1       7.825   5.142  13.023  0.00  0.00    +0.000 C 
ATOM     18  C   UNL     1       6.804   5.121  14.155  0.00  0.00    +0.000 C 
ATOM     19  C   UNL     1       6.169   3.740  14.275  0.00  0.00    +0.000 C 
ENDBRANCH  16  18
ENDBRANCH  14  16
ENDBRANCH  13  14
ENDBRANCH  12  13
ENDBRANCH   1  12
TORSDOF 6
ENDMDL
MODEL 8
REMARK VINA RESULT:      -6.8      2.366      3.665
REMARK  Name = 
REMARK  8 active torsions:
REMARK  status: ('A' for Active; 'I' for Inactive)
REMARK    1  A    between atoms: C_1  and  C_2
REMARK    2  A    between atoms: C_2  and  C_3
REMARK    3  A    between atoms: C_2  and  O_4
REMARK    4  A    between atoms: O_4  and  C_5
REMARK    5  A    between atoms: C_5  and  C_7
REMARK    6  A    between atoms: C_7  and  C_8
REMARK    7  A    between atoms: C_8  and  C_9
REMARK    8  A    between atoms: N_11  and  C_12
REMARK                            x       y       z     vdW  Elec       q    Type
REMARK                         _______ _______ _______ _____ _____    ______ ____
ROOT
ATOM      1  C   UNL     1       5.982   4.428  17.923  0.00  0.00    +0.000 C 
ATOM      2  O   UNL     1       6.548   4.439  19.015  0.00  0.00    +0.000 OA
ATOM      3  N   UNL     1       4.650   4.130  17.699  0.00  0.00    +0.000 N 
ATOM      4  H   UNL     1       4.363   3.992  16.736  0.00  0.00    +0.000 HD
ENDROOT
BRANCH   3   5
ATOM      5  C   UNL     1       3.728   3.732  18.693  0.00  0.00    +0.000 A 
ATOM      6  C   UNL     1       3.190   2.442  18.755  0.00  0.00    +0.000 A 
ATOM      7  C   UNL     1       2.203   2.122  19.692  0.00  0.00    +0.000 A 
ATOM      8  C   UNL     1       1.765   3.093  20.576  0.00  0.00    +0.000 A 
ATOM      9  F   UNL     1       0.790   2.801  21.447  0.00  0.00    +0.000 F 
ATOM     10  C   UNL     1       2.323   4.367  20.571  0.00  0.00    +0.000 A 
ATOM     11  C   UNL     1       3.315   4.684  19.635  0.00  0.00    +0.000 A 
ENDBRANCH   3   5
BRANCH   1  12
ATOM     12  C   UNL     1       6.761   4.761  16.665  0.00  0.00    +0.000 C 
BRANCH  12  13
ATOM     13  C   UNL     1       5.820   4.731  15.460  0.00  0.00    +0.000 C 
BRANCH  13  14
ATOM     14  C   UNL     1       6.613   4.537  14.190  0.00  0.00    +0.000 C 
ATOM     15  O   UNL     1       7.471   5.319  13.800  0.00  0.00    +0.000 OA
BRANCH  14  16
ATOM     16  O   UNL     1       6.277   3.365  13.584  0.00  0.00    +0.000 OA
BRANCH  16  18
ATOM     17  C   UNL     1       6.792   2.200  11.530  0.00  0.00    +0.000 C 
ATOM     18  C   UNL     1       6.128   3.423  12.152  0.00  0.00    +0.000 C 
ATOM     19  C   UNL     1       4.637   3.440  11.834  0.00  0.00    +0.000 C 
ENDBRANCH  16  18
ENDBRANCH  14  16
ENDBRANCH  13  14
ENDBRANCH  12  13
ENDBRANCH   1  12
TORSDOF 6
ENDMDL
MODEL 9
REMARK VINA RESULT:      -6.7      1.800      2.861
REMARK  Name = 
REMARK  8 active torsions:
REMARK  status: ('A' for Active; 'I' for Inactive)
REMARK    1  A    between atoms: C_1  and  C_2
REMARK    2  A    between atoms: C_2  and  C_3
REMARK    3  A    between atoms: C_2  and  O_4
REMARK    4  A    between atoms: O_4  and  C_5
REMARK    5  A    between atoms: C_5  and  C_7
REMARK    6  A    between atoms: C_7  and  C_8
REMARK    7  A    between atoms: C_8  and  C_9
REMARK    8  A    between atoms: N_11  and  C_12
REMARK                            x       y       z     vdW  Elec       q    Type
REMARK                         _______ _______ _______ _____ _____    ______ ____
ROOT
ATOM      1  C   UNL     1       5.917   4.708  18.886  0.00  0.00    +0.000 C 
ATOM      2  O   UNL     1       5.362   5.404  19.734  0.00  0.00    +0.000 OA
ATOM      3  N   UNL     1       5.311   3.742  18.103  0.00  0.00    +0.000 N 
ATOM      4  H   UNL     1       5.921   3.128  17.572  0.00  0.00    +0.000 HD
ENDROOT
BRANCH   3   5
ATOM      5  C   UNL     1       3.955   3.356  18.191  0.00  0.00    +0.000 A 
ATOM      6  C   UNL     1       2.912   4.128  17.666  0.00  0.00    +0.000 A 
ATOM      7  C   UNL     1       1.579   3.760  17.867  0.00  0.00    +0.000 A 
ATOM      8  C   UNL     1       1.291   2.610  18.582  0.00  0.00    +0.000 A 
ATOM      9  F   UNL     1       0.014   2.278  18.810  0.00  0.00    +0.000 F 
ATOM     10  C   UNL     1       2.310   1.798  19.066  0.00  0.00    +0.000 A 
ATOM     11  C   UNL     1       3.645   2.165  18.861  0.00  0.00    +0.000 A 
ENDBRANCH   3   5
BRANCH   1  12
ATOM     12  C   UNL     1       7.402   4.872  18.626  0.00  0.00    +0.000 C 
BRANCH  12  13
ATOM     13  C   UNL     1       7.752   6.360  18.587  0.00  0.00    +0.000 C 
BRANCH  13  14
ATOM     14  C   UNL     1       7.494   6.914  17.206  0.00  0.00    +0.000 C 
ATOM     15  O   UNL     1       7.421   8.112  16.959  0.00  0.00    +0.000 OA
BRANCH  14  16
ATOM     16  O   UNL     1       7.408   5.911  16.290  0.00  0.00    +0.000 OA
BRANCH  16  18
ATOM     17  C   UNL     1       6.039   4.652  14.746  0.00  0.00    +0.000 C 
ATOM     18  C   UNL     1       6.333   6.026  15.338  0.00  0.00    +0.000 C 
ATOM     19  C   UNL     1       5.110   6.564  16.071  0.00  0.00    +0.000 C 
ENDBRANCH  16  18
ENDBRANCH  14  16
ENDBRANCH  13  14
ENDBRANCH  12  13
ENDBRANCH   1  12
TORSDOF 6
ENDMDL
