MODEL 1
REMARK VINA RESULT:      -7.8      0.000      0.000
REMARK  Name = 
REMARK  6 active torsions:
REMARK  status: ('A' for Active; 'I' for Inactive)
REMARK    1  A    between atoms: N_1  and  C_2
REMARK    2  A    between atoms: C_12  and  C_13
REMARK    3  A    between atoms: N_15  and  C_16
REMARK    4  A    between atoms: C_16  and  C_17
REMARK    5  A    between atoms: C_17  and  C_18
REMARK    6  A    between atoms: C_18  and  C_19
REMARK                            x       y       z     vdW  Elec       q    Type
REMARK                         _______ _______ _______ _____ _____    ______ ____
ROOT
ATOM      1  C   UNL     1       2.371   6.113  20.297  0.00  0.00    +0.000 A 
ATOM      2  N   UNL     1       1.633   7.147  20.758  0.00  0.00    +0.000 NA
ATOM      3  C   UNL     1       1.472   8.234  19.980  0.00  0.00    +0.000 A 
ATOM      4  C   UNL     1       0.659   9.272  20.413  0.00  0.00    +0.000 A 
ATOM      5  C   UNL     1       0.440  10.396  19.616  0.00  0.00    +0.000 A 
ATOM      6 CL   UNL     1      -0.607  11.645  20.168  0.00  0.00    +0.000 Cl
ATOM      7  C   UNL     1       1.052  10.512  18.373  0.00  0.00    +0.000 A 
ATOM      8  C   UNL     1       1.882   9.488  17.923  0.00  0.00    +0.000 A 
ATOM      9  C   UNL     1       2.084   8.347  18.718  0.00  0.00    +0.000 A 
ATOM     10  C   UNL     1       2.873   7.282  18.275  0.00  0.00    +0.000 A 
ATOM     11  C   UNL     1       3.013   6.129  19.057  0.00  0.00    +0.000 A 
ENDROOT
BRANCH  11  12
ATOM     12  C   UNL     1       3.807   5.008  18.477  0.00  0.00    +0.000 C 
ATOM     13  O   UNL     1       4.484   4.296  19.214  0.00  0.00    +0.000 OA
ATOM     14  N   UNL     1       3.756   4.823  17.114  0.00  0.00    +0.000 N 
ATOM     15  H   UNL     1       3.019   5.303  16.602  0.00  0.00    +0.000 HD
BRANCH  14  16
ATOM     16  C   UNL     1       4.476   3.752  16.456  0.00  0.00    +0.000 C 
BRANCH  16  17
ATOM     17  C   UNL     1       5.301   4.283  15.292  0.00  0.00    +0.000 C 
BRANCH  17  18
ATOM     18  C   UNL     1       6.797   4.161  15.569  0.00  0.00    +0.000 C 
BRANCH  18  19
ATOM     19  C   UNL     1       7.226   5.095  16.672  0.00  0.00    +0.000 A 
ATOM     20  C   UNL     1       7.720   4.585  17.879  0.00  0.00    +0.000 A 
ATOM     21  C   UNL     1       8.083   5.447  18.915  0.00  0.00    +0.000 A 
ATOM     22  C   UNL     1       7.953   6.825  18.753  0.00  0.00    +0.000 A 
ATOM     23  C   UNL     1       7.458   7.342  17.558  0.00  0.00    +0.000 A 
ATOM     24  C   UNL     1       7.092   6.481  16.521  0.00  0.00    +0.000 A 
ENDBRANCH  18  19
ENDBRANCH  17  18
ENDBRANCH  16  17
ENDBRANCH  14  16
ENDBRANCH  11  12
BRANCH   1  25
ATOM     25  N   UNL     1       2.371   5.009  21.161  0.00  0.00    +0.000 N 
ATOM     26  H   UNL     1       3.153   5.174  21.799  0.00  0.00    +0.000 HD
ATOM     27  H   UNL     1       1.506   5.010  21.698  0.00  0.00    +0.000 HD
ENDBRANCH   1  25
TORSDOF 6
ENDMDL
MODEL 2
REMARK VINA RESULT:      -7.6      4.060      6.042
REMARK  Name = 
REMARK  6 active torsions:
REMARK  status: ('A' for Active; 'I' for Inactive)
REMARK    1  A    between atoms: N_1  and  C_2
REMARK    2  A    between atoms: C_12  and  C_13
REMARK    3  A    between atoms: N_15  and  C_16
REMARK    4  A    between atoms: C_16  and  C_17
REMARK    5  A    between atoms: C_17  and  C_18
REMARK    6  A    between atoms: C_18  and  C_19
REMARK                            x       y       z     vdW  Elec       q    Type
REMARK                         _______ _______ _______ _____ _____    ______ ____
ROOT
ATOM      1  C   UNL     1       5.384   4.150  16.807  0.00  0.00    +0.000 A 
ATOM      2  N   UNL     1       4.350   3.393  17.236  0.00  0.00    +0.000 NA
ATOM      3  C   UNL     1       3.535   3.879  18.191  0.00  0.00    +0.000 A 
ATOM      4  C   UNL     1       2.429   3.142  18.590  0.00  0.00    +0.000 A 
ATOM      5  C   UNL     1       1.544   3.632  19.550  0.00  0.00    +0.000 A 
ATOM      6 CL   UNL     1       0.161   2.708  19.990  0.00  0.00    +0.000 Cl
ATOM      7  C   UNL     1       1.763   4.868  20.149  0.00  0.00    +0.000 A 
ATOM      8  C   UNL     1       2.873   5.621  19.774  0.00  0.00    +0.000 A 
ATOM      9  C   UNL     1       3.751   5.134  18.791  0.00  0.00    +0.000 A 
ATOM     10  C   UNL     1       4.848   5.886  18.359  0.00  0.00    +0.000 A 
ATOM     11  C   UNL     1       5.677   5.409  17.337  0.00  0.00    +0.000 A 
ENDROOT
BRANCH  11  12
ATOM     12  C   UNL     1       6.778   6.306  16.880  0.00  0.00    +0.000 C 
ATOM     13  O   UNL     1       7.345   6.080  15.815  0.00  0.00    +0.000 OA
ATOM     14  N   UNL     1       7.125   7.361  17.694  0.00  0.00    +0.000 N 
ATOM     15  H   UNL     1       6.480   7.610  18.442  0.00  0.00    +0.000 HD
BRANCH  14  16
ATOM     16  C   UNL     1       8.167   8.299  17.333  0.00  0.00    +0.000 C 
BRANCH  16  17
ATOM     17  C   UNL     1       8.575   9.149  18.528  0.00  0.00    +0.000 C 
BRANCH  17  18
ATOM     18  C   UNL     1       8.645  10.629  18.161  0.00  0.00    +0.000 C 
BRANCH  18  19
ATOM     19  C   UNL     1       9.926  11.253  18.656  0.00  0.00    +0.000 A 
ATOM     20  C   UNL     1      10.153  11.409  20.029  0.00  0.00    +0.000 A 
ATOM     21  C   UNL     1      11.322  12.018  20.487  0.00  0.00    +0.000 A 
ATOM     22  C   UNL     1      12.272  12.478  19.577  0.00  0.00    +0.000 A 
ATOM     23  C   UNL     1      12.054  12.331  18.209  0.00  0.00    +0.000 A 
ATOM     24  C   UNL     1      10.884  11.724  17.748  0.00  0.00    +0.000 A 
ENDBRANCH  18  19
ENDBRANCH  17  18
ENDBRANCH  16  17
ENDBRANCH  14  16
ENDBRANCH  11  12
BRANCH   1  25
ATOM     25  N   UNL     1       6.086   3.568  15.743  0.00  0.00    +0.000 N 
ATOM     26  H   UNL     1       5.364   3.273  15.082  0.00  0.00    +0.000 HD
ATOM     27  H   UNL     1       6.664   4.280  15.299  0.00  0.00    +0.000 HD
ENDBRANCH   1  25
TORSDOF 6
ENDMDL
MODEL 3
REMARK VINA RESULT:      -7.5      3.682      7.106
REMARK  Name = 
REMARK  6 active torsions:
REMARK  status: ('A' for Active; 'I' for Inactive)
REMARK    1  A    between atoms: N_1  and  C_2
REMARK    2  A    between atoms: C_12  and  C_13
REMARK    3  A    between atoms: N_15  and  C_16
REMARK    4  A    between atoms: C_16  and  C_17
REMARK    5  A    between atoms: C_17  and  C_18
REMARK    6  A    between atoms: C_18  and  C_19
REMARK                            x       y       z     vdW  Elec       q    Type
REMARK                         _______ _______ _______ _____ _____    ______ ____
ROOT
ATOM      1  C   UNL     1       6.995   5.380  17.141  0.00  0.00    +0.000 A 
ATOM      2  N   UNL     1       7.531   5.634  15.927  0.00  0.00    +0.000 NA
ATOM      3  C   UNL     1       7.040   4.995  14.849  0.00  0.00    +0.000 A 
ATOM      4  C   UNL     1       7.533   5.298  13.587  0.00  0.00    +0.000 A 
ATOM      5  C   UNL     1       7.020   4.682  12.446  0.00  0.00    +0.000 A 
ATOM      6 CL   UNL     1       7.628   5.114  10.895  0.00  0.00    +0.000 Cl
ATOM      7  C   UNL     1       6.013   3.728  12.548  0.00  0.00    +0.000 A 
ATOM      8  C   UNL     1       5.511   3.399  13.804  0.00  0.00    +0.000 A 
ATOM      9  C   UNL     1       6.014   4.037  14.951  0.00  0.00    +0.000 A 
ATOM     10  C   UNL     1       5.499   3.761  16.221  0.00  0.00    +0.000 A 
ATOM     11  C   UNL     1       5.973   4.451  17.343  0.00  0.00    +0.000 A 
ENDROOT
BRANCH  11  12
ATOM     12  C   UNL     1       5.316   4.155  18.649  0.00  0.00    +0.000 C 
ATOM     13  O   UNL     1       5.379   4.974  19.562  0.00  0.00    +0.000 OA
ATOM     14  N   UNL     1       4.666   2.949  18.782  0.00  0.00    +0.000 N 
ATOM     15  H   UNL     1       4.472   2.423  17.932  0.00  0.00    +0.000 HD
BRANCH  14  16
ATOM     16  C   UNL     1       3.983   2.575  20.003  0.00  0.00    +0.000 C 
BRANCH  16  17
ATOM     17  C   UNL     1       2.541   2.176  19.721  0.00  0.00    +0.000 C 
BRANCH  17  18
ATOM     18  C   UNL     1       1.560   3.212  20.264  0.00  0.00    +0.000 C 
BRANCH  18  19
ATOM     19  C   UNL     1       1.816   4.572  19.663  0.00  0.00    +0.000 A 
ATOM     20  C   UNL     1       1.839   4.739  18.273  0.00  0.00    +0.000 A 
ATOM     21  C   UNL     1       2.112   5.989  17.716  0.00  0.00    +0.000 A 
ATOM     22  C   UNL     1       2.365   7.081  18.543  0.00  0.00    +0.000 A 
ATOM     23  C   UNL     1       2.348   6.925  19.928  0.00  0.00    +0.000 A 
ATOM     24  C   UNL     1       2.078   5.674  20.487  0.00  0.00    +0.000 A 
ENDBRANCH  18  19
ENDBRANCH  17  18
ENDBRANCH  16  17
ENDBRANCH  14  16
ENDBRANCH  11  12
BRANCH   1  25
ATOM     25  N   UNL     1       7.529   6.187  18.156  0.00  0.00    +0.000 N 
ATOM     26  H   UNL     1       6.715   6.560  18.651  0.00  0.00    +0.000 HD
ATOM     27  H   UNL     1       8.062   5.602  18.798  0.00  0.00    +0.000 HD
ENDBRANCH   1  25
TORSDOF 6
ENDMDL
MODEL 4
REMARK VINA RESULT:      -7.4      3.721      7.063
REMARK  Name = 
REMARK  6 active torsions:
REMARK  status: ('A' for Active; 'I' for Inactive)
REMARK    1  A    between atoms: N_1  and  C_2
REMARK    2  A    between atoms: C_12  and  C_13
REMARK    3  A    between atoms: N_15  and  C_16
REMARK    4  A    between atoms: C_16  and  C_17
REMARK    5  A    between atoms: C_17  and  C_18
REMARK    6  A    between atoms: C_18  and  C_19
REMARK                            x       y       z     vdW  Elec       q    Type
REMARK                         _______ _______ _______ _____ _____    ______ ____
ROOT
ATOM      1  C   UNL     1       6.848   6.008  17.190  0.00  0.00    +0.000 A 
ATOM      2  N   UNL     1       7.446   5.799  15.996  0.00  0.00    +0.000 NA
ATOM      3  C   UNL     1       6.806   5.072  15.062  0.00  0.00    +0.000 A 
ATOM      4  C   UNL     1       7.378   4.909  13.808  0.00  0.00    +0.000 A 
ATOM      5  C   UNL     1       6.725   4.193  12.806  0.00  0.00    +0.000 A 
ATOM      6 CL   UNL     1       7.446   4.047  11.250  0.00  0.00    +0.000 Cl
ATOM      7  C   UNL     1       5.488   3.604  13.047  0.00  0.00    +0.000 A 
ATOM      8  C   UNL     1       4.900   3.744  14.302  0.00  0.00    +0.000 A 
ATOM      9  C   UNL     1       5.551   4.484  15.304  0.00  0.00    +0.000 A 
ATOM     10  C   UNL     1       4.966   4.681  16.558  0.00  0.00    +0.000 A 
ATOM     11  C   UNL     1       5.603   5.471  17.522  0.00  0.00    +0.000 A 
ENDROOT
BRANCH  11  12
ATOM     12  C   UNL     1       4.876   5.697  18.804  0.00  0.00    +0.000 C 
ATOM     13  O   UNL     1       5.419   5.421  19.870  0.00  0.00    +0.000 OA
ATOM     14  N   UNL     1       3.597   6.203  18.736  0.00  0.00    +0.000 N 
ATOM     15  H   UNL     1       3.297   6.604  17.850  0.00  0.00    +0.000 HD
BRANCH  14  16
ATOM     16  C   UNL     1       2.814   6.474  19.924  0.00  0.00    +0.000 C 
BRANCH  16  17
ATOM     17  C   UNL     1       1.473   5.756  19.869  0.00  0.00    +0.000 C 
BRANCH  17  18
ATOM     18  C   UNL     1       1.536   4.405  20.579  0.00  0.00    +0.000 C 
BRANCH  18  19
ATOM     19  C   UNL     1       2.240   3.377  19.732  0.00  0.00    +0.000 A 
ATOM     20  C   UNL     1       3.360   2.698  20.226  0.00  0.00    +0.000 A 
ATOM     21  C   UNL     1       4.035   1.771  19.430  0.00  0.00    +0.000 A 
ATOM     22  C   UNL     1       3.596   1.518  18.132  0.00  0.00    +0.000 A 
ATOM     23  C   UNL     1       2.485   2.190  17.628  0.00  0.00    +0.000 A 
ATOM     24  C   UNL     1       1.810   3.119  18.423  0.00  0.00    +0.000 A 
ENDBRANCH  18  19
ENDBRANCH  17  18
ENDBRANCH  16  17
ENDBRANCH  14  16
ENDBRANCH  11  12
BRANCH   1  25
ATOM     25  N   UNL     1       7.577   6.865  18.027  0.00  0.00    +0.000 N 
ATOM     26  H   UNL     1       7.252   7.804  17.790  0.00  0.00    +0.000 HD
ATOM     27  H   UNL     1       7.332   6.668  18.996  0.00  0.00    +0.000 HD
ENDBRANCH   1  25
TORSDOF 6
ENDMDL
MODEL 5
REMARK VINA RESULT:      -7.3      4.666      6.424
REMARK  Name = 
REMARK  6 active torsions:
REMARK  status: ('A' for Active; 'I' for Inactive)
REMARK    1  A    between atoms: N_1  and  C_2
REMARK    2  A    between atoms: C_12  and  C_13
REMARK    3  A    between atoms: N_15  and  C_16
REMARK    4  A    between atoms: C_16  and  C_17
REMARK    5  A    between atoms: C_17  and  C_18
REMARK    6  A    between atoms: C_18  and  C_19
REMARK                            x       y       z     vdW  Elec       q    Type
REMARK                         _______ _______ _______ _____ _____    ______ ____
ROOT
ATOM      1  C   UNL     1       6.555   5.343  19.217  0.00  0.00    +0.000 A 
ATOM      2  N   UNL     1       5.638   4.533  19.793  0.00  0.00    +0.000 NA
ATOM      3  C   UNL     1       4.397   4.478  19.275  0.00  0.00    +0.000 A 
ATOM      4  C   UNL     1       3.468   3.599  19.813  0.00  0.00    +0.000 A 
ATOM      5  C   UNL     1       2.185   3.489  19.277  0.00  0.00    +0.000 A 
ATOM      6 CL   UNL     1       1.073   2.359  19.944  0.00  0.00    +0.000 Cl
ATOM      7  C   UNL     1       1.798   4.278  18.198  0.00  0.00    +0.000 A 
ATOM      8  C   UNL     1       2.710   5.176  17.650  0.00  0.00    +0.000 A 
ATOM      9  C   UNL     1       4.009   5.270  18.178  0.00  0.00    +0.000 A 
ATOM     10  C   UNL     1       4.961   6.128  17.620  0.00  0.00    +0.000 A 
ATOM     11  C   UNL     1       6.267   6.162  18.123  0.00  0.00    +0.000 A 
ENDROOT
BRANCH  11  12
ATOM     12  C   UNL     1       7.242   7.045  17.422  0.00  0.00    +0.000 C 
ATOM     13  O   UNL     1       7.691   6.711  16.329  0.00  0.00    +0.000 OA
ATOM     14  N   UNL     1       7.614   8.214  18.048  0.00  0.00    +0.000 N 
ATOM     15  H   UNL     1       7.050   8.526  18.835  0.00  0.00    +0.000 HD
BRANCH  14  16
ATOM     16  C   UNL     1       8.541   9.148  17.442  0.00  0.00    +0.000 C 
BRANCH  16  17
ATOM     17  C   UNL     1       8.554  10.471  18.196  0.00  0.00    +0.000 C 
BRANCH  17  18
ATOM     18  C   UNL     1       9.532  10.435  19.367  0.00  0.00    +0.000 C 
BRANCH  18  19
ATOM     19  C   UNL     1      10.465  11.619  19.334  0.00  0.00    +0.000 A 
ATOM     20  C   UNL     1      10.411  12.592  20.339  0.00  0.00    +0.000 A 
ATOM     21  C   UNL     1      11.249  13.707  20.291  0.00  0.00    +0.000 A 
ATOM     22  C   UNL     1      12.146  13.859  19.236  0.00  0.00    +0.000 A 
ATOM     23  C   UNL     1      12.206  12.899  18.228  0.00  0.00    +0.000 A 
ATOM     24  C   UNL     1      11.366  11.784  18.274  0.00  0.00    +0.000 A 
ENDBRANCH  18  19
ENDBRANCH  17  18
ENDBRANCH  16  17
ENDBRANCH  14  16
ENDBRANCH  11  12
BRANCH   1  25
ATOM     25  N   UNL     1       7.829   5.226  19.791  0.00  0.00    +0.000 N 
ATOM     26  H   UNL     1       8.339   4.592  19.172  0.00  0.00    +0.000 HD
ATOM     27  H   UNL     1       8.284   6.136  19.774  0.00  0.00    +0.000 HD
ENDBRANCH   1  25
TORSDOF 6
ENDMDL
MODEL 6
REMARK VINA RESULT:      -7.3      4.754      6.572
REMARK  Name = 
REMARK  6 active torsions:
REMARK  status: ('A' for Active; 'I' for Inactive)
REMARK    1  A    between atoms: N_1  and  C_2
REMARK    2  A    between atoms: C_12  and  C_13
REMARK    3  A    between atoms: N_15  and  C_16
REMARK    4  A    between atoms: C_16  and  C_17
REMARK    5  A    between atoms: C_17  and  C_18
REMARK    6  A    between atoms: C_18  and  C_19
REMARK                            x       y       z     vdW  Elec       q    Type
REMARK                         _______ _______ _______ _____ _____    ______ ____
ROOT
ATOM      1  C   UNL     1       6.700   5.373  19.214  0.00  0.00    +0.000 A 
ATOM      2  N   UNL     1       5.817   4.515  19.772  0.00  0.00    +0.000 NA
ATOM      3  C   UNL     1       4.593   4.390  19.227  0.00  0.00    +0.000 A 
ATOM      4  C   UNL     1       3.702   3.462  19.746  0.00  0.00    +0.000 A 
ATOM      5  C   UNL     1       2.439   3.281  19.183  0.00  0.00    +0.000 A 
ATOM      6 CL   UNL     1       1.377   2.091  19.828  0.00  0.00    +0.000 Cl
ATOM      7  C   UNL     1       2.033   4.046  18.094  0.00  0.00    +0.000 A 
ATOM      8  C   UNL     1       2.906   4.993  17.564  0.00  0.00    +0.000 A 
ATOM      9  C   UNL     1       4.186   5.158  18.120  0.00  0.00    +0.000 A 
ATOM     10  C   UNL     1       5.101   6.067  17.581  0.00  0.00    +0.000 A 
ATOM     11  C   UNL     1       6.391   6.174  18.113  0.00  0.00    +0.000 A 
ENDROOT
BRANCH  11  12
ATOM     12  C   UNL     1       7.332   7.110  17.431  0.00  0.00    +0.000 C 
ATOM     13  O   UNL     1       7.843   6.788  16.362  0.00  0.00    +0.000 OA
ATOM     14  N   UNL     1       7.601   8.311  18.047  0.00  0.00    +0.000 N 
ATOM     15  H   UNL     1       6.987   8.598  18.807  0.00  0.00    +0.000 HD
BRANCH  14  16
ATOM     16  C   UNL     1       8.486   9.295  17.458  0.00  0.00    +0.000 C 
BRANCH  16  17
ATOM     17  C   UNL     1       8.527  10.564  18.299  0.00  0.00    +0.000 C 
BRANCH  17  18
ATOM     18  C   UNL     1       9.588  10.472  19.393  0.00  0.00    +0.000 C 
BRANCH  18  19
ATOM     19  C   UNL     1      10.442  11.714  19.430  0.00  0.00    +0.000 A 
ATOM     20  C   UNL     1      11.519  11.860  18.548  0.00  0.00    +0.000 A 
ATOM     21  C   UNL     1      12.332  12.993  18.605  0.00  0.00    +0.000 A 
ATOM     22  C   UNL     1      12.076  13.988  19.545  0.00  0.00    +0.000 A 
ATOM     23  C   UNL     1      11.008  13.851  20.431  0.00  0.00    +0.000 A 
ATOM     24  C   UNL     1      10.196  12.717  20.377  0.00  0.00    +0.000 A 
ENDBRANCH  18  19
ENDBRANCH  17  18
ENDBRANCH  16  17
ENDBRANCH  14  16
ENDBRANCH  11  12
BRANCH   1  25
ATOM     25  N   UNL     1       7.966   5.328  19.816  0.00  0.00    +0.000 N 
ATOM     26  H   UNL     1       7.790   5.484  20.811  0.00  0.00    +0.000 HD
ATOM     27  H   UNL     1       8.355   4.395  19.696  0.00  0.00    +0.000 HD
ENDBRANCH   1  25
TORSDOF 6
ENDMDL
MODEL 7
REMARK VINA RESULT:      -7.3      3.240      6.899
REMARK  Name = 
REMARK  6 active torsions:
REMARK  status: ('A' for Active; 'I' for Inactive)
REMARK    1  A    between atoms: N_1  and  C_2
REMARK    2  A    between atoms: C_12  and  C_13
REMARK    3  A    between atoms: N_15  and  C_16
REMARK    4  A    between atoms: C_16  and  C_17
REMARK    5  A    between atoms: C_17  and  C_18
REMARK    6  A    between atoms: C_18  and  C_19
REMARK                            x       y       z     vdW  Elec       q    Type
REMARK                         _______ _______ _______ _____ _____    ______ ____
ROOT
ATOM      1  C   UNL     1       6.182   4.617  18.271  0.00  0.00    +0.000 A 
ATOM      2  N   UNL     1       7.011   5.043  17.292  0.00  0.00    +0.000 NA
ATOM      3  C   UNL     1       6.727   4.733  16.013  0.00  0.00    +0.000 A 
ATOM      4  C   UNL     1       7.530   5.224  14.994  0.00  0.00    +0.000 A 
ATOM      5  C   UNL     1       7.243   4.953  13.656  0.00  0.00    +0.000 A 
ATOM      6 CL   UNL     1       8.238   5.613  12.417  0.00  0.00    +0.000 Cl
ATOM      7  C   UNL     1       6.151   4.163  13.312  0.00  0.00    +0.000 A 
ATOM      8  C   UNL     1       5.338   3.649  14.319  0.00  0.00    +0.000 A 
ATOM      9  C   UNL     1       5.617   3.941  15.665  0.00  0.00    +0.000 A 
ATOM     10  C   UNL     1       4.793   3.479  16.696  0.00  0.00    +0.000 A 
ATOM     11  C   UNL     1       5.055   3.830  18.025  0.00  0.00    +0.000 A 
ENDROOT
BRANCH  11  12
ATOM     12  C   UNL     1       4.083   3.363  19.055  0.00  0.00    +0.000 C 
ATOM     13  O   UNL     1       4.492   2.799  20.066  0.00  0.00    +0.000 OA
ATOM     14  N   UNL     1       2.744   3.576  18.818  0.00  0.00    +0.000 N 
ATOM     15  H   UNL     1       2.496   4.229  18.077  0.00  0.00    +0.000 HD
BRANCH  14  16
ATOM     16  C   UNL     1       1.723   3.175  19.764  0.00  0.00    +0.000 C 
BRANCH  16  17
ATOM     17  C   UNL     1       1.094   4.389  20.434  0.00  0.00    +0.000 C 
BRANCH  17  18
ATOM     18  C   UNL     1       2.153   5.411  20.841  0.00  0.00    +0.000 C 
BRANCH  18  19
ATOM     19  C   UNL     1       1.917   6.738  20.164  0.00  0.00    +0.000 A 
ATOM     20  C   UNL     1       2.390   6.964  18.865  0.00  0.00    +0.000 A 
ATOM     21  C   UNL     1       2.204   8.204  18.251  0.00  0.00    +0.000 A 
ATOM     22  C   UNL     1       1.546   9.227  18.931  0.00  0.00    +0.000 A 
ATOM     23  C   UNL     1       1.075   9.013  20.225  0.00  0.00    +0.000 A 
ATOM     24  C   UNL     1       1.262   7.775  20.842  0.00  0.00    +0.000 A 
ENDBRANCH  18  19
ENDBRANCH  17  18
ENDBRANCH  16  17
ENDBRANCH  14  16
ENDBRANCH  11  12
BRANCH   1  25
ATOM     25  N   UNL     1       6.538   5.096  19.540  0.00  0.00    +0.000 N 
ATOM     26  H   UNL     1       6.593   6.111  19.432  0.00  0.00    +0.000 HD
ATOM     27  H   UNL     1       5.792   4.876  20.197  0.00  0.00    +0.000 HD
ENDBRANCH   1  25
TORSDOF 6
ENDMDL
MODEL 8
REMARK VINA RESULT:      -7.3      4.195      6.342
REMARK  Name = 
REMARK  6 active torsions:
REMARK  status: ('A' for Active; 'I' for Inactive)
REMARK    1  A    between atoms: N_1  and  C_2
REMARK    2  A    between atoms: C_12  and  C_13
REMARK    3  A    between atoms: N_15  and  C_16
REMARK    4  A    between atoms: C_16  and  C_17
REMARK    5  A    between atoms: C_17  and  C_18
REMARK    6  A    between atoms: C_18  and  C_19
REMARK                            x       y       z     vdW  Elec       q    Type
REMARK                         _______ _______ _______ _____ _____    ______ ____
ROOT
ATOM      1  C   UNL     1       5.910   4.548  17.096  0.00  0.00    +0.000 A 
ATOM      2  N   UNL     1       4.828   3.739  17.056  0.00  0.00    +0.000 NA
ATOM      3  C   UNL     1       3.894   3.848  18.020  0.00  0.00    +0.000 A 
ATOM      4  C   UNL     1       2.745   3.073  17.952  0.00  0.00    +0.000 A 
ATOM      5  C   UNL     1       1.741   3.187  18.913  0.00  0.00    +0.000 A 
ATOM      6 CL   UNL     1       0.312   2.240  18.774  0.00  0.00    +0.000 Cl
ATOM      7  C   UNL     1       1.879   4.070  19.979  0.00  0.00    +0.000 A 
ATOM      8  C   UNL     1       3.029   4.849  20.074  0.00  0.00    +0.000 A 
ATOM      9  C   UNL     1       4.030   4.748  19.093  0.00  0.00    +0.000 A 
ATOM     10  C   UNL     1       5.174   5.550  19.135  0.00  0.00    +0.000 A 
ATOM     11  C   UNL     1       6.130   5.475  18.117  0.00  0.00    +0.000 A 
ENDROOT
BRANCH  11  12
ATOM     12  C   UNL     1       7.282   6.420  18.195  0.00  0.00    +0.000 C 
ATOM     13  O   UNL     1       8.188   6.211  18.997  0.00  0.00    +0.000 OA
ATOM     14  N   UNL     1       7.273   7.513  17.358  0.00  0.00    +0.000 N 
ATOM     15  H   UNL     1       6.612   7.507  16.584  0.00  0.00    +0.000 HD
BRANCH  14  16
ATOM     16  C   UNL     1       8.352   8.479  17.345  0.00  0.00    +0.000 C 
BRANCH  16  17
ATOM     17  C   UNL     1       7.983   9.720  18.147  0.00  0.00    +0.000 C 
BRANCH  17  18
ATOM     18  C   UNL     1       9.157  10.203  18.995  0.00  0.00    +0.000 C 
BRANCH  18  19
ATOM     19  C   UNL     1       9.741  11.478  18.441  0.00  0.00    +0.000 A 
ATOM     20  C   UNL     1       8.961  12.639  18.364  0.00  0.00    +0.000 A 
ATOM     21  C   UNL     1       9.489  13.810  17.818  0.00  0.00    +0.000 A 
ATOM     22  C   UNL     1      10.799  13.830  17.343  0.00  0.00    +0.000 A 
ATOM     23  C   UNL     1      11.582  12.679  17.412  0.00  0.00    +0.000 A 
ATOM     24  C   UNL     1      11.055  11.506  17.955  0.00  0.00    +0.000 A 
ENDBRANCH  18  19
ENDBRANCH  17  18
ENDBRANCH  16  17
ENDBRANCH  14  16
ENDBRANCH  11  12
BRANCH   1  25
ATOM     25  N   UNL     1       6.747   4.401  15.980  0.00  0.00    +0.000 N 
ATOM     26  H   UNL     1       7.268   5.279  15.925  0.00  0.00    +0.000 HD
ATOM     27  H   UNL     1       7.402   3.642  16.156  0.00  0.00    +0.000 HD
ENDBRANCH   1  25
TORSDOF 6
ENDMDL
MODEL 9
REMARK VINA RESULT:      -7.2      3.262      7.666
REMARK  Name = 
REMARK  6 active torsions:
REMARK  status: ('A' for Active; 'I' for Inactive)
REMARK    1  A    between atoms: N_1  and  C_2
REMARK    2  A    between atoms: C_12  and  C_13
REMARK    3  A    between atoms: N_15  and  C_16
REMARK    4  A    between atoms: C_16  and  C_17
REMARK    5  A    between atoms: C_17  and  C_18
REMARK    6  A    between atoms: C_18  and  C_19
REMARK                            x       y       z     vdW  Elec       q    Type
REMARK                         _______ _______ _______ _____ _____    ______ ____
ROOT
ATOM      1  C   UNL     1       2.706   4.200  18.900  0.00  0.00    +0.000 A 
ATOM      2  N   UNL     1       3.399   3.652  17.878  0.00  0.00    +0.000 NA
ATOM      3  C   UNL     1       4.101   4.456  17.057  0.00  0.00    +0.000 A 
ATOM      4  C   UNL     1       4.873   3.900  16.047  0.00  0.00    +0.000 A 
ATOM      5  C   UNL     1       5.641   4.702  15.203  0.00  0.00    +0.000 A 
ATOM      6 CL   UNL     1       6.619   3.974  13.989  0.00  0.00    +0.000 Cl
ATOM      7  C   UNL     1       5.634   6.086  15.341  0.00  0.00    +0.000 A 
ATOM      8  C   UNL     1       4.857   6.667  16.340  0.00  0.00    +0.000 A 
ATOM      9  C   UNL     1       4.101   5.856  17.203  0.00  0.00    +0.000 A 
ATOM     10  C   UNL     1       3.347   6.406  18.244  0.00  0.00    +0.000 A 
ATOM     11  C   UNL     1       2.648   5.577  19.129  0.00  0.00    +0.000 A 
ENDROOT
BRANCH  11  12
ATOM     12  C   UNL     1       1.934   6.238  20.259  0.00  0.00    +0.000 C 
ATOM     13  O   UNL     1       1.298   5.558  21.059  0.00  0.00    +0.000 OA
ATOM     14  N   UNL     1       2.011   7.610  20.351  0.00  0.00    +0.000 N 
ATOM     15  H   UNL     1       2.719   8.080  19.792  0.00  0.00    +0.000 HD
BRANCH  14  16
ATOM     16  C   UNL     1       1.367   8.345  21.421  0.00  0.00    +0.000 C 
BRANCH  16  17
ATOM     17  C   UNL     1       0.225   9.197  20.887  0.00  0.00    +0.000 C 
BRANCH  17  18
ATOM     18  C   UNL     1       0.582   9.830  19.545  0.00  0.00    +0.000 C 
BRANCH  18  19
ATOM     19  C   UNL     1      -0.647  10.347  18.842  0.00  0.00    +0.000 A 
ATOM     20  C   UNL     1      -1.444  11.331  19.440  0.00  0.00    +0.000 A 
ATOM     21  C   UNL     1      -2.602  11.785  18.807  0.00  0.00    +0.000 A 
ATOM     22  C   UNL     1      -2.974  11.258  17.572  0.00  0.00    +0.000 A 
ATOM     23  C   UNL     1      -2.190  10.277  16.969  0.00  0.00    +0.000 A 
ATOM     24  C   UNL     1      -1.032   9.819  17.602  0.00  0.00    +0.000 A 
ENDBRANCH  18  19
ENDBRANCH  17  18
ENDBRANCH  16  17
ENDBRANCH  14  16
ENDBRANCH  11  12
BRANCH   1  25
ATOM     25  N   UNL     1       2.107   3.245  19.733  0.00  0.00    +0.000 N 
ATOM     26  H   UNL     1       1.657   3.787  20.474  0.00  0.00    +0.000 HD
ATOM     27  H   UNL     1       1.390   2.750  19.207  0.00  0.00    +0.000 HD
ENDBRANCH   1  25
TORSDOF 6
ENDMDL
