MODEL 1
REMARK VINA RESULT:      -8.9      0.000      0.000
REMARK  Name = 
REMARK  6 active torsions:
REMARK  status: ('A' for Active; 'I' for Inactive)
REMARK    1  A    between atoms: C_1  and  C_2
REMARK    2  A    between atoms: C_5  and  C_7
REMARK    3  A    between atoms: C_7  and  C_8
REMARK    4  A    between atoms: C_16  and  C_17
REMARK    5  A    between atoms: C_20  and  C_21
REMARK    6  A    between atoms: C_22  and  C_23
REMARK                            x       y       z     vdW  Elec       q    Type
REMARK                         _______ _______ _______ _____ _____    ______ ____
ROOT
ATOM      1  C   UNL     1      -1.895  10.125  16.865  0.00  0.00    +0.000 C 
ATOM      2  C   UNL     1      -2.551  11.055  17.818  0.00  0.00    +0.000 A 
ATOM      3  N   UNL     1      -3.882  11.176  17.794  0.00  0.00    +0.000 NA
ATOM      4  N   UNL     1      -4.181  12.120  18.730  0.00  0.00    +0.000 N 
ATOM      5  C   UNL     1      -5.512  12.545  18.882  0.00  0.00    +0.000 C 
ATOM      6  O   UNL     1      -5.746  13.623  19.413  0.00  0.00    +0.000 OA
ATOM      7  C   UNL     1      -3.021  12.578  19.342  0.00  0.00    +0.000 A 
ATOM      8  C   UNL     1      -1.964  11.875  18.815  0.00  0.00    +0.000 A 
ATOM      9  C   UNL     1      -0.535  12.061  19.211  0.00  0.00    +0.000 C 
ATOM     10  S   UNL     1      -0.254  13.172  20.622  0.00  0.00    +0.000 S 
ATOM     11  C   UNL     1      -1.733  14.100  20.666  0.00  0.00    +0.000 C 
ATOM     12  N   UNL     1      -1.627  15.304  21.105  0.00  0.00    +0.000 NA
ATOM     13  N   UNL     1      -2.924  13.560  20.268  0.00  0.00    +0.000 N 
ATOM     14  H   UNL     1      -0.631  15.457  21.302  0.00  0.00    +0.000 HD
ATOM     15  H   UNL     1      -3.723  14.159  20.477  0.00  0.00    +0.000 HD
ENDROOT
BRANCH   9  16
ATOM     16  C   UNL     1       0.011  10.672  19.500  0.00  0.00    +0.000 A 
ATOM     17  C   UNL     1      -0.373  10.009  20.675  0.00  0.00    +0.000 A 
ATOM     18  C   UNL     1       0.170   8.761  20.997  0.00  0.00    +0.000 A 
ATOM     19  C   UNL     1       1.087   8.133  20.145  0.00  0.00    +0.000 A 
ATOM     20  C   UNL     1       1.462   8.786  18.967  0.00  0.00    +0.000 A 
ATOM     21  C   UNL     1       0.922  10.030  18.639  0.00  0.00    +0.000 A 
BRANCH  19  22
ATOM     22  C   UNL     1       1.631   6.830  20.540  0.00  0.00    +0.000 C 
ATOM     23  C   UNL     1       2.399   6.063  19.739  0.00  0.00    +0.000 C 
BRANCH  23  24
ATOM     24  C   UNL     1       2.781   4.714  20.141  0.00  0.00    +0.000 A 
ATOM     25  C   UNL     1       2.116   4.108  21.217  0.00  0.00    +0.000 A 
ATOM     26  C   UNL     1       2.486   2.833  21.645  0.00  0.00    +0.000 A 
ATOM     27  C   UNL     1       3.518   2.155  20.996  0.00  0.00    +0.000 A 
ATOM     28  C   UNL     1       4.174   2.749  19.918  0.00  0.00    +0.000 A 
ATOM     29  C   UNL     1       3.808   4.027  19.490  0.00  0.00    +0.000 A 
ENDBRANCH  23  24
ENDBRANCH  19  22
ENDBRANCH   9  16
BRANCH   5  30
ATOM     30  C   UNL     1      -6.553  11.534  18.407  0.00  0.00    +0.000 C 
BRANCH  30  31
ATOM     31  C   UNL     1      -6.998  10.572  19.489  0.00  0.00    +0.000 A 
ATOM     32  C   UNL     1      -7.508  11.058  20.702  0.00  0.00    +0.000 A 
ATOM     33  C   UNL     1      -7.913  10.180  21.711  0.00  0.00    +0.000 A 
ATOM     34  C   UNL     1      -7.819   8.802  21.522  0.00  0.00    +0.000 A 
ATOM     35  C   UNL     1      -7.350   8.303  20.310  0.00  0.00    +0.000 A 
ATOM     36  C   UNL     1      -6.948   9.181  19.296  0.00  0.00    +0.000 A 
ENDBRANCH  30  31
ENDBRANCH   5  30
TORSDOF 5
ENDMDL
MODEL 2
REMARK VINA RESULT:      -8.7      2.431      3.032
REMARK  Name = 
REMARK  6 active torsions:
REMARK  status: ('A' for Active; 'I' for Inactive)
REMARK    1  A    between atoms: C_1  and  C_2
REMARK    2  A    between atoms: C_5  and  C_7
REMARK    3  A    between atoms: C_7  and  C_8
REMARK    4  A    between atoms: C_16  and  C_17
REMARK    5  A    between atoms: C_20  and  C_21
REMARK    6  A    between atoms: C_22  and  C_23
REMARK                            x       y       z     vdW  Elec       q    Type
REMARK                         _______ _______ _______ _____ _____    ______ ____
ROOT
ATOM      1  C   UNL     1      -1.624  10.563  17.490  0.00  0.00    +0.000 C 
ATOM      2  C   UNL     1      -1.543  11.661  18.487  0.00  0.00    +0.000 A 
ATOM      3  N   UNL     1      -2.666  12.095  19.066  0.00  0.00    +0.000 NA
ATOM      4  N   UNL     1      -2.287  13.120  19.879  0.00  0.00    +0.000 N 
ATOM      5  C   UNL     1      -3.267  13.856  20.566  0.00  0.00    +0.000 C 
ATOM      6  O   UNL     1      -3.003  14.980  20.976  0.00  0.00    +0.000 OA
ATOM      7  C   UNL     1      -0.913  13.312  19.804  0.00  0.00    +0.000 A 
ATOM      8  C   UNL     1      -0.401  12.357  18.959  0.00  0.00    +0.000 A 
ATOM      9  C   UNL     1       1.045  12.212  18.612  0.00  0.00    +0.000 C 
ATOM     10  S   UNL     1       2.183  13.280  19.545  0.00  0.00    +0.000 S 
ATOM     11  C   UNL     1       1.119  14.535  20.131  0.00  0.00    +0.000 C 
ATOM     12  N   UNL     1       1.651  15.696  20.283  0.00  0.00    +0.000 NA
ATOM     13  N   UNL     1      -0.193  14.279  20.419  0.00  0.00    +0.000 N 
ATOM     14  H   UNL     1       2.625  15.614  19.968  0.00  0.00    +0.000 HD
ATOM     15  H   UNL     1      -0.659  15.060  20.882  0.00  0.00    +0.000 HD
ENDROOT
BRANCH   9  16
ATOM     16  C   UNL     1       1.389  10.746  18.820  0.00  0.00    +0.000 A 
ATOM     17  C   UNL     1       2.035  10.036  17.797  0.00  0.00    +0.000 A 
ATOM     18  C   UNL     1       2.299   8.669  17.937  0.00  0.00    +0.000 A 
ATOM     19  C   UNL     1       1.951   7.985  19.107  0.00  0.00    +0.000 A 
ATOM     20  C   UNL     1       1.318   8.694  20.134  0.00  0.00    +0.000 A 
ATOM     21  C   UNL     1       1.054  10.056  20.001  0.00  0.00    +0.000 A 
BRANCH  19  22
ATOM     22  C   UNL     1       2.243   6.550  19.193  0.00  0.00    +0.000 C 
ATOM     23  C   UNL     1       2.287   5.728  18.125  0.00  0.00    +0.000 C 
BRANCH  23  24
ATOM     24  C   UNL     1       2.435   4.287  18.299  0.00  0.00    +0.000 A 
ATOM     25  C   UNL     1       1.477   3.588  19.046  0.00  0.00    +0.000 A 
ATOM     26  C   UNL     1       1.615   2.216  19.258  0.00  0.00    +0.000 A 
ATOM     27  C   UNL     1       2.708   1.536  18.720  0.00  0.00    +0.000 A 
ATOM     28  C   UNL     1       3.658   2.226  17.966  0.00  0.00    +0.000 A 
ATOM     29  C   UNL     1       3.524   3.601  17.756  0.00  0.00    +0.000 A 
ENDBRANCH  23  24
ENDBRANCH  19  22
ENDBRANCH   9  16
BRANCH   5  30
ATOM     30  C   UNL     1      -4.577  13.104  20.789  0.00  0.00    +0.000 C 
BRANCH  30  31
ATOM     31  C   UNL     1      -4.892  12.860  22.250  0.00  0.00    +0.000 A 
ATOM     32  C   UNL     1      -6.220  12.882  22.702  0.00  0.00    +0.000 A 
ATOM     33  C   UNL     1      -6.522  12.667  24.049  0.00  0.00    +0.000 A 
ATOM     34  C   UNL     1      -5.501  12.423  24.966  0.00  0.00    +0.000 A 
ATOM     35  C   UNL     1      -4.181  12.361  24.528  0.00  0.00    +0.000 A 
ATOM     36  C   UNL     1      -3.877  12.571  23.178  0.00  0.00    +0.000 A 
ENDBRANCH  30  31
ENDBRANCH   5  30
TORSDOF 5
ENDMDL
MODEL 3
REMARK VINA RESULT:      -8.6      2.323      2.902
REMARK  Name = 
REMARK  6 active torsions:
REMARK  status: ('A' for Active; 'I' for Inactive)
REMARK    1  A    between atoms: C_1  and  C_2
REMARK    2  A    between atoms: C_5  and  C_7
REMARK    3  A    between atoms: C_7  and  C_8
REMARK    4  A    between atoms: C_16  and  C_17
REMARK    5  A    between atoms: C_20  and  C_21
REMARK    6  A    between atoms: C_22  and  C_23
REMARK                            x       y       z     vdW  Elec       q    Type
REMARK                         _______ _______ _______ _____ _____    ______ ____
ROOT
ATOM      1  C   UNL     1      -1.687  10.495  17.465  0.00  0.00    +0.000 C 
ATOM      2  C   UNL     1      -1.716  11.517  18.541  0.00  0.00    +0.000 A 
ATOM      3  N   UNL     1      -2.885  11.823  19.112  0.00  0.00    +0.000 NA
ATOM      4  N   UNL     1      -2.607  12.809  20.010  0.00  0.00    +0.000 N 
ATOM      5  C   UNL     1      -3.658  13.417  20.717  0.00  0.00    +0.000 C 
ATOM      6  O   UNL     1      -3.492  14.524  21.216  0.00  0.00    +0.000 OA
ATOM      7  C   UNL     1      -1.250  13.106  19.996  0.00  0.00    +0.000 A 
ATOM      8  C   UNL     1      -0.644  12.257  19.101  0.00  0.00    +0.000 A 
ATOM      9  C   UNL     1       0.818  12.245  18.793  0.00  0.00    +0.000 C 
ATOM     10  S   UNL     1       1.846  13.320  19.839  0.00  0.00    +0.000 S 
ATOM     11  C   UNL     1       0.675  14.446  20.479  0.00  0.00    +0.000 C 
ATOM     12  N   UNL     1       1.113  15.628  20.734  0.00  0.00    +0.000 NA
ATOM     13  N   UNL     1      -0.622  14.074  20.704  0.00  0.00    +0.000 N 
ATOM     14  H   UNL     1       2.099  15.641  20.447  0.00  0.00    +0.000 HD
ATOM     15  H   UNL     1      -1.158  14.781  21.207  0.00  0.00    +0.000 HD
ENDROOT
BRANCH   9  16
ATOM     16  C   UNL     1       1.265  10.797  18.904  0.00  0.00    +0.000 A 
ATOM     17  C   UNL     1       1.963  10.205  17.841  0.00  0.00    +0.000 A 
ATOM     18  C   UNL     1       2.324   8.854  17.891  0.00  0.00    +0.000 A 
ATOM     19  C   UNL     1       2.022   8.069  19.010  0.00  0.00    +0.000 A 
ATOM     20  C   UNL     1       1.338   8.660  20.077  0.00  0.00    +0.000 A 
ATOM     21  C   UNL     1       0.977  10.006  20.034  0.00  0.00    +0.000 A 
BRANCH  19  22
ATOM     22  C   UNL     1       2.416   6.657  19.001  0.00  0.00    +0.000 C 
ATOM     23  C   UNL     1       2.052   5.782  18.041  0.00  0.00    +0.000 C 
BRANCH  23  24
ATOM     24  C   UNL     1       2.355   4.361  18.175  0.00  0.00    +0.000 A 
ATOM     25  C   UNL     1       1.434   3.524  18.821  0.00  0.00    +0.000 A 
ATOM     26  C   UNL     1       1.716   2.169  18.993  0.00  0.00    +0.000 A 
ATOM     27  C   UNL     1       2.916   1.643  18.516  0.00  0.00    +0.000 A 
ATOM     28  C   UNL     1       3.830   2.469  17.861  0.00  0.00    +0.000 A 
ATOM     29  C   UNL     1       3.552   3.827  17.691  0.00  0.00    +0.000 A 
ENDBRANCH  23  24
ENDBRANCH  19  22
ENDBRANCH   9  16
BRANCH   5  30
ATOM     30  C   UNL     1      -4.914  12.558  20.839  0.00  0.00    +0.000 C 
BRANCH  30  31
ATOM     31  C   UNL     1      -5.912  13.087  21.849  0.00  0.00    +0.000 A 
ATOM     32  C   UNL     1      -5.754  12.809  23.214  0.00  0.00    +0.000 A 
ATOM     33  C   UNL     1      -6.673  13.286  24.153  0.00  0.00    +0.000 A 
ATOM     34  C   UNL     1      -7.763  14.049  23.742  0.00  0.00    +0.000 A 
ATOM     35  C   UNL     1      -7.916  14.365  22.394  0.00  0.00    +0.000 A 
ATOM     36  C   UNL     1      -6.993  13.894  21.453  0.00  0.00    +0.000 A 
ENDBRANCH  30  31
ENDBRANCH   5  30
TORSDOF 5
ENDMDL
MODEL 4
REMARK VINA RESULT:      -8.5      2.482      3.114
REMARK  Name = 
REMARK  6 active torsions:
REMARK  status: ('A' for Active; 'I' for Inactive)
REMARK    1  A    between atoms: C_1  and  C_2
REMARK    2  A    between atoms: C_5  and  C_7
REMARK    3  A    between atoms: C_7  and  C_8
REMARK    4  A    between atoms: C_16  and  C_17
REMARK    5  A    between atoms: C_20  and  C_21
REMARK    6  A    between atoms: C_22  and  C_23
REMARK                            x       y       z     vdW  Elec       q    Type
REMARK                         _______ _______ _______ _____ _____    ______ ____
ROOT
ATOM      1  C   UNL     1      -1.817  10.813  17.695  0.00  0.00    +0.000 C 
ATOM      2  C   UNL     1      -1.746  11.682  18.897  0.00  0.00    +0.000 A 
ATOM      3  N   UNL     1      -2.870  11.959  19.563  0.00  0.00    +0.000 NA
ATOM      4  N   UNL     1      -2.501  12.802  20.568  0.00  0.00    +0.000 N 
ATOM      5  C   UNL     1      -3.488  13.355  21.402  0.00  0.00    +0.000 C 
ATOM      6  O   UNL     1      -3.243  14.376  22.034  0.00  0.00    +0.000 OA
ATOM      7  C   UNL     1      -1.133  13.039  20.522  0.00  0.00    +0.000 A 
ATOM      8  C   UNL     1      -0.613  12.292  19.492  0.00  0.00    +0.000 A 
ATOM      9  C   UNL     1       0.831  12.258  19.109  0.00  0.00    +0.000 C 
ATOM     10  S   UNL     1       1.958  13.137  20.233  0.00  0.00    +0.000 S 
ATOM     11  C   UNL     1       0.876  14.217  21.076  0.00  0.00    +0.000 C 
ATOM     12  N   UNL     1       1.384  15.333  21.461  0.00  0.00    +0.000 NA
ATOM     13  N   UNL     1      -0.426  13.875  21.317  0.00  0.00    +0.000 N 
ATOM     14  H   UNL     1       2.355  15.342  21.127  0.00  0.00    +0.000 HD
ATOM     15  H   UNL     1      -0.902  14.531  21.937  0.00  0.00    +0.000 HD
ENDROOT
BRANCH   9  16
ATOM     16  C   UNL     1       1.210  10.789  19.005  0.00  0.00    +0.000 A 
ATOM     17  C   UNL     1       0.968   9.934  20.090  0.00  0.00    +0.000 A 
ATOM     18  C   UNL     1       1.371   8.595  20.044  0.00  0.00    +0.000 A 
ATOM     19  C   UNL     1       1.999   8.071  18.908  0.00  0.00    +0.000 A 
ATOM     20  C   UNL     1       2.229   8.918  17.820  0.00  0.00    +0.000 A 
ATOM     21  C   UNL     1       1.828  10.253  17.859  0.00  0.00    +0.000 A 
BRANCH  19  22
ATOM     22  C   UNL     1       2.408   6.663  18.922  0.00  0.00    +0.000 C 
ATOM     23  C   UNL     1       1.930   5.734  18.068  0.00  0.00    +0.000 C 
BRANCH  23  24
ATOM     24  C   UNL     1       2.269   4.325  18.235  0.00  0.00    +0.000 A 
ATOM     25  C   UNL     1       3.485   3.849  17.723  0.00  0.00    +0.000 A 
ATOM     26  C   UNL     1       3.816   2.499  17.838  0.00  0.00    +0.000 A 
ATOM     27  C   UNL     1       2.936   1.619  18.469  0.00  0.00    +0.000 A 
ATOM     28  C   UNL     1       1.731   2.090  18.990  0.00  0.00    +0.000 A 
ATOM     29  C   UNL     1       1.395   3.441  18.873  0.00  0.00    +0.000 A 
ENDBRANCH  23  24
ENDBRANCH  19  22
ENDBRANCH   9  16
BRANCH   5  30
ATOM     30  C   UNL     1      -4.778  12.543  21.476  0.00  0.00    +0.000 C 
BRANCH  30  31
ATOM     31  C   UNL     1      -5.874  13.221  22.272  0.00  0.00    +0.000 A 
ATOM     32  C   UNL     1      -6.128  12.837  23.597  0.00  0.00    +0.000 A 
ATOM     33  C   UNL     1      -7.142  13.450  24.338  0.00  0.00    +0.000 A 
ATOM     34  C   UNL     1      -7.917  14.458  23.768  0.00  0.00    +0.000 A 
ATOM     35  C   UNL     1      -7.653  14.876  22.465  0.00  0.00    +0.000 A 
ATOM     36  C   UNL     1      -6.634  14.268  21.724  0.00  0.00    +0.000 A 
ENDBRANCH  30  31
ENDBRANCH   5  30
TORSDOF 5
ENDMDL
MODEL 5
REMARK VINA RESULT:      -8.4      2.033      2.811
REMARK  Name = 
REMARK  6 active torsions:
REMARK  status: ('A' for Active; 'I' for Inactive)
REMARK    1  A    between atoms: C_1  and  C_2
REMARK    2  A    between atoms: C_5  and  C_7
REMARK    3  A    between atoms: C_7  and  C_8
REMARK    4  A    between atoms: C_16  and  C_17
REMARK    5  A    between atoms: C_20  and  C_21
REMARK    6  A    between atoms: C_22  and  C_23
REMARK                            x       y       z     vdW  Elec       q    Type
REMARK                         _______ _______ _______ _____ _____    ______ ____
ROOT
ATOM      1  C   UNL     1      -1.669  10.874  17.496  0.00  0.00    +0.000 C 
ATOM      2  C   UNL     1      -1.712  11.705  18.725  0.00  0.00    +0.000 A 
ATOM      3  N   UNL     1      -2.895  11.979  19.281  0.00  0.00    +0.000 NA
ATOM      4  N   UNL     1      -2.622  12.787  20.344  0.00  0.00    +0.000 N 
ATOM      5  C   UNL     1      -3.682  13.330  21.090  0.00  0.00    +0.000 C 
ATOM      6  O   UNL     1      -3.492  14.328  21.775  0.00  0.00    +0.000 OA
ATOM      7  C   UNL     1      -1.254  13.005  20.446  0.00  0.00    +0.000 A 
ATOM      8  C   UNL     1      -0.639  12.281  19.453  0.00  0.00    +0.000 A 
ATOM      9  C   UNL     1       0.836  12.236  19.219  0.00  0.00    +0.000 C 
ATOM     10  S   UNL     1       1.852  13.064  20.479  0.00  0.00    +0.000 S 
ATOM     11  C   UNL     1       0.701  14.135  21.240  0.00  0.00    +0.000 C 
ATOM     12  N   UNL     1       1.181  15.232  21.710  0.00  0.00    +0.000 NA
ATOM     13  N   UNL     1      -0.622  13.805  21.335  0.00  0.00    +0.000 N 
ATOM     14  H   UNL     1       2.181  15.236  21.477  0.00  0.00    +0.000 HD
ATOM     15  H   UNL     1      -1.152  14.450  21.923  0.00  0.00    +0.000 HD
ENDROOT
BRANCH   9  16
ATOM     16  C   UNL     1       1.206  10.766  19.108  0.00  0.00    +0.000 A 
ATOM     17  C   UNL     1       0.954   9.907  20.188  0.00  0.00    +0.000 A 
ATOM     18  C   UNL     1       1.349   8.566  20.136  0.00  0.00    +0.000 A 
ATOM     19  C   UNL     1       1.979   8.043  19.000  0.00  0.00    +0.000 A 
ATOM     20  C   UNL     1       2.219   8.895  17.917  0.00  0.00    +0.000 A 
ATOM     21  C   UNL     1       1.827  10.232  17.962  0.00  0.00    +0.000 A 
BRANCH  19  22
ATOM     22  C   UNL     1       2.380   6.633  19.008  0.00  0.00    +0.000 C 
ATOM     23  C   UNL     1       2.119   5.773  18.001  0.00  0.00    +0.000 C 
BRANCH  23  24
ATOM     24  C   UNL     1       2.415   4.352  18.140  0.00  0.00    +0.000 A 
ATOM     25  C   UNL     1       1.531   3.537  18.862  0.00  0.00    +0.000 A 
ATOM     26  C   UNL     1       1.809   2.182  19.040  0.00  0.00    +0.000 A 
ATOM     27  C   UNL     1       2.970   1.634  18.494  0.00  0.00    +0.000 A 
ATOM     28  C   UNL     1       3.846   2.437  17.765  0.00  0.00    +0.000 A 
ATOM     29  C   UNL     1       3.572   3.796  17.589  0.00  0.00    +0.000 A 
ENDBRANCH  23  24
ENDBRANCH  19  22
ENDBRANCH   9  16
BRANCH   5  30
ATOM     30  C   UNL     1      -4.983  12.534  21.006  0.00  0.00    +0.000 C 
BRANCH  30  31
ATOM     31  C   UNL     1      -5.885  12.972  19.870  0.00  0.00    +0.000 A 
ATOM     32  C   UNL     1      -6.522  12.018  19.063  0.00  0.00    +0.000 A 
ATOM     33  C   UNL     1      -7.349  12.410  18.008  0.00  0.00    +0.000 A 
ATOM     34  C   UNL     1      -7.556  13.763  17.744  0.00  0.00    +0.000 A 
ATOM     35  C   UNL     1      -6.961  14.723  18.558  0.00  0.00    +0.000 A 
ATOM     36  C   UNL     1      -6.136  14.332  19.619  0.00  0.00    +0.000 A 
ENDBRANCH  30  31
ENDBRANCH   5  30
TORSDOF 5
ENDMDL
MODEL 6
REMARK VINA RESULT:      -8.3      1.924      2.719
REMARK  Name = 
REMARK  6 active torsions:
REMARK  status: ('A' for Active; 'I' for Inactive)
REMARK    1  A    between atoms: C_1  and  C_2
REMARK    2  A    between atoms: C_5  and  C_7
REMARK    3  A    between atoms: C_7  and  C_8
REMARK    4  A    between atoms: C_16  and  C_17
REMARK    5  A    between atoms: C_20  and  C_21
REMARK    6  A    between atoms: C_22  and  C_23
REMARK                            x       y       z     vdW  Elec       q    Type
REMARK                         _______ _______ _______ _____ _____    ______ ____
ROOT
ATOM      1  C   UNL     1      -1.900  10.629  17.610  0.00  0.00    +0.000 C 
ATOM      2  C   UNL     1      -1.851  11.576  18.753  0.00  0.00    +0.000 A 
ATOM      3  N   UNL     1      -2.986  11.890  19.384  0.00  0.00    +0.000 NA
ATOM      4  N   UNL     1      -2.636  12.800  20.335  0.00  0.00    +0.000 N 
ATOM      5  C   UNL     1      -3.637  13.401  21.118  0.00  0.00    +0.000 C 
ATOM      6  O   UNL     1      -3.407  14.463  21.684  0.00  0.00    +0.000 OA
ATOM      7  C   UNL     1      -1.269  13.043  20.293  0.00  0.00    +0.000 A 
ATOM      8  C   UNL     1      -0.729  12.232  19.322  0.00  0.00    +0.000 A 
ATOM      9  C   UNL     1       0.720  12.182  18.962  0.00  0.00    +0.000 C 
ATOM     10  S   UNL     1       1.826  13.141  20.040  0.00  0.00    +0.000 S 
ATOM     11  C   UNL     1       0.726  14.267  20.795  0.00  0.00    +0.000 C 
ATOM     12  N   UNL     1       1.222  15.411  21.112  0.00  0.00    +0.000 NA
ATOM     13  N   UNL     1      -0.578  13.934  21.040  0.00  0.00    +0.000 N 
ATOM     14  H   UNL     1       2.198  15.403  20.792  0.00  0.00    +0.000 HD
ATOM     15  H   UNL     1      -1.066  14.626  21.609  0.00  0.00    +0.000 HD
ENDROOT
BRANCH   9  16
ATOM     16  C   UNL     1       1.108  10.713  18.961  0.00  0.00    +0.000 A 
ATOM     17  C   UNL     1       0.909   9.944  20.117  0.00  0.00    +0.000 A 
ATOM     18  C   UNL     1       1.322   8.608  20.163  0.00  0.00    +0.000 A 
ATOM     19  C   UNL     1       1.918   8.000  19.051  0.00  0.00    +0.000 A 
ATOM     20  C   UNL     1       2.106   8.761  17.893  0.00  0.00    +0.000 A 
ATOM     21  C   UNL     1       1.694  10.092  17.841  0.00  0.00    +0.000 A 
BRANCH  19  22
ATOM     22  C   UNL     1       2.340   6.600  19.162  0.00  0.00    +0.000 C 
ATOM     23  C   UNL     1       2.274   5.714  18.146  0.00  0.00    +0.000 C 
BRANCH  23  24
ATOM     24  C   UNL     1       2.571   4.303  18.369  0.00  0.00    +0.000 A 
ATOM     25  C   UNL     1       3.562   3.683  17.594  0.00  0.00    +0.000 A 
ATOM     26  C   UNL     1       3.839   2.327  17.763  0.00  0.00    +0.000 A 
ATOM     27  C   UNL     1       3.132   1.585  18.709  0.00  0.00    +0.000 A 
ATOM     28  C   UNL     1       2.154   2.200  19.490  0.00  0.00    +0.000 A 
ATOM     29  C   UNL     1       1.871   3.558  19.320  0.00  0.00    +0.000 A 
ENDBRANCH  23  24
ENDBRANCH  19  22
ENDBRANCH   9  16
BRANCH   5  30
ATOM     30  C   UNL     1      -4.924  12.587  21.227  0.00  0.00    +0.000 C 
BRANCH  30  31
ATOM     31  C   UNL     1      -5.967  12.964  20.195  0.00  0.00    +0.000 A 
ATOM     32  C   UNL     1      -6.436  14.283  20.112  0.00  0.00    +0.000 A 
ATOM     33  C   UNL     1      -7.404  14.640  19.170  0.00  0.00    +0.000 A 
ATOM     34  C   UNL     1      -7.917  13.685  18.293  0.00  0.00    +0.000 A 
ATOM     35  C   UNL     1      -7.435  12.379  18.339  0.00  0.00    +0.000 A 
ATOM     36  C   UNL     1      -6.461  12.021  19.278  0.00  0.00    +0.000 A 
ENDBRANCH  30  31
ENDBRANCH   5  30
TORSDOF 5
ENDMDL
MODEL 7
REMARK VINA RESULT:      -8.3      1.833      2.492
REMARK  Name = 
REMARK  6 active torsions:
REMARK  status: ('A' for Active; 'I' for Inactive)
REMARK    1  A    between atoms: C_1  and  C_2
REMARK    2  A    between atoms: C_5  and  C_7
REMARK    3  A    between atoms: C_7  and  C_8
REMARK    4  A    between atoms: C_16  and  C_17
REMARK    5  A    between atoms: C_20  and  C_21
REMARK    6  A    between atoms: C_22  and  C_23
REMARK                            x       y       z     vdW  Elec       q    Type
REMARK                         _______ _______ _______ _____ _____    ______ ____
ROOT
ATOM      1  C   UNL     1      -1.727  10.302  17.221  0.00  0.00    +0.000 C 
ATOM      2  C   UNL     1      -1.791  11.349  18.272  0.00  0.00    +0.000 A 
ATOM      3  N   UNL     1      -2.976  11.659  18.806  0.00  0.00    +0.000 NA
ATOM      4  N   UNL     1      -2.727  12.667  19.689  0.00  0.00    +0.000 N 
ATOM      5  C   UNL     1      -3.801  13.283  20.354  0.00  0.00    +0.000 C 
ATOM      6  O   UNL     1      -3.655  14.402  20.832  0.00  0.00    +0.000 OA
ATOM      7  C   UNL     1      -1.372  12.974  19.702  0.00  0.00    +0.000 A 
ATOM      8  C   UNL     1      -0.738  12.109  18.842  0.00  0.00    +0.000 A 
ATOM      9  C   UNL     1       0.731  12.101  18.572  0.00  0.00    +0.000 C 
ATOM     10  S   UNL     1       1.725  13.207  19.618  0.00  0.00    +0.000 S 
ATOM     11  C   UNL     1       0.530  14.339  20.203  0.00  0.00    +0.000 C 
ATOM     12  N   UNL     1       0.953  15.529  20.441  0.00  0.00    +0.000 NA
ATOM     13  N   UNL     1      -0.770  13.962  20.403  0.00  0.00    +0.000 N 
ATOM     14  H   UNL     1       1.946  15.543  20.179  0.00  0.00    +0.000 HD
ATOM     15  H   UNL     1      -1.323  14.677  20.876  0.00  0.00    +0.000 HD
ENDROOT
BRANCH   9  16
ATOM     16  C   UNL     1       1.185  10.659  18.727  0.00  0.00    +0.000 A 
ATOM     17  C   UNL     1       0.943   9.984  19.933  0.00  0.00    +0.000 A 
ATOM     18  C   UNL     1       1.413   8.680  20.125  0.00  0.00    +0.000 A 
ATOM     19  C   UNL     1       2.111   8.009  19.114  0.00  0.00    +0.000 A 
ATOM     20  C   UNL     1       2.342   8.676  17.906  0.00  0.00    +0.000 A 
ATOM     21  C   UNL     1       1.875   9.974  17.708  0.00  0.00    +0.000 A 
BRANCH  19  22
ATOM     22  C   UNL     1       2.588   6.648  19.376  0.00  0.00    +0.000 C 
ATOM     23  C   UNL     1       1.868   5.713  20.029  0.00  0.00    +0.000 C 
BRANCH  23  24
ATOM     24  C   UNL     1       2.462   4.429  20.385  0.00  0.00    +0.000 A 
ATOM     25  C   UNL     1       3.574   3.968  19.666  0.00  0.00    +0.000 A 
ATOM     26  C   UNL     1       4.139   2.728  19.964  0.00  0.00    +0.000 A 
ATOM     27  C   UNL     1       3.599   1.945  20.984  0.00  0.00    +0.000 A 
ATOM     28  C   UNL     1       2.500   2.405  21.710  0.00  0.00    +0.000 A 
ATOM     29  C   UNL     1       1.930   3.645  21.411  0.00  0.00    +0.000 A 
ENDBRANCH  23  24
ENDBRANCH  19  22
ENDBRANCH   9  16
BRANCH   5  30
ATOM     30  C   UNL     1      -5.053  12.417  20.464  0.00  0.00    +0.000 C 
BRANCH  30  31
ATOM     31  C   UNL     1      -5.809  12.612  21.763  0.00  0.00    +0.000 A 
ATOM     32  C   UNL     1      -7.208  12.515  21.789  0.00  0.00    +0.000 A 
ATOM     33  C   UNL     1      -7.916  12.701  22.980  0.00  0.00    +0.000 A 
ATOM     34  C   UNL     1      -7.237  12.984  24.163  0.00  0.00    +0.000 A 
ATOM     35  C   UNL     1      -5.845  13.048  24.161  0.00  0.00    +0.000 A 
ATOM     36  C   UNL     1      -5.134  12.856  22.971  0.00  0.00    +0.000 A 
ENDBRANCH  30  31
ENDBRANCH   5  30
TORSDOF 5
ENDMDL
MODEL 8
REMARK VINA RESULT:      -8.2      2.379      2.953
REMARK  Name = 
REMARK  6 active torsions:
REMARK  status: ('A' for Active; 'I' for Inactive)
REMARK    1  A    between atoms: C_1  and  C_2
REMARK    2  A    between atoms: C_5  and  C_7
REMARK    3  A    between atoms: C_7  and  C_8
REMARK    4  A    between atoms: C_16  and  C_17
REMARK    5  A    between atoms: C_20  and  C_21
REMARK    6  A    between atoms: C_22  and  C_23
REMARK                            x       y       z     vdW  Elec       q    Type
REMARK                         _______ _______ _______ _____ _____    ______ ____
ROOT
ATOM      1  C   UNL     1      -1.602  10.984  17.657  0.00  0.00    +0.000 C 
ATOM      2  C   UNL     1      -1.635  11.844  18.867  0.00  0.00    +0.000 A 
ATOM      3  N   UNL     1      -2.816  12.153  19.411  0.00  0.00    +0.000 NA
ATOM      4  N   UNL     1      -2.533  12.979  20.456  0.00  0.00    +0.000 N 
ATOM      5  C   UNL     1      -3.587  13.559  21.183  0.00  0.00    +0.000 C 
ATOM      6  O   UNL     1      -3.381  14.569  21.847  0.00  0.00    +0.000 OA
ATOM      7  C   UNL     1      -1.161  13.173  20.561  0.00  0.00    +0.000 A 
ATOM      8  C   UNL     1      -0.555  12.416  19.588  0.00  0.00    +0.000 A 
ATOM      9  C   UNL     1       0.920  12.338  19.363  0.00  0.00    +0.000 C 
ATOM     10  S   UNL     1       1.945  13.175  20.609  0.00  0.00    +0.000 S 
ATOM     11  C   UNL     1       0.811  14.285  21.340  0.00  0.00    +0.000 C 
ATOM     12  N   UNL     1       1.309  15.383  21.787  0.00  0.00    +0.000 NA
ATOM     13  N   UNL     1      -0.519  13.983  21.435  0.00  0.00    +0.000 N 
ATOM     14  H   UNL     1       2.310  15.363  21.560  0.00  0.00    +0.000 HD
ATOM     15  H   UNL     1      -1.040  14.650  22.005  0.00  0.00    +0.000 HD
ENDROOT
BRANCH   9  16
ATOM     16  C   UNL     1       1.262  10.859  19.288  0.00  0.00    +0.000 A 
ATOM     17  C   UNL     1       1.178  10.070  20.445  0.00  0.00    +0.000 A 
ATOM     18  C   UNL     1       1.555   8.723  20.417  0.00  0.00    +0.000 A 
ATOM     19  C   UNL     1       1.998   8.124  19.231  0.00  0.00    +0.000 A 
ATOM     20  C   UNL     1       2.070   8.905  18.073  0.00  0.00    +0.000 A 
ATOM     21  C   UNL     1       1.694  10.248  18.095  0.00  0.00    +0.000 A 
BRANCH  19  22
ATOM     22  C   UNL     1       2.389   6.711  19.264  0.00  0.00    +0.000 C 
ATOM     23  C   UNL     1       2.731   6.001  18.169  0.00  0.00    +0.000 C 
BRANCH  23  24
ATOM     24  C   UNL     1       2.964   4.564  18.257  0.00  0.00    +0.000 A 
ATOM     25  C   UNL     1       2.054   3.686  17.651  0.00  0.00    +0.000 A 
ATOM     26  C   UNL     1       2.235   2.307  17.750  0.00  0.00    +0.000 A 
ATOM     27  C   UNL     1       3.329   1.798  18.451  0.00  0.00    +0.000 A 
ATOM     28  C   UNL     1       4.243   2.668  19.045  0.00  0.00    +0.000 A 
ATOM     29  C   UNL     1       4.062   4.050  18.950  0.00  0.00    +0.000 A 
ENDBRANCH  23  24
ENDBRANCH  19  22
ENDBRANCH   9  16
BRANCH   5  30
ATOM     30  C   UNL     1      -4.902  12.787  21.110  0.00  0.00    +0.000 C 
BRANCH  30  31
ATOM     31  C   UNL     1      -5.957  13.300  22.068  0.00  0.00    +0.000 A 
ATOM     32  C   UNL     1      -6.771  14.385  21.712  0.00  0.00    +0.000 A 
ATOM     33  C   UNL     1      -7.741  14.871  22.591  0.00  0.00    +0.000 A 
ATOM     34  C   UNL     1      -7.916  14.280  23.841  0.00  0.00    +0.000 A 
ATOM     35  C   UNL     1      -7.141  13.178  24.196  0.00  0.00    +0.000 A 
ATOM     36  C   UNL     1      -6.172  12.686  23.314  0.00  0.00    +0.000 A 
ENDBRANCH  30  31
ENDBRANCH   5  30
TORSDOF 5
ENDMDL
MODEL 9
REMARK VINA RESULT:      -8.2      2.113      3.003
REMARK  Name = 
REMARK  6 active torsions:
REMARK  status: ('A' for Active; 'I' for Inactive)
REMARK    1  A    between atoms: C_1  and  C_2
REMARK    2  A    between atoms: C_5  and  C_7
REMARK    3  A    between atoms: C_7  and  C_8
REMARK    4  A    between atoms: C_16  and  C_17
REMARK    5  A    between atoms: C_20  and  C_21
REMARK    6  A    between atoms: C_22  and  C_23
REMARK                            x       y       z     vdW  Elec       q    Type
REMARK                         _______ _______ _______ _____ _____    ______ ____
ROOT
ATOM      1  C   UNL     1      -1.653  10.818  17.558  0.00  0.00    +0.000 C 
ATOM      2  C   UNL     1      -1.732  11.704  18.747  0.00  0.00    +0.000 A 
ATOM      3  N   UNL     1      -2.923  11.927  19.310  0.00  0.00    +0.000 NA
ATOM      4  N   UNL     1      -2.689  12.802  20.328  0.00  0.00    +0.000 N 
ATOM      5  C   UNL     1      -3.772  13.310  21.065  0.00  0.00    +0.000 C 
ATOM      6  O   UNL     1      -3.638  14.351  21.699  0.00  0.00    +0.000 OA
ATOM      7  C   UNL     1      -1.337  13.113  20.396  0.00  0.00    +0.000 A 
ATOM      8  C   UNL     1      -0.689  12.384  19.427  0.00  0.00    +0.000 A 
ATOM      9  C   UNL     1       0.781  12.424  19.170  0.00  0.00    +0.000 C 
ATOM     10  S   UNL     1       1.759  13.377  20.371  0.00  0.00    +0.000 S 
ATOM     11  C   UNL     1       0.551  14.406  21.100  0.00  0.00    +0.000 C 
ATOM     12  N   UNL     1       0.963  15.554  21.508  0.00  0.00    +0.000 NA
ATOM     13  N   UNL     1      -0.747  13.996  21.234  0.00  0.00    +0.000 N 
ATOM     14  H   UNL     1       1.958  15.612  21.258  0.00  0.00    +0.000 HD
ATOM     15  H   UNL     1      -1.309  14.633  21.800  0.00  0.00    +0.000 HD
ENDROOT
BRANCH   9  16
ATOM     16  C   UNL     1       1.246  10.978  19.123  0.00  0.00    +0.000 A 
ATOM     17  C   UNL     1       1.907  10.500  17.981  0.00  0.00    +0.000 A 
ATOM     18  C   UNL     1       2.281   9.156  17.886  0.00  0.00    +0.000 A 
ATOM     19  C   UNL     1       2.032   8.263  18.935  0.00  0.00    +0.000 A 
ATOM     20  C   UNL     1       1.385   8.739  20.080  0.00  0.00    +0.000 A 
ATOM     21  C   UNL     1       1.011  10.079  20.181  0.00  0.00    +0.000 A 
BRANCH  19  22
ATOM     22  C   UNL     1       2.438   6.863  18.775  0.00  0.00    +0.000 C 
ATOM     23  C   UNL     1       1.715   5.944  18.102  0.00  0.00    +0.000 C 
BRANCH  23  24
ATOM     24  C   UNL     1       2.105   4.538  18.110  0.00  0.00    +0.000 A 
ATOM     25  C   UNL     1       3.322   4.164  17.524  0.00  0.00    +0.000 A 
ATOM     26  C   UNL     1       3.701   2.822  17.487  0.00  0.00    +0.000 A 
ATOM     27  C   UNL     1       2.868   1.849  18.039  0.00  0.00    +0.000 A 
ATOM     28  C   UNL     1       1.661   2.218  18.633  0.00  0.00    +0.000 A 
ATOM     29  C   UNL     1       1.277   3.561  18.668  0.00  0.00    +0.000 A 
ENDBRANCH  23  24
ENDBRANCH  19  22
ENDBRANCH   9  16
BRANCH   5  30
ATOM     30  C   UNL     1      -5.018  12.429  21.042  0.00  0.00    +0.000 C 
BRANCH  30  31
ATOM     31  C   UNL     1      -6.034  12.847  19.998  0.00  0.00    +0.000 A 
ATOM     32  C   UNL     1      -6.347  11.991  18.932  0.00  0.00    +0.000 A 
ATOM     33  C   UNL     1      -7.275  12.370  17.959  0.00  0.00    +0.000 A 
ATOM     34  C   UNL     1      -7.908  13.609  18.037  0.00  0.00    +0.000 A 
ATOM     35  C   UNL     1      -7.636  14.455  19.109  0.00  0.00    +0.000 A 
ATOM     36  C   UNL     1      -6.710  14.076  20.088  0.00  0.00    +0.000 A 
ENDBRANCH  30  31
ENDBRANCH   5  30
TORSDOF 5
ENDMDL
