MODEL 1
REMARK VINA RESULT:      -7.9      0.000      0.000
REMARK  Name = 
REMARK  4 active torsions:
REMARK  status: ('A' for Active; 'I' for Inactive)
REMARK    1  A    between atoms: C_5  and  C_6
REMARK    2  A    between atoms: C_6  and  C_7
REMARK    3  A    between atoms: C_13  and  C_14
REMARK    4  A    between atoms: C_14  and  C_15
REMARK                            x       y       z     vdW  Elec       q    Type
REMARK                         _______ _______ _______ _____ _____    ______ ____
ROOT
ATOM      1  O   UNL     1       8.041   4.177  17.249  0.00  0.00    +0.000 OA
ATOM      2  C   UNL     1       7.063   4.607  16.652  0.00  0.00    +0.000 C 
ATOM      3  O   UNL     1       7.104   5.090  15.385  0.00  0.00    +0.000 OA
ATOM      4  C   UNL     1       5.786   5.379  14.930  0.00  0.00    +0.000 C 
ATOM      5  C   UNL     1       4.926   5.509  16.177  0.00  0.00    +0.000 C 
ATOM      6  C   UNL     1       5.660   4.629  17.204  0.00  0.00    +0.000 C 
ENDROOT
BRANCH   5   7
ATOM      7  C   UNL     1       4.877   6.982  16.656  0.00  0.00    +0.000 C 
BRANCH   7   8
ATOM      8  C   UNL     1       3.762   7.270  17.639  0.00  0.00    +0.000 A 
ATOM      9  C   UNL     1       2.968   8.418  17.513  0.00  0.00    +0.000 A 
ATOM     10  C   UNL     1       1.968   8.696  18.450  0.00  0.00    +0.000 A 
ATOM     11  C   UNL     1       1.741   7.821  19.512  0.00  0.00    +0.000 A 
ATOM     12  C   UNL     1       2.514   6.670  19.642  0.00  0.00    +0.000 A 
ATOM     13  C   UNL     1       3.518   6.396  18.712  0.00  0.00    +0.000 A 
ENDBRANCH   7   8
ENDBRANCH   5   7
BRANCH   6  14
ATOM     14  C   UNL     1       5.188   3.168  17.345  0.00  0.00    +0.000 C 
BRANCH  14  15
ATOM     15  C   UNL     1       3.960   2.962  18.208  0.00  0.00    +0.000 A 
ATOM     16  C   UNL     1       2.692   2.830  17.615  0.00  0.00    +0.000 A 
ATOM     17  C   UNL     1       1.542   2.710  18.402  0.00  0.00    +0.000 A 
ATOM     18  C   UNL     1       1.656   2.677  19.786  0.00  0.00    +0.000 A 
ATOM     19  F   UNL     1       0.549   2.599  20.537  0.00  0.00    +0.000 F 
ATOM     20  C   UNL     1       2.909   2.723  20.382  0.00  0.00    +0.000 A 
ATOM     21  F   UNL     1       3.022   2.635  21.715  0.00  0.00    +0.000 F 
ATOM     22  C   UNL     1       4.060   2.863  19.606  0.00  0.00    +0.000 A 
ENDBRANCH  14  15
ENDBRANCH   6  14
TORSDOF 4
ENDMDL
MODEL 2
REMARK VINA RESULT:      -7.9      0.075      1.032
REMARK  Name = 
REMARK  4 active torsions:
REMARK  status: ('A' for Active; 'I' for Inactive)
REMARK    1  A    between atoms: C_5  and  C_6
REMARK    2  A    between atoms: C_6  and  C_7
REMARK    3  A    between atoms: C_13  and  C_14
REMARK    4  A    between atoms: C_14  and  C_15
REMARK                            x       y       z     vdW  Elec       q    Type
REMARK                         _______ _______ _______ _____ _____    ______ ____
ROOT
ATOM      1  O   UNL     1       8.060   4.182  17.323  0.00  0.00    +0.000 OA
ATOM      2  C   UNL     1       7.093   4.593  16.695  0.00  0.00    +0.000 C 
ATOM      3  O   UNL     1       7.158   5.047  15.419  0.00  0.00    +0.000 OA
ATOM      4  C   UNL     1       5.848   5.318  14.930  0.00  0.00    +0.000 C 
ATOM      5  C   UNL     1       4.962   5.472  16.154  0.00  0.00    +0.000 C 
ATOM      6  C   UNL     1       5.678   4.620  17.217  0.00  0.00    +0.000 C 
ENDROOT
BRANCH   5   7
ATOM      7  C   UNL     1       4.895   6.955  16.598  0.00  0.00    +0.000 C 
BRANCH   7   8
ATOM      8  C   UNL     1       3.818   7.241  17.623  0.00  0.00    +0.000 A 
ATOM      9  C   UNL     1       3.572   6.353  18.679  0.00  0.00    +0.000 A 
ATOM     10  C   UNL     1       2.547   6.606  19.595  0.00  0.00    +0.000 A 
ATOM     11  C   UNL     1       1.767   7.756  19.474  0.00  0.00    +0.000 A 
ATOM     12  C   UNL     1       2.009   8.653  18.437  0.00  0.00    +0.000 A 
ATOM     13  C   UNL     1       3.026   8.397  17.517  0.00  0.00    +0.000 A 
ENDBRANCH   7   8
ENDBRANCH   5   7
BRANCH   6  14
ATOM     14  C   UNL     1       5.211   3.160  17.382  0.00  0.00    +0.000 C 
BRANCH  14  15
ATOM     15  C   UNL     1       3.976   2.966  18.237  0.00  0.00    +0.000 A 
ATOM     16  C   UNL     1       2.702   2.929  17.642  0.00  0.00    +0.000 A 
ATOM     17  C   UNL     1       1.548   2.821  18.426  0.00  0.00    +0.000 A 
ATOM     18  C   UNL     1       1.662   2.705  19.806  0.00  0.00    +0.000 A 
ATOM     19  F   UNL     1       0.554   2.638  20.555  0.00  0.00    +0.000 F 
ATOM     20  C   UNL     1       2.917   2.656  20.399  0.00  0.00    +0.000 A 
ATOM     21  F   UNL     1       3.028   2.488  21.723  0.00  0.00    +0.000 F 
ATOM     22  C   UNL     1       4.072   2.783  19.626  0.00  0.00    +0.000 A 
ENDBRANCH  14  15
ENDBRANCH   6  14
TORSDOF 4
ENDMDL
MODEL 3
REMARK VINA RESULT:      -7.8      1.837      4.462
REMARK  Name = 
REMARK  4 active torsions:
REMARK  status: ('A' for Active; 'I' for Inactive)
REMARK    1  A    between atoms: C_5  and  C_6
REMARK    2  A    between atoms: C_6  and  C_7
REMARK    3  A    between atoms: C_13  and  C_14
REMARK    4  A    between atoms: C_14  and  C_15
REMARK                            x       y       z     vdW  Elec       q    Type
REMARK                         _______ _______ _______ _____ _____    ______ ____
ROOT
ATOM      1  O   UNL     1       5.285   5.251  14.678  0.00  0.00    +0.000 OA
ATOM      2  C   UNL     1       5.490   5.007  15.859  0.00  0.00    +0.000 C 
ATOM      3  O   UNL     1       6.636   4.456  16.330  0.00  0.00    +0.000 OA
ATOM      4  C   UNL     1       6.616   4.430  17.754  0.00  0.00    +0.000 C 
ATOM      5  C   UNL     1       5.157   4.557  18.160  0.00  0.00    +0.000 C 
ATOM      6  C   UNL     1       4.528   5.316  16.979  0.00  0.00    +0.000 C 
ENDROOT
BRANCH   5   7
ATOM      7  C   UNL     1       4.509   3.158  18.317  0.00  0.00    +0.000 C 
BRANCH   7   8
ATOM      8  C   UNL     1       3.277   3.148  19.197  0.00  0.00    +0.000 A 
ATOM      9  C   UNL     1       3.388   3.161  20.594  0.00  0.00    +0.000 A 
ATOM     10  C   UNL     1       2.244   3.109  21.396  0.00  0.00    +0.000 A 
ATOM     11  C   UNL     1       0.979   3.060  20.811  0.00  0.00    +0.000 A 
ATOM     12  C   UNL     1       0.854   3.059  19.425  0.00  0.00    +0.000 A 
ATOM     13  C   UNL     1       1.995   3.102  18.623  0.00  0.00    +0.000 A 
ENDBRANCH   7   8
ENDBRANCH   5   7
BRANCH   6  14
ATOM     14  C   UNL     1       4.426   6.849  17.100  0.00  0.00    +0.000 C 
BRANCH  14  15
ATOM     15  C   UNL     1       3.320   7.359  18.001  0.00  0.00    +0.000 A 
ATOM     16  C   UNL     1       2.645   8.552  17.687  0.00  0.00    +0.000 A 
ATOM     17  C   UNL     1       1.670   9.071  18.547  0.00  0.00    +0.000 A 
ATOM     18  C   UNL     1       1.333   8.379  19.703  0.00  0.00    +0.000 A 
ATOM     19  F   UNL     1       0.426   8.897  20.541  0.00  0.00    +0.000 F 
ATOM     20  C   UNL     1       1.933   7.158  19.982  0.00  0.00    +0.000 A 
ATOM     21  F   UNL     1       1.567   6.463  21.068  0.00  0.00    +0.000 F 
ATOM     22  C   UNL     1       2.920   6.642  19.141  0.00  0.00    +0.000 A 
ENDBRANCH  14  15
ENDBRANCH   6  14
TORSDOF 4
ENDMDL
MODEL 4
REMARK VINA RESULT:      -7.8      3.684      6.116
REMARK  Name = 
REMARK  4 active torsions:
REMARK  status: ('A' for Active; 'I' for Inactive)
REMARK    1  A    between atoms: C_5  and  C_6
REMARK    2  A    between atoms: C_6  and  C_7
REMARK    3  A    between atoms: C_13  and  C_14
REMARK    4  A    between atoms: C_14  and  C_15
REMARK                            x       y       z     vdW  Elec       q    Type
REMARK                         _______ _______ _______ _____ _____    ______ ____
ROOT
ATOM      1  O   UNL     1       7.932   4.426  18.080  0.00  0.00    +0.000 OA
ATOM      2  C   UNL     1       6.724   4.601  18.171  0.00  0.00    +0.000 C 
ATOM      3  O   UNL     1       6.107   5.033  19.299  0.00  0.00    +0.000 OA
ATOM      4  C   UNL     1       4.725   5.265  19.040  0.00  0.00    +0.000 C 
ATOM      5  C   UNL     1       4.392   4.481  17.782  0.00  0.00    +0.000 C 
ATOM      6  C   UNL     1       5.740   4.407  17.045  0.00  0.00    +0.000 C 
ENDROOT
BRANCH   5   7
ATOM      7  C   UNL     1       3.887   3.060  18.141  0.00  0.00    +0.000 C 
BRANCH   7   8
ATOM      8  C   UNL     1       2.952   3.024  19.331  0.00  0.00    +0.000 A 
ATOM      9  C   UNL     1       3.396   2.581  20.585  0.00  0.00    +0.000 A 
ATOM     10  C   UNL     1       2.513   2.512  21.666  0.00  0.00    +0.000 A 
ATOM     11  C   UNL     1       1.183   2.901  21.510  0.00  0.00    +0.000 A 
ATOM     12  C   UNL     1       0.732   3.355  20.274  0.00  0.00    +0.000 A 
ATOM     13  C   UNL     1       1.610   3.416  19.192  0.00  0.00    +0.000 A 
ENDBRANCH   7   8
ENDBRANCH   5   7
BRANCH   6  14
ATOM     14  C   UNL     1       6.023   5.488  15.983  0.00  0.00    +0.000 C 
BRANCH  14  15
ATOM     15  C   UNL     1       6.428   4.970  14.619  0.00  0.00    +0.000 A 
ATOM     16  C   UNL     1       7.577   5.474  13.983  0.00  0.00    +0.000 A 
ATOM     17  C   UNL     1       7.924   5.057  12.693  0.00  0.00    +0.000 A 
ATOM     18  C   UNL     1       7.148   4.101  12.048  0.00  0.00    +0.000 A 
ATOM     19  F   UNL     1       7.462   3.731  10.799  0.00  0.00    +0.000 F 
ATOM     20  C   UNL     1       6.059   3.535  12.697  0.00  0.00    +0.000 A 
ATOM     21  F   UNL     1       5.345   2.574  12.096  0.00  0.00    +0.000 F 
ATOM     22  C   UNL     1       5.695   3.960  13.976  0.00  0.00    +0.000 A 
ENDBRANCH  14  15
ENDBRANCH   6  14
TORSDOF 4
ENDMDL
MODEL 5
REMARK VINA RESULT:      -7.7      0.570      1.403
REMARK  Name = 
REMARK  4 active torsions:
REMARK  status: ('A' for Active; 'I' for Inactive)
REMARK    1  A    between atoms: C_5  and  C_6
REMARK    2  A    between atoms: C_6  and  C_7
REMARK    3  A    between atoms: C_13  and  C_14
REMARK    4  A    between atoms: C_14  and  C_15
REMARK                            x       y       z     vdW  Elec       q    Type
REMARK                         _______ _______ _______ _____ _____    ______ ____
ROOT
ATOM      1  O   UNL     1       7.956   4.348  17.070  0.00  0.00    +0.000 OA
ATOM      2  C   UNL     1       6.928   4.773  16.560  0.00  0.00    +0.000 C 
ATOM      3  O   UNL     1       6.861   5.277  15.303  0.00  0.00    +0.000 OA
ATOM      4  C   UNL     1       5.506   5.556  14.961  0.00  0.00    +0.000 C 
ATOM      5  C   UNL     1       4.748   5.653  16.275  0.00  0.00    +0.000 C 
ATOM      6  C   UNL     1       5.574   4.768  17.224  0.00  0.00    +0.000 C 
ENDROOT
BRANCH   5   7
ATOM      7  C   UNL     1       4.720   7.118  16.782  0.00  0.00    +0.000 C 
BRANCH   7   8
ATOM      8  C   UNL     1       3.605   7.405  17.765  0.00  0.00    +0.000 A 
ATOM      9  C   UNL     1       2.805   8.548  17.636  0.00  0.00    +0.000 A 
ATOM     10  C   UNL     1       1.806   8.824  18.574  0.00  0.00    +0.000 A 
ATOM     11  C   UNL     1       1.586   7.953  19.641  0.00  0.00    +0.000 A 
ATOM     12  C   UNL     1       2.365   6.807  19.774  0.00  0.00    +0.000 A 
ATOM     13  C   UNL     1       3.368   6.534  18.843  0.00  0.00    +0.000 A 
ENDBRANCH   7   8
ENDBRANCH   5   7
BRANCH   6  14
ATOM     14  C   UNL     1       5.133   3.298  17.378  0.00  0.00    +0.000 C 
BRANCH  14  15
ATOM     15  C   UNL     1       4.004   3.057  18.359  0.00  0.00    +0.000 A 
ATOM     16  C   UNL     1       4.257   3.052  19.742  0.00  0.00    +0.000 A 
ATOM     17  C   UNL     1       3.238   2.760  20.655  0.00  0.00    +0.000 A 
ATOM     18  C   UNL     1       1.950   2.515  20.194  0.00  0.00    +0.000 A 
ATOM     19  F   UNL     1       0.986   2.201  21.069  0.00  0.00    +0.000 F 
ATOM     20  C   UNL     1       1.669   2.599  18.837  0.00  0.00    +0.000 A 
ATOM     21  F   UNL     1       0.416   2.418  18.398  0.00  0.00    +0.000 F 
ATOM     22  C   UNL     1       2.684   2.870  17.918  0.00  0.00    +0.000 A 
ENDBRANCH  14  15
ENDBRANCH   6  14
TORSDOF 4
ENDMDL
MODEL 6
REMARK VINA RESULT:      -7.7      2.966      4.935
REMARK  Name = 
REMARK  4 active torsions:
REMARK  status: ('A' for Active; 'I' for Inactive)
REMARK    1  A    between atoms: C_5  and  C_6
REMARK    2  A    between atoms: C_6  and  C_7
REMARK    3  A    between atoms: C_13  and  C_14
REMARK    4  A    between atoms: C_14  and  C_15
REMARK                            x       y       z     vdW  Elec       q    Type
REMARK                         _______ _______ _______ _____ _____    ______ ____
ROOT
ATOM      1  O   UNL     1       4.643   2.198  20.526  0.00  0.00    +0.000 OA
ATOM      2  C   UNL     1       4.080   2.486  19.478  0.00  0.00    +0.000 C 
ATOM      3  O   UNL     1       3.616   1.569  18.593  0.00  0.00    +0.000 OA
ATOM      4  C   UNL     1       2.894   2.219  17.551  0.00  0.00    +0.000 C 
ATOM      5  C   UNL     1       3.343   3.671  17.565  0.00  0.00    +0.000 C 
ATOM      6  C   UNL     1       3.776   3.892  19.026  0.00  0.00    +0.000 C 
ENDROOT
BRANCH   5   7
ATOM      7  C   UNL     1       4.541   3.882  16.604  0.00  0.00    +0.000 C 
BRANCH   7   8
ATOM      8  C   UNL     1       5.525   4.932  17.072  0.00  0.00    +0.000 A 
ATOM      9  C   UNL     1       5.359   6.281  16.731  0.00  0.00    +0.000 A 
ATOM     10  C   UNL     1       6.297   7.236  17.134  0.00  0.00    +0.000 A 
ATOM     11  C   UNL     1       7.402   6.855  17.895  0.00  0.00    +0.000 A 
ATOM     12  C   UNL     1       7.573   5.520  18.252  0.00  0.00    +0.000 A 
ATOM     13  C   UNL     1       6.642   4.565  17.844  0.00  0.00    +0.000 A 
ENDBRANCH   7   8
ENDBRANCH   5   7
BRANCH   6  14
ATOM     14  C   UNL     1       2.725   4.478  19.990  0.00  0.00    +0.000 C 
BRANCH  14  15
ATOM     15  C   UNL     1       2.396   5.942  19.781  0.00  0.00    +0.000 A 
ATOM     16  C   UNL     1       1.843   6.699  20.829  0.00  0.00    +0.000 A 
ATOM     17  C   UNL     1       1.468   8.032  20.630  0.00  0.00    +0.000 A 
ATOM     18  C   UNL     1       1.684   8.630  19.394  0.00  0.00    +0.000 A 
ATOM     19  F   UNL     1       1.291   9.895  19.196  0.00  0.00    +0.000 F 
ATOM     20  C   UNL     1       2.305   7.919  18.377  0.00  0.00    +0.000 A 
ATOM     21  F   UNL     1       2.565   8.512  17.204  0.00  0.00    +0.000 F 
ATOM     22  C   UNL     1       2.664   6.582  18.561  0.00  0.00    +0.000 A 
ENDBRANCH  14  15
ENDBRANCH   6  14
TORSDOF 4
ENDMDL
MODEL 7
REMARK VINA RESULT:      -7.7      2.865      4.935
REMARK  Name = 
REMARK  4 active torsions:
REMARK  status: ('A' for Active; 'I' for Inactive)
REMARK    1  A    between atoms: C_5  and  C_6
REMARK    2  A    between atoms: C_6  and  C_7
REMARK    3  A    between atoms: C_13  and  C_14
REMARK    4  A    between atoms: C_14  and  C_15
REMARK                            x       y       z     vdW  Elec       q    Type
REMARK                         _______ _______ _______ _____ _____    ______ ____
ROOT
ATOM      1  O   UNL     1       4.717   2.258  20.536  0.00  0.00    +0.000 OA
ATOM      2  C   UNL     1       4.151   2.530  19.485  0.00  0.00    +0.000 C 
ATOM      3  O   UNL     1       3.673   1.599  18.623  0.00  0.00    +0.000 OA
ATOM      4  C   UNL     1       2.951   2.233  17.571  0.00  0.00    +0.000 C 
ATOM      5  C   UNL     1       3.415   3.681  17.552  0.00  0.00    +0.000 C 
ATOM      6  C   UNL     1       3.857   3.928  19.004  0.00  0.00    +0.000 C 
ENDROOT
BRANCH   5   7
ATOM      7  C   UNL     1       4.609   3.859  16.580  0.00  0.00    +0.000 C 
BRANCH   7   8
ATOM      8  C   UNL     1       5.623   4.886  17.036  0.00  0.00    +0.000 A 
ATOM      9  C   UNL     1       6.722   4.516  17.823  0.00  0.00    +0.000 A 
ATOM     10  C   UNL     1       7.629   5.479  18.274  0.00  0.00    +0.000 A 
ATOM     11  C   UNL     1       7.456   6.820  17.930  0.00  0.00    +0.000 A 
ATOM     12  C   UNL     1       6.376   7.200  17.138  0.00  0.00    +0.000 A 
ATOM     13  C   UNL     1       5.465   6.240  16.695  0.00  0.00    +0.000 A 
ENDBRANCH   7   8
ENDBRANCH   5   7
BRANCH   6  14
ATOM     14  C   UNL     1       2.818   4.545  19.962  0.00  0.00    +0.000 C 
BRANCH  14  15
ATOM     15  C   UNL     1       2.426   5.977  19.661  0.00  0.00    +0.000 A 
ATOM     16  C   UNL     1       2.581   6.496  18.363  0.00  0.00    +0.000 A 
ATOM     17  C   UNL     1       2.290   7.836  18.087  0.00  0.00    +0.000 A 
ATOM     18  C   UNL     1       1.800   8.655  19.097  0.00  0.00    +0.000 A 
ATOM     19  F   UNL     1       1.556   9.947  18.838  0.00  0.00    +0.000 F 
ATOM     20  C   UNL     1       1.563   8.134  20.362  0.00  0.00    +0.000 A 
ATOM     21  F   UNL     1       1.038   8.910  21.320  0.00  0.00    +0.000 F 
ATOM     22  C   UNL     1       1.870   6.804  20.651  0.00  0.00    +0.000 A 
ENDBRANCH  14  15
ENDBRANCH   6  14
TORSDOF 4
ENDMDL
MODEL 8
REMARK VINA RESULT:      -7.7      3.544      5.251
REMARK  Name = 
REMARK  4 active torsions:
REMARK  status: ('A' for Active; 'I' for Inactive)
REMARK    1  A    between atoms: C_5  and  C_6
REMARK    2  A    between atoms: C_6  and  C_7
REMARK    3  A    between atoms: C_13  and  C_14
REMARK    4  A    between atoms: C_14  and  C_15
REMARK                            x       y       z     vdW  Elec       q    Type
REMARK                         _______ _______ _______ _____ _____    ______ ____
ROOT
ATOM      1  O   UNL     1       0.324   2.216  18.833  0.00  0.00    +0.000 OA
ATOM      2  C   UNL     1       1.107   2.847  19.530  0.00  0.00    +0.000 C 
ATOM      3  O   UNL     1       1.247   2.663  20.866  0.00  0.00    +0.000 OA
ATOM      4  C   UNL     1       2.331   3.447  21.355  0.00  0.00    +0.000 C 
ATOM      5  C   UNL     1       2.572   4.532  20.319  0.00  0.00    +0.000 C 
ATOM      6  C   UNL     1       2.065   3.891  19.014  0.00  0.00    +0.000 C 
ENDROOT
BRANCH   5   7
ATOM      7  C   UNL     1       1.751   5.803  20.656  0.00  0.00    +0.000 C 
BRANCH   7   8
ATOM      8  C   UNL     1       1.996   6.960  19.711  0.00  0.00    +0.000 A 
ATOM      9  C   UNL     1       1.338   8.185  19.884  0.00  0.00    +0.000 A 
ATOM     10  C   UNL     1       1.539   9.232  18.981  0.00  0.00    +0.000 A 
ATOM     11  C   UNL     1       2.412   9.072  17.905  0.00  0.00    +0.000 A 
ATOM     12  C   UNL     1       3.082   7.864  17.728  0.00  0.00    +0.000 A 
ATOM     13  C   UNL     1       2.875   6.815  18.624  0.00  0.00    +0.000 A 
ENDBRANCH   7   8
ENDBRANCH   5   7
BRANCH   6  14
ATOM     14  C   UNL     1       3.107   3.177  18.130  0.00  0.00    +0.000 C 
BRANCH  14  15
ATOM     15  C   UNL     1       4.305   4.013  17.732  0.00  0.00    +0.000 A 
ATOM     16  C   UNL     1       5.370   4.198  18.632  0.00  0.00    +0.000 A 
ATOM     17  C   UNL     1       6.450   5.025  18.305  0.00  0.00    +0.000 A 
ATOM     18  C   UNL     1       6.494   5.638  17.059  0.00  0.00    +0.000 A 
ATOM     19  F   UNL     1       7.511   6.457  16.763  0.00  0.00    +0.000 F 
ATOM     20  C   UNL     1       5.491   5.398  16.129  0.00  0.00    +0.000 A 
ATOM     21  F   UNL     1       5.562   5.944  14.908  0.00  0.00    +0.000 F 
ATOM     22  C   UNL     1       4.400   4.590  16.455  0.00  0.00    +0.000 A 
ENDBRANCH  14  15
ENDBRANCH   6  14
TORSDOF 4
ENDMDL
MODEL 9
REMARK VINA RESULT:      -7.7      4.117      6.010
REMARK  Name = 
REMARK  4 active torsions:
REMARK  status: ('A' for Active; 'I' for Inactive)
REMARK    1  A    between atoms: C_5  and  C_6
REMARK    2  A    between atoms: C_6  and  C_7
REMARK    3  A    between atoms: C_13  and  C_14
REMARK    4  A    between atoms: C_14  and  C_15
REMARK                            x       y       z     vdW  Elec       q    Type
REMARK                         _______ _______ _______ _____ _____    ______ ____
ROOT
ATOM      1  O   UNL     1       8.239   4.187  17.024  0.00  0.00    +0.000 OA
ATOM      2  C   UNL     1       7.310   4.551  17.733  0.00  0.00    +0.000 C 
ATOM      3  O   UNL     1       7.469   5.111  18.957  0.00  0.00    +0.000 OA
ATOM      4  C   UNL     1       6.210   5.548  19.461  0.00  0.00    +0.000 C 
ATOM      5  C   UNL     1       5.153   4.784  18.681  0.00  0.00    +0.000 C 
ATOM      6  C   UNL     1       5.855   4.475  17.347  0.00  0.00    +0.000 C 
ENDROOT
BRANCH   5   7
ATOM      7  C   UNL     1       4.775   3.472  19.414  0.00  0.00    +0.000 C 
BRANCH   7   8
ATOM      8  C   UNL     1       3.283   3.257  19.556  0.00  0.00    +0.000 A 
ATOM      9  C   UNL     1       2.695   3.079  20.816  0.00  0.00    +0.000 A 
ATOM     10  C   UNL     1       1.323   2.840  20.931  0.00  0.00    +0.000 A 
ATOM     11  C   UNL     1       0.521   2.792  19.790  0.00  0.00    +0.000 A 
ATOM     12  C   UNL     1       1.090   2.979  18.533  0.00  0.00    +0.000 A 
ATOM     13  C   UNL     1       2.461   3.210  18.417  0.00  0.00    +0.000 A 
ENDBRANCH   7   8
ENDBRANCH   5   7
BRANCH   6  14
ATOM     14  C   UNL     1       5.625   5.463  16.185  0.00  0.00    +0.000 C 
BRANCH  14  15
ATOM     15  C   UNL     1       6.106   4.994  14.828  0.00  0.00    +0.000 A 
ATOM     16  C   UNL     1       5.402   3.993  14.135  0.00  0.00    +0.000 A 
ATOM     17  C   UNL     1       5.873   3.500  12.913  0.00  0.00    +0.000 A 
ATOM     18  C   UNL     1       7.027   4.035  12.355  0.00  0.00    +0.000 A 
ATOM     19  F   UNL     1       7.495   3.536  11.203  0.00  0.00    +0.000 F 
ATOM     20  C   UNL     1       7.686   5.081  12.987  0.00  0.00    +0.000 A 
ATOM     21  F   UNL     1       8.766   5.635  12.421  0.00  0.00    +0.000 F 
ATOM     22  C   UNL     1       7.233   5.566  14.216  0.00  0.00    +0.000 A 
ENDBRANCH  14  15
ENDBRANCH   6  14
TORSDOF 4
ENDMDL
