MODEL 1
REMARK VINA RESULT:      -7.6      0.000      0.000
REMARK  Name = 
REMARK  21 active torsions:
REMARK  status: ('A' for Active; 'I' for Inactive)
REMARK    1  A    between atoms: C_1  and  C_2
REMARK    2  A    between atoms: C_2  and  C_3
REMARK    3  A    between atoms: C_3  and  C_4
REMARK    4  A    between atoms: C_4  and  C_5
REMARK    5  A    between atoms: C_5  and  C_6
REMARK    6  A    between atoms: C_6  and  C_7
REMARK    7  A    between atoms: C_7  and  C_8
REMARK    8  A    between atoms: C_11  and  C_12
REMARK    9  A    between atoms: C_12  and  C_13
REMARK   10  A    between atoms: C_14  and  C_15
REMARK   11  A    between atoms: C_15  and  S_16
REMARK   12  A    between atoms: C_15  and  C_26
REMARK   13  A    between atoms: S_16  and  C_17
REMARK   14  A    between atoms: C_21  and  C_22
REMARK   15  A    between atoms: C_22  and  O_24
REMARK   16  A    between atoms: C_26  and  O_27
REMARK   17  A    between atoms: C_26  and  C_28
REMARK   18  A    between atoms: C_28  and  C_29
REMARK   19  A    between atoms: C_29  and  C_30
REMARK   20  A    between atoms: C_30  and  C_31
REMARK   21  A    between atoms: C_31  and  O_33
REMARK                            x       y       z     vdW  Elec       q    Type
REMARK                         _______ _______ _______ _____ _____    ______ ____
ROOT
ATOM      1  C   UNL     1       6.037   6.345  17.932  0.00  0.00    +0.000 C 
ENDROOT
BRANCH   1   3
ATOM      2  C   UNL     1       3.594   7.106  17.521  0.00  0.00    +0.000 C 
ATOM      3  C   UNL     1       4.864   6.892  17.136  0.00  0.00    +0.000 C 
BRANCH   2   4
ATOM      4  C   UNL     1       2.940   6.831  18.849  0.00  0.00    +0.000 C 
BRANCH   4   8
ATOM      5  C   UNL     1       0.318  10.036  20.179  0.00  0.00    +0.000 A 
ATOM      6  C   UNL     1       0.860  10.033  18.889  0.00  0.00    +0.000 A 
ATOM      7  C   UNL     1       1.705   9.000  18.471  0.00  0.00    +0.000 A 
ATOM      8  C   UNL     1       2.052   7.959  19.344  0.00  0.00    +0.000 A 
ATOM      9  C   UNL     1       1.513   7.970  20.638  0.00  0.00    +0.000 A 
ATOM     10  C   UNL     1       0.662   9.001  21.054  0.00  0.00    +0.000 A 
BRANCH   5  11
ATOM     11  C   UNL     1      -0.643  11.122  20.605  0.00  0.00    +0.000 C 
BRANCH  11  12
ATOM     12  C   UNL     1      -0.958  12.075  19.447  0.00  0.00    +0.000 C 
BRANCH  12  13
ATOM     13  C   UNL     1      -2.310  11.770  18.806  0.00  0.00    +0.000 C 
BRANCH  13  14
ATOM     14  C   UNL     1      -2.167  10.706  17.716  0.00  0.00    +0.000 C 
BRANCH  14  15
ATOM     15  C   UNL     1      -3.533  10.254  17.204  0.00  0.00    +0.000 C 
BRANCH  15  17
ATOM     16  C   UNL     1      -3.474  10.146  14.695  0.00  0.00    +0.000 C 
ATOM     17  C   UNL     1      -3.908  10.960  15.903  0.00  0.00    +0.000 C 
ENDBRANCH  15  17
ENDBRANCH  14  15
ENDBRANCH  13  14
ENDBRANCH  12  13
ENDBRANCH  11  12
ENDBRANCH   5  11
ENDBRANCH   4   8
ENDBRANCH   2   4
ENDBRANCH   1   3
BRANCH   1  18
ATOM     18  S   UNL     1       6.108   4.512  17.699  0.00  0.00    +0.000 S 
BRANCH  18  19
ATOM     19  C   UNL     1       4.505   3.845  18.126  0.00  0.00    +0.000 A 
ATOM     20  C   UNL     1       3.687   3.505  17.037  0.00  0.00    +0.000 A 
ATOM     21  C   UNL     1       2.383   3.042  17.222  0.00  0.00    +0.000 A 
ATOM     22  C   UNL     1       1.894   2.859  18.510  0.00  0.00    +0.000 A 
ATOM     23  C   UNL     1       2.722   3.104  19.610  0.00  0.00    +0.000 A 
ATOM     24  C   UNL     1       4.019   3.613  19.417  0.00  0.00    +0.000 A 
BRANCH  23  25
ATOM     25  C   UNL     1       2.160   2.841  20.960  0.00  0.00    +0.000 C 
ATOM     26  O   UNL     1       2.856   2.557  21.919  0.00  0.00    +0.000 OA
BRANCH  25  27
ATOM     27  O   UNL     1       0.825   3.004  21.041  0.00  0.00    +0.000 OA
ATOM     28  H   UNL     1       0.366   2.400  21.653  0.00  0.00    +0.000 HD
ENDBRANCH  25  27
ENDBRANCH  23  25
ENDBRANCH  18  19
ENDBRANCH   1  18
BRANCH   1  29
ATOM     29  C   UNL     1       7.354   7.144  17.670  0.00  0.00    +0.000 C 
BRANCH  29  30
ATOM     30  O   UNL     1       7.857   6.807  16.365  0.00  0.00    +0.000 OA
ATOM     31  H   UNL     1       7.256   6.157  15.960  0.00  0.00    +0.000 HD
ENDBRANCH  29  30
BRANCH  29  32
ATOM     32  C   UNL     1       7.248   8.678  17.758  0.00  0.00    +0.000 C 
BRANCH  32  33
ATOM     33  C   UNL     1       8.649   9.317  17.797  0.00  0.00    +0.000 C 
BRANCH  33  34
ATOM     34  C   UNL     1       9.014   9.859  19.178  0.00  0.00    +0.000 C 
BRANCH  34  35
ATOM     35  C   UNL     1      10.029  10.984  19.094  0.00  0.00    +0.000 C 
ATOM     36  O   UNL     1      10.581  11.358  18.071  0.00  0.00    +0.000 OA
BRANCH  35  37
ATOM     37  O   UNL     1      10.264  11.549  20.297  0.00  0.00    +0.000 OA
ATOM     38  H   UNL     1       9.531  11.441  20.929  0.00  0.00    +0.000 HD
ENDBRANCH  35  37
ENDBRANCH  34  35
ENDBRANCH  33  34
ENDBRANCH  32  33
ENDBRANCH  29  32
ENDBRANCH   1  29
TORSDOF 20
ENDMDL
MODEL 2
REMARK VINA RESULT:      -7.4      4.809      7.841
REMARK  Name = 
REMARK  21 active torsions:
REMARK  status: ('A' for Active; 'I' for Inactive)
REMARK    1  A    between atoms: C_1  and  C_2
REMARK    2  A    between atoms: C_2  and  C_3
REMARK    3  A    between atoms: C_3  and  C_4
REMARK    4  A    between atoms: C_4  and  C_5
REMARK    5  A    between atoms: C_5  and  C_6
REMARK    6  A    between atoms: C_6  and  C_7
REMARK    7  A    between atoms: C_7  and  C_8
REMARK    8  A    between atoms: C_11  and  C_12
REMARK    9  A    between atoms: C_12  and  C_13
REMARK   10  A    between atoms: C_14  and  C_15
REMARK   11  A    between atoms: C_15  and  S_16
REMARK   12  A    between atoms: C_15  and  C_26
REMARK   13  A    between atoms: S_16  and  C_17
REMARK   14  A    between atoms: C_21  and  C_22
REMARK   15  A    between atoms: C_22  and  O_24
REMARK   16  A    between atoms: C_26  and  O_27
REMARK   17  A    between atoms: C_26  and  C_28
REMARK   18  A    between atoms: C_28  and  C_29
REMARK   19  A    between atoms: C_29  and  C_30
REMARK   20  A    between atoms: C_30  and  C_31
REMARK   21  A    between atoms: C_31  and  O_33
REMARK                            x       y       z     vdW  Elec       q    Type
REMARK                         _______ _______ _______ _____ _____    ______ ____
ROOT
ATOM      1  C   UNL     1       6.294   5.068  17.708  0.00  0.00    +0.000 C 
ENDROOT
BRANCH   1   3
ATOM      2  C   UNL     1       7.995   6.844  18.525  0.00  0.00    +0.000 C 
ATOM      3  C   UNL     1       7.427   5.627  18.554  0.00  0.00    +0.000 C 
BRANCH   2   4
ATOM      4  C   UNL     1       7.707   8.012  17.618  0.00  0.00    +0.000 C 
BRANCH   4   8
ATOM      5  C   UNL     1       9.492  11.733  18.993  0.00  0.00    +0.000 A 
ATOM      6  C   UNL     1       9.692  10.534  19.687  0.00  0.00    +0.000 A 
ATOM      7  C   UNL     1       9.112   9.343  19.239  0.00  0.00    +0.000 A 
ATOM      8  C   UNL     1       8.292   9.327  18.102  0.00  0.00    +0.000 A 
ATOM      9  C   UNL     1       8.087  10.531  17.414  0.00  0.00    +0.000 A 
ATOM     10  C   UNL     1       8.674  11.722  17.859  0.00  0.00    +0.000 A 
BRANCH   5  11
ATOM     11  C   UNL     1      10.171  13.004  19.446  0.00  0.00    +0.000 C 
BRANCH  11  12
ATOM     12  C   UNL     1       9.147  14.082  19.817  0.00  0.00    +0.000 C 
BRANCH  12  13
ATOM     13  C   UNL     1       8.231  13.636  20.955  0.00  0.00    +0.000 C 
BRANCH  13  14
ATOM     14  C   UNL     1       9.024  13.459  22.252  0.00  0.00    +0.000 C 
BRANCH  14  15
ATOM     15  C   UNL     1       8.818  12.064  22.838  0.00  0.00    +0.000 C 
BRANCH  15  17
ATOM     16  C   UNL     1       6.900  11.708  24.421  0.00  0.00    +0.000 C 
ATOM     17  C   UNL     1       8.356  12.128  24.293  0.00  0.00    +0.000 C 
ENDBRANCH  15  17
ENDBRANCH  14  15
ENDBRANCH  13  14
ENDBRANCH  12  13
ENDBRANCH  11  12
ENDBRANCH   5  11
ENDBRANCH   4   8
ENDBRANCH   2   4
ENDBRANCH   1   3
BRANCH   1  18
ATOM     18  S   UNL     1       4.766   6.056  18.036  0.00  0.00    +0.000 S 
BRANCH  18  19
ATOM     19  C   UNL     1       3.493   4.926  18.582  0.00  0.00    +0.000 A 
ATOM     20  C   UNL     1       2.486   4.657  17.640  0.00  0.00    +0.000 A 
ATOM     21  C   UNL     1       1.391   3.850  17.956  0.00  0.00    +0.000 A 
ATOM     22  C   UNL     1       1.314   3.253  19.208  0.00  0.00    +0.000 A 
ATOM     23  C   UNL     1       2.351   3.433  20.130  0.00  0.00    +0.000 A 
ATOM     24  C   UNL     1       3.429   4.283  19.822  0.00  0.00    +0.000 A 
BRANCH  23  25
ATOM     25  C   UNL     1       2.237   2.728  21.433  0.00  0.00    +0.000 C 
ATOM     26  O   UNL     1       3.205   2.298  22.036  0.00  0.00    +0.000 OA
BRANCH  25  27
ATOM     27  O   UNL     1       0.980   2.660  21.913  0.00  0.00    +0.000 OA
ATOM     28  H   UNL     1       0.291   2.450  21.257  0.00  0.00    +0.000 HD
ENDBRANCH  25  27
ENDBRANCH  23  25
ENDBRANCH  18  19
ENDBRANCH   1  18
BRANCH   1  29
ATOM     29  C   UNL     1       6.710   4.881  16.214  0.00  0.00    +0.000 C 
BRANCH  29  30
ATOM     30  O   UNL     1       8.075   4.431  16.157  0.00  0.00    +0.000 OA
ATOM     31  H   UNL     1       8.656   5.211  16.131  0.00  0.00    +0.000 HD
ENDBRANCH  29  30
BRANCH  29  32
ATOM     32  C   UNL     1       5.852   3.905  15.386  0.00  0.00    +0.000 C 
BRANCH  32  33
ATOM     33  C   UNL     1       5.182   4.636  14.207  0.00  0.00    +0.000 C 
BRANCH  33  34
ATOM     34  C   UNL     1       5.129   3.787  12.938  0.00  0.00    +0.000 C 
BRANCH  34  35
ATOM     35  C   UNL     1       6.514   3.535  12.369  0.00  0.00    +0.000 C 
ATOM     36  O   UNL     1       7.391   4.377  12.255  0.00  0.00    +0.000 OA
BRANCH  35  37
ATOM     37  O   UNL     1       6.685   2.250  11.995  0.00  0.00    +0.000 OA
ATOM     38  H   UNL     1       6.449   1.607  12.689  0.00  0.00    +0.000 HD
ENDBRANCH  35  37
ENDBRANCH  34  35
ENDBRANCH  33  34
ENDBRANCH  32  33
ENDBRANCH  29  32
ENDBRANCH   1  29
TORSDOF 20
ENDMDL
MODEL 3
REMARK VINA RESULT:      -7.4      1.471      2.641
REMARK  Name = 
REMARK  21 active torsions:
REMARK  status: ('A' for Active; 'I' for Inactive)
REMARK    1  A    between atoms: C_1  and  C_2
REMARK    2  A    between atoms: C_2  and  C_3
REMARK    3  A    between atoms: C_3  and  C_4
REMARK    4  A    between atoms: C_4  and  C_5
REMARK    5  A    between atoms: C_5  and  C_6
REMARK    6  A    between atoms: C_6  and  C_7
REMARK    7  A    between atoms: C_7  and  C_8
REMARK    8  A    between atoms: C_11  and  C_12
REMARK    9  A    between atoms: C_12  and  C_13
REMARK   10  A    between atoms: C_14  and  C_15
REMARK   11  A    between atoms: C_15  and  S_16
REMARK   12  A    between atoms: C_15  and  C_26
REMARK   13  A    between atoms: S_16  and  C_17
REMARK   14  A    between atoms: C_21  and  C_22
REMARK   15  A    between atoms: C_22  and  O_24
REMARK   16  A    between atoms: C_26  and  O_27
REMARK   17  A    between atoms: C_26  and  C_28
REMARK   18  A    between atoms: C_28  and  C_29
REMARK   19  A    between atoms: C_29  and  C_30
REMARK   20  A    between atoms: C_30  and  C_31
REMARK   21  A    between atoms: C_31  and  O_33
REMARK                            x       y       z     vdW  Elec       q    Type
REMARK                         _______ _______ _______ _____ _____    ______ ____
ROOT
ATOM      1  C   UNL     1       5.957   6.269  17.886  0.00  0.00    +0.000 C 
ENDROOT
BRANCH   1   3
ATOM      2  C   UNL     1       3.568   7.185  17.477  0.00  0.00    +0.000 C 
ATOM      3  C   UNL     1       4.786   6.792  17.069  0.00  0.00    +0.000 C 
BRANCH   2   4
ATOM      4  C   UNL     1       2.979   7.189  18.863  0.00  0.00    +0.000 C 
BRANCH   4   8
ATOM      5  C   UNL     1      -0.134  10.161  19.494  0.00  0.00    +0.000 A 
ATOM      6  C   UNL     1       0.370   9.403  20.558  0.00  0.00    +0.000 A 
ATOM      7  C   UNL     1       1.369   8.448  20.345  0.00  0.00    +0.000 A 
ATOM      8  C   UNL     1       1.867   8.205  19.058  0.00  0.00    +0.000 A 
ATOM      9  C   UNL     1       1.354   8.960  17.993  0.00  0.00    +0.000 A 
ATOM     10  C   UNL     1       0.359   9.921  18.208  0.00  0.00    +0.000 A 
BRANCH   5  11
ATOM     11  C   UNL     1      -1.169  11.234  19.739  0.00  0.00    +0.000 C 
BRANCH  11  12
ATOM     12  C   UNL     1      -0.902  11.978  21.052  0.00  0.00    +0.000 C 
BRANCH  12  13
ATOM     13  C   UNL     1      -0.547  13.445  20.817  0.00  0.00    +0.000 C 
BRANCH  13  14
ATOM     14  C   UNL     1       0.865  13.750  21.323  0.00  0.00    +0.000 C 
BRANCH  14  15
ATOM     15  C   UNL     1       1.920  13.074  20.451  0.00  0.00    +0.000 C 
BRANCH  15  17
ATOM     16  C   UNL     1       2.701  12.654  18.100  0.00  0.00    +0.000 C 
ATOM     17  C   UNL     1       1.786  13.485  18.986  0.00  0.00    +0.000 C 
ENDBRANCH  15  17
ENDBRANCH  14  15
ENDBRANCH  13  14
ENDBRANCH  12  13
ENDBRANCH  11  12
ENDBRANCH   5  11
ENDBRANCH   4   8
ENDBRANCH   2   4
ENDBRANCH   1   3
BRANCH   1  18
ATOM     18  S   UNL     1       6.032   4.431  17.703  0.00  0.00    +0.000 S 
BRANCH  18  19
ATOM     19  C   UNL     1       4.441   3.770  18.181  0.00  0.00    +0.000 A 
ATOM     20  C   UNL     1       3.592   3.422  17.118  0.00  0.00    +0.000 A 
ATOM     21  C   UNL     1       2.294   2.961  17.344  0.00  0.00    +0.000 A 
ATOM     22  C   UNL     1       1.841   2.790  18.647  0.00  0.00    +0.000 A 
ATOM     23  C   UNL     1       2.700   3.043  19.721  0.00  0.00    +0.000 A 
ATOM     24  C   UNL     1       3.992   3.549  19.487  0.00  0.00    +0.000 A 
BRANCH  23  25
ATOM     25  C   UNL     1       2.176   2.793  21.089  0.00  0.00    +0.000 C 
ATOM     26  O   UNL     1       1.004   2.948  21.383  0.00  0.00    +0.000 OA
BRANCH  25  27
ATOM     27  O   UNL     1       3.098   2.325  21.953  0.00  0.00    +0.000 OA
ATOM     28  H   UNL     1       3.204   1.357  21.968  0.00  0.00    +0.000 HD
ENDBRANCH  25  27
ENDBRANCH  23  25
ENDBRANCH  18  19
ENDBRANCH   1  18
BRANCH   1  29
ATOM     29  C   UNL     1       7.273   7.063  17.607  0.00  0.00    +0.000 C 
BRANCH  29  30
ATOM     30  O   UNL     1       7.777   6.699  16.309  0.00  0.00    +0.000 OA
ATOM     31  H   UNL     1       7.164   7.037  15.634  0.00  0.00    +0.000 HD
ENDBRANCH  29  30
BRANCH  29  32
ATOM     32  C   UNL     1       7.167   8.599  17.662  0.00  0.00    +0.000 C 
BRANCH  32  33
ATOM     33  C   UNL     1       8.567   9.239  17.720  0.00  0.00    +0.000 C 
BRANCH  33  34
ATOM     34  C   UNL     1       8.958   9.677  19.131  0.00  0.00    +0.000 C 
BRANCH  34  35
ATOM     35  C   UNL     1       9.759  10.967  19.120  0.00  0.00    +0.000 C 
ATOM     36  O   UNL     1      10.033  11.633  20.106  0.00  0.00    +0.000 OA
BRANCH  35  37
ATOM     37  O   UNL     1      10.154  11.311  17.876  0.00  0.00    +0.000 OA
ATOM     38  H   UNL     1      10.934  11.894  17.861  0.00  0.00    +0.000 HD
ENDBRANCH  35  37
ENDBRANCH  34  35
ENDBRANCH  33  34
ENDBRANCH  32  33
ENDBRANCH  29  32
ENDBRANCH   1  29
TORSDOF 20
ENDMDL
MODEL 4
REMARK VINA RESULT:      -7.3      1.738      3.100
REMARK  Name = 
REMARK  21 active torsions:
REMARK  status: ('A' for Active; 'I' for Inactive)
REMARK    1  A    between atoms: C_1  and  C_2
REMARK    2  A    between atoms: C_2  and  C_3
REMARK    3  A    between atoms: C_3  and  C_4
REMARK    4  A    between atoms: C_4  and  C_5
REMARK    5  A    between atoms: C_5  and  C_6
REMARK    6  A    between atoms: C_6  and  C_7
REMARK    7  A    between atoms: C_7  and  C_8
REMARK    8  A    between atoms: C_11  and  C_12
REMARK    9  A    between atoms: C_12  and  C_13
REMARK   10  A    between atoms: C_14  and  C_15
REMARK   11  A    between atoms: C_15  and  S_16
REMARK   12  A    between atoms: C_15  and  C_26
REMARK   13  A    between atoms: S_16  and  C_17
REMARK   14  A    between atoms: C_21  and  C_22
REMARK   15  A    between atoms: C_22  and  O_24
REMARK   16  A    between atoms: C_26  and  O_27
REMARK   17  A    between atoms: C_26  and  C_28
REMARK   18  A    between atoms: C_28  and  C_29
REMARK   19  A    between atoms: C_29  and  C_30
REMARK   20  A    between atoms: C_30  and  C_31
REMARK   21  A    between atoms: C_31  and  O_33
REMARK                            x       y       z     vdW  Elec       q    Type
REMARK                         _______ _______ _______ _____ _____    ______ ____
ROOT
ATOM      1  C   UNL     1       5.647   5.538  17.640  0.00  0.00    +0.000 C 
ENDROOT
BRANCH   1   3
ATOM      2  C   UNL     1       3.723   7.272  17.533  0.00  0.00    +0.000 C 
ATOM      3  C   UNL     1       4.779   6.620  17.017  0.00  0.00    +0.000 C 
BRANCH   2   4
ATOM      4  C   UNL     1       3.056   7.100  18.872  0.00  0.00    +0.000 C 
BRANCH   4   8
ATOM      5  C   UNL     1      -0.061  10.038  19.635  0.00  0.00    +0.000 A 
ATOM      6  C   UNL     1       0.552   9.942  18.380  0.00  0.00    +0.000 A 
ATOM      7  C   UNL     1       1.555   8.996  18.145  0.00  0.00    +0.000 A 
ATOM      8  C   UNL     1       1.992   8.143  19.168  0.00  0.00    +0.000 A 
ATOM      9  C   UNL     1       1.381   8.247  20.426  0.00  0.00    +0.000 A 
ATOM     10  C   UNL     1       0.372   9.189  20.659  0.00  0.00    +0.000 A 
BRANCH   5  11
ATOM     11  C   UNL     1      -1.186  11.018  19.866  0.00  0.00    +0.000 C 
BRANCH  11  12
ATOM     12  C   UNL     1      -0.650  12.411  20.218  0.00  0.00    +0.000 C 
BRANCH  12  13
ATOM     13  C   UNL     1      -0.466  12.590  21.723  0.00  0.00    +0.000 C 
BRANCH  13  14
ATOM     14  C   UNL     1       0.167  13.948  22.035  0.00  0.00    +0.000 C 
BRANCH  14  15
ATOM     15  C   UNL     1      -0.850  14.899  22.663  0.00  0.00    +0.000 C 
BRANCH  15  17
ATOM     16  C   UNL     1      -2.883  14.242  23.985  0.00  0.00    +0.000 C 
ATOM     17  C   UNL     1      -1.367  14.366  23.998  0.00  0.00    +0.000 C 
ENDBRANCH  15  17
ENDBRANCH  14  15
ENDBRANCH  13  14
ENDBRANCH  12  13
ENDBRANCH  11  12
ENDBRANCH   5  11
ENDBRANCH   4   8
ENDBRANCH   2   4
ENDBRANCH   1   3
BRANCH   1  18
ATOM     18  S   UNL     1       4.988   3.886  17.135  0.00  0.00    +0.000 S 
BRANCH  18  19
ATOM     19  C   UNL     1       3.519   3.565  18.102  0.00  0.00    +0.000 A 
ATOM     20  C   UNL     1       2.304   3.706  17.413  0.00  0.00    +0.000 A 
ATOM     21  C   UNL     1       1.077   3.557  18.062  0.00  0.00    +0.000 A 
ATOM     22  C   UNL     1       1.048   3.208  19.407  0.00  0.00    +0.000 A 
ATOM     23  C   UNL     1       2.245   2.972  20.091  0.00  0.00    +0.000 A 
ATOM     24  C   UNL     1       3.478   3.168  19.443  0.00  0.00    +0.000 A 
BRANCH  23  25
ATOM     25  C   UNL     1       2.148   2.552  21.513  0.00  0.00    +0.000 C 
ATOM     26  O   UNL     1       1.102   2.580  22.138  0.00  0.00    +0.000 OA
BRANCH  25  27
ATOM     27  O   UNL     1       3.302   2.085  22.028  0.00  0.00    +0.000 OA
ATOM     28  H   UNL     1       3.665   2.595  22.774  0.00  0.00    +0.000 HD
ENDBRANCH  25  27
ENDBRANCH  23  25
ENDBRANCH  18  19
ENDBRANCH   1  18
BRANCH   1  29
ATOM     29  C   UNL     1       7.169   5.795  17.407  0.00  0.00    +0.000 C 
BRANCH  29  30
ATOM     30  O   UNL     1       7.381   6.153  16.030  0.00  0.00    +0.000 OA
ATOM     31  H   UNL     1       7.086   5.414  15.470  0.00  0.00    +0.000 HD
ENDBRANCH  29  30
BRANCH  29  32
ATOM     32  C   UNL     1       7.819   6.880  18.286  0.00  0.00    +0.000 C 
BRANCH  32  33
ATOM     33  C   UNL     1       8.289   8.068  17.426  0.00  0.00    +0.000 C 
BRANCH  33  34
ATOM     34  C   UNL     1       7.875   9.419  18.007  0.00  0.00    +0.000 C 
BRANCH  34  35
ATOM     35  C   UNL     1       9.073  10.217  18.491  0.00  0.00    +0.000 C 
ATOM     36  O   UNL     1       9.715  11.003  17.813  0.00  0.00    +0.000 OA
BRANCH  35  37
ATOM     37  O   UNL     1       9.363   9.966  19.785  0.00  0.00    +0.000 OA
ATOM     38  H   UNL     1       8.732  10.366  20.411  0.00  0.00    +0.000 HD
ENDBRANCH  35  37
ENDBRANCH  34  35
ENDBRANCH  33  34
ENDBRANCH  32  33
ENDBRANCH  29  32
ENDBRANCH   1  29
TORSDOF 20
ENDMDL
MODEL 5
REMARK VINA RESULT:      -7.2      2.690      6.195
REMARK  Name = 
REMARK  21 active torsions:
REMARK  status: ('A' for Active; 'I' for Inactive)
REMARK    1  A    between atoms: C_1  and  C_2
REMARK    2  A    between atoms: C_2  and  C_3
REMARK    3  A    between atoms: C_3  and  C_4
REMARK    4  A    between atoms: C_4  and  C_5
REMARK    5  A    between atoms: C_5  and  C_6
REMARK    6  A    between atoms: C_6  and  C_7
REMARK    7  A    between atoms: C_7  and  C_8
REMARK    8  A    between atoms: C_11  and  C_12
REMARK    9  A    between atoms: C_12  and  C_13
REMARK   10  A    between atoms: C_14  and  C_15
REMARK   11  A    between atoms: C_15  and  S_16
REMARK   12  A    between atoms: C_15  and  C_26
REMARK   13  A    between atoms: S_16  and  C_17
REMARK   14  A    between atoms: C_21  and  C_22
REMARK   15  A    between atoms: C_22  and  O_24
REMARK   16  A    between atoms: C_26  and  O_27
REMARK   17  A    between atoms: C_26  and  C_28
REMARK   18  A    between atoms: C_28  and  C_29
REMARK   19  A    between atoms: C_29  and  C_30
REMARK   20  A    between atoms: C_30  and  C_31
REMARK   21  A    between atoms: C_31  and  O_33
REMARK                            x       y       z     vdW  Elec       q    Type
REMARK                         _______ _______ _______ _____ _____    ______ ____
ROOT
ATOM      1  C   UNL     1       2.076   4.607  18.034  0.00  0.00    +0.000 C 
ENDROOT
BRANCH   1   3
ATOM      2  C   UNL     1       2.808   6.871  19.061  0.00  0.00    +0.000 C 
ATOM      3  C   UNL     1       2.765   5.529  19.028  0.00  0.00    +0.000 C 
BRANCH   2   4
ATOM      4  C   UNL     1       2.217   7.869  18.099  0.00  0.00    +0.000 C 
BRANCH   4   8
ATOM      5  C   UNL     1      -0.307  10.835  20.037  0.00  0.00    +0.000 A 
ATOM      6  C   UNL     1       0.389   9.878  20.784  0.00  0.00    +0.000 A 
ATOM      7  C   UNL     1       1.196   8.926  20.152  0.00  0.00    +0.000 A 
ATOM      8  C   UNL     1       1.303   8.889  18.755  0.00  0.00    +0.000 A 
ATOM      9  C   UNL     1       0.598   9.845  18.010  0.00  0.00    +0.000 A 
ATOM     10  C   UNL     1      -0.205  10.801  18.643  0.00  0.00    +0.000 A 
BRANCH   5  11
ATOM     11  C   UNL     1      -1.128  11.898  20.728  0.00  0.00    +0.000 C 
BRANCH  11  12
ATOM     12  C   UNL     1      -1.596  12.972  19.740  0.00  0.00    +0.000 C 
BRANCH  12  13
ATOM     13  C   UNL     1      -1.062  14.356  20.102  0.00  0.00    +0.000 C 
BRANCH  13  14
ATOM     14  C   UNL     1      -0.223  14.931  18.958  0.00  0.00    +0.000 C 
BRANCH  14  15
ATOM     15  C   UNL     1       1.113  14.202  18.836  0.00  0.00    +0.000 C 
BRANCH  15  17
ATOM     16  C   UNL     1       1.773  16.603  18.497  0.00  0.00    +0.000 C 
ATOM     17  C   UNL     1       2.277  15.181  18.692  0.00  0.00    +0.000 C 
ENDBRANCH  15  17
ENDBRANCH  14  15
ENDBRANCH  13  14
ENDBRANCH  12  13
ENDBRANCH  11  12
ENDBRANCH   5  11
ENDBRANCH   4   8
ENDBRANCH   2   4
ENDBRANCH   1   3
BRANCH   1  18
ATOM     18  S   UNL     1       3.368   3.668  17.103  0.00  0.00    +0.000 S 
BRANCH  18  19
ATOM     19  C   UNL     1       4.877   4.627  17.146  0.00  0.00    +0.000 A 
ATOM     20  C   UNL     1       5.254   5.208  15.925  0.00  0.00    +0.000 A 
ATOM     21  C   UNL     1       6.446   5.922  15.795  0.00  0.00    +0.000 A 
ATOM     22  C   UNL     1       7.258   6.113  16.906  0.00  0.00    +0.000 A 
ATOM     23  C   UNL     1       6.858   5.622  18.153  0.00  0.00    +0.000 A 
ATOM     24  C   UNL     1       5.678   4.865  18.268  0.00  0.00    +0.000 A 
BRANCH  23  25
ATOM     25  C   UNL     1       7.743   5.902  19.314  0.00  0.00    +0.000 C 
ATOM     26  O   UNL     1       7.767   5.198  20.308  0.00  0.00    +0.000 OA
BRANCH  25  27
ATOM     27  O   UNL     1       8.554   6.964  19.143  0.00  0.00    +0.000 OA
ATOM     28  H   UNL     1       9.501   6.757  19.046  0.00  0.00    +0.000 HD
ENDBRANCH  25  27
ENDBRANCH  23  25
ENDBRANCH  18  19
ENDBRANCH   1  18
BRANCH   1  29
ATOM     29  C   UNL     1       0.934   3.772  18.697  0.00  0.00    +0.000 C 
BRANCH  29  30
ATOM     30  O   UNL     1       1.044   2.402  18.271  0.00  0.00    +0.000 OA
ATOM     31  H   UNL     1       0.499   1.851  18.860  0.00  0.00    +0.000 HD
ENDBRANCH  29  30
BRANCH  29  32
ATOM     32  C   UNL     1       0.883   3.790  20.236  0.00  0.00    +0.000 C 
BRANCH  32  33
ATOM     33  C   UNL     1       1.539   2.523  20.817  0.00  0.00    +0.000 C 
BRANCH  33  34
ATOM     34  C   UNL     1       2.925   2.791  21.403  0.00  0.00    +0.000 C 
BRANCH  34  35
ATOM     35  C   UNL     1       4.011   2.043  20.651  0.00  0.00    +0.000 C 
ATOM     36  O   UNL     1       5.134   1.819  21.077  0.00  0.00    +0.000 OA
BRANCH  35  37
ATOM     37  O   UNL     1       3.599   1.636  19.433  0.00  0.00    +0.000 OA
ATOM     38  H   UNL     1       3.513   0.669  19.353  0.00  0.00    +0.000 HD
ENDBRANCH  35  37
ENDBRANCH  34  35
ENDBRANCH  33  34
ENDBRANCH  32  33
ENDBRANCH  29  32
ENDBRANCH   1  29
TORSDOF 20
ENDMDL
MODEL 6
REMARK VINA RESULT:      -7.2      1.207      1.492
REMARK  Name = 
REMARK  21 active torsions:
REMARK  status: ('A' for Active; 'I' for Inactive)
REMARK    1  A    between atoms: C_1  and  C_2
REMARK    2  A    between atoms: C_2  and  C_3
REMARK    3  A    between atoms: C_3  and  C_4
REMARK    4  A    between atoms: C_4  and  C_5
REMARK    5  A    between atoms: C_5  and  C_6
REMARK    6  A    between atoms: C_6  and  C_7
REMARK    7  A    between atoms: C_7  and  C_8
REMARK    8  A    between atoms: C_11  and  C_12
REMARK    9  A    between atoms: C_12  and  C_13
REMARK   10  A    between atoms: C_14  and  C_15
REMARK   11  A    between atoms: C_15  and  S_16
REMARK   12  A    between atoms: C_15  and  C_26
REMARK   13  A    between atoms: S_16  and  C_17
REMARK   14  A    between atoms: C_21  and  C_22
REMARK   15  A    between atoms: C_22  and  O_24
REMARK   16  A    between atoms: C_26  and  O_27
REMARK   17  A    between atoms: C_26  and  C_28
REMARK   18  A    between atoms: C_28  and  C_29
REMARK   19  A    between atoms: C_29  and  C_30
REMARK   20  A    between atoms: C_30  and  C_31
REMARK   21  A    between atoms: C_31  and  O_33
REMARK                            x       y       z     vdW  Elec       q    Type
REMARK                         _______ _______ _______ _____ _____    ______ ____
ROOT
ATOM      1  C   UNL     1       6.184   6.367  17.876  0.00  0.00    +0.000 C 
ENDROOT
BRANCH   1   3
ATOM      2  C   UNL     1       3.775   7.104  17.266  0.00  0.00    +0.000 C 
ATOM      3  C   UNL     1       5.055   6.825  16.966  0.00  0.00    +0.000 C 
BRANCH   2   4
ATOM      4  C   UNL     1       3.061   7.007  18.589  0.00  0.00    +0.000 C 
BRANCH   4   8
ATOM      5  C   UNL     1       0.464  10.404  19.386  0.00  0.00    +0.000 A 
ATOM      6  C   UNL     1       1.165  10.297  18.180  0.00  0.00    +0.000 A 
ATOM      7  C   UNL     1       2.000   9.203  17.933  0.00  0.00    +0.000 A 
ATOM      8  C   UNL     1       2.178   8.203  18.900  0.00  0.00    +0.000 A 
ATOM      9  C   UNL     1       1.480   8.318  20.111  0.00  0.00    +0.000 A 
ATOM     10  C   UNL     1       0.639   9.410  20.355  0.00  0.00    +0.000 A 
BRANCH   5  11
ATOM     11  C   UNL     1      -0.484  11.556  19.623  0.00  0.00    +0.000 C 
BRANCH  11  12
ATOM     12  C   UNL     1      -1.336  11.843  18.381  0.00  0.00    +0.000 C 
BRANCH  12  13
ATOM     13  C   UNL     1      -2.425  10.792  18.178  0.00  0.00    +0.000 C 
BRANCH  13  14
ATOM     14  C   UNL     1      -3.543  11.335  17.285  0.00  0.00    +0.000 C 
BRANCH  14  15
ATOM     15  C   UNL     1      -4.790  11.665  18.103  0.00  0.00    +0.000 C 
BRANCH  15  17
ATOM     16  C   UNL     1      -7.185  12.419  18.027  0.00  0.00    +0.000 C 
ATOM     17  C   UNL     1      -5.915  12.203  17.220  0.00  0.00    +0.000 C 
ENDBRANCH  15  17
ENDBRANCH  14  15
ENDBRANCH  13  14
ENDBRANCH  12  13
ENDBRANCH  11  12
ENDBRANCH   5  11
ENDBRANCH   4   8
ENDBRANCH   2   4
ENDBRANCH   1   3
BRANCH   1  18
ATOM     18  S   UNL     1       6.272   4.521  17.827  0.00  0.00    +0.000 S 
BRANCH  18  19
ATOM     19  C   UNL     1       4.644   3.887  18.210  0.00  0.00    +0.000 A 
ATOM     20  C   UNL     1       3.834   3.604  17.098  0.00  0.00    +0.000 A 
ATOM     21  C   UNL     1       2.515   3.172  17.250  0.00  0.00    +0.000 A 
ATOM     22  C   UNL     1       2.001   2.965  18.524  0.00  0.00    +0.000 A 
ATOM     23  C   UNL     1       2.818   3.153  19.643  0.00  0.00    +0.000 A 
ATOM     24  C   UNL     1       4.132   3.630  19.486  0.00  0.00    +0.000 A 
BRANCH  23  25
ATOM     25  C   UNL     1       2.227   2.866  20.976  0.00  0.00    +0.000 C 
ATOM     26  O   UNL     1       1.037   2.990  21.210  0.00  0.00    +0.000 OA
BRANCH  25  27
ATOM     27  O   UNL     1       3.111   2.402  21.881  0.00  0.00    +0.000 OA
ATOM     28  H   UNL     1       2.786   2.355  22.798  0.00  0.00    +0.000 HD
ENDBRANCH  25  27
ENDBRANCH  23  25
ENDBRANCH  18  19
ENDBRANCH   1  18
BRANCH   1  29
ATOM     29  C   UNL     1       7.511   7.147  17.608  0.00  0.00    +0.000 C 
BRANCH  29  30
ATOM     30  O   UNL     1       8.024   6.775  16.317  0.00  0.00    +0.000 OA
ATOM     31  H   UNL     1       7.578   5.959  16.031  0.00  0.00    +0.000 HD
ENDBRANCH  29  30
BRANCH  29  32
ATOM     32  C   UNL     1       7.420   8.684  17.660  0.00  0.00    +0.000 C 
BRANCH  32  33
ATOM     33  C   UNL     1       8.526   9.263  18.562  0.00  0.00    +0.000 C 
BRANCH  33  34
ATOM     34  C   UNL     1       9.358  10.336  17.861  0.00  0.00    +0.000 C 
BRANCH  34  35
ATOM     35  C   UNL     1       8.819  11.731  18.122  0.00  0.00    +0.000 C 
ATOM     36  O   UNL     1       8.128  12.374  17.347  0.00  0.00    +0.000 OA
BRANCH  35  37
ATOM     37  O   UNL     1       9.185  12.200  19.333  0.00  0.00    +0.000 OA
ATOM     38  H   UNL     1      10.072  12.603  19.343  0.00  0.00    +0.000 HD
ENDBRANCH  35  37
ENDBRANCH  34  35
ENDBRANCH  33  34
ENDBRANCH  32  33
ENDBRANCH  29  32
ENDBRANCH   1  29
TORSDOF 20
ENDMDL
MODEL 7
REMARK VINA RESULT:      -7.2      1.661      3.034
REMARK  Name = 
REMARK  21 active torsions:
REMARK  status: ('A' for Active; 'I' for Inactive)
REMARK    1  A    between atoms: C_1  and  C_2
REMARK    2  A    between atoms: C_2  and  C_3
REMARK    3  A    between atoms: C_3  and  C_4
REMARK    4  A    between atoms: C_4  and  C_5
REMARK    5  A    between atoms: C_5  and  C_6
REMARK    6  A    between atoms: C_6  and  C_7
REMARK    7  A    between atoms: C_7  and  C_8
REMARK    8  A    between atoms: C_11  and  C_12
REMARK    9  A    between atoms: C_12  and  C_13
REMARK   10  A    between atoms: C_14  and  C_15
REMARK   11  A    between atoms: C_15  and  S_16
REMARK   12  A    between atoms: C_15  and  C_26
REMARK   13  A    between atoms: S_16  and  C_17
REMARK   14  A    between atoms: C_21  and  C_22
REMARK   15  A    between atoms: C_22  and  O_24
REMARK   16  A    between atoms: C_26  and  O_27
REMARK   17  A    between atoms: C_26  and  C_28
REMARK   18  A    between atoms: C_28  and  C_29
REMARK   19  A    between atoms: C_29  and  C_30
REMARK   20  A    between atoms: C_30  and  C_31
REMARK   21  A    between atoms: C_31  and  O_33
REMARK                            x       y       z     vdW  Elec       q    Type
REMARK                         _______ _______ _______ _____ _____    ______ ____
ROOT
ATOM      1  C   UNL     1       6.140   6.309  17.926  0.00  0.00    +0.000 C 
ENDROOT
BRANCH   1   3
ATOM      2  C   UNL     1       3.718   7.124  17.495  0.00  0.00    +0.000 C 
ATOM      3  C   UNL     1       4.967   6.821  17.105  0.00  0.00    +0.000 C 
BRANCH   2   4
ATOM      4  C   UNL     1       3.089   7.009  18.859  0.00  0.00    +0.000 C 
BRANCH   4   8
ATOM      5  C   UNL     1       0.098  10.046  19.727  0.00  0.00    +0.000 A 
ATOM      6  C   UNL     1       0.532   9.154  20.714  0.00  0.00    +0.000 A 
ATOM      7  C   UNL     1       1.492   8.179  20.426  0.00  0.00    +0.000 A 
ATOM      8  C   UNL     1       2.020   8.052  19.133  0.00  0.00    +0.000 A 
ATOM      9  C   UNL     1       1.577   8.942  18.144  0.00  0.00    +0.000 A 
ATOM     10  C   UNL     1       0.621   9.922  18.435  0.00  0.00    +0.000 A 
BRANCH   5  11
ATOM     11  C   UNL     1      -0.893  11.136  20.060  0.00  0.00    +0.000 C 
BRANCH  11  12
ATOM     12  C   UNL     1      -0.320  12.525  19.754  0.00  0.00    +0.000 C 
BRANCH  12  13
ATOM     13  C   UNL     1      -0.384  13.451  20.966  0.00  0.00    +0.000 C 
BRANCH  13  14
ATOM     14  C   UNL     1      -0.770  12.672  22.225  0.00  0.00    +0.000 C 
BRANCH  14  15
ATOM     15  C   UNL     1      -1.258  13.611  23.326  0.00  0.00    +0.000 C 
BRANCH  15  17
ATOM     16  C   UNL     1      -3.204  14.301  24.758  0.00  0.00    +0.000 C 
ATOM     17  C   UNL     1      -2.755  13.445  23.584  0.00  0.00    +0.000 C 
ENDBRANCH  15  17
ENDBRANCH  14  15
ENDBRANCH  13  14
ENDBRANCH  12  13
ENDBRANCH  11  12
ENDBRANCH   5  11
ENDBRANCH   4   8
ENDBRANCH   2   4
ENDBRANCH   1   3
BRANCH   1  18
ATOM     18  S   UNL     1       6.184   4.465  17.811  0.00  0.00    +0.000 S 
BRANCH  18  19
ATOM     19  C   UNL     1       4.552   3.854  18.215  0.00  0.00    +0.000 A 
ATOM     20  C   UNL     1       3.716   3.603  17.115  0.00  0.00    +0.000 A 
ATOM     21  C   UNL     1       2.393   3.192  17.284  0.00  0.00    +0.000 A 
ATOM     22  C   UNL     1       1.898   2.975  18.565  0.00  0.00    +0.000 A 
ATOM     23  C   UNL     1       2.739   3.131  19.671  0.00  0.00    +0.000 A 
ATOM     24  C   UNL     1       4.059   3.587  19.496  0.00  0.00    +0.000 A 
BRANCH  23  25
ATOM     25  C   UNL     1       2.169   2.834  21.011  0.00  0.00    +0.000 C 
ATOM     26  O   UNL     1       2.861   2.556  21.975  0.00  0.00    +0.000 OA
BRANCH  25  27
ATOM     27  O   UNL     1       0.828   2.958  21.077  0.00  0.00    +0.000 OA
ATOM     28  H   UNL     1       0.358   2.204  21.476  0.00  0.00    +0.000 HD
ENDBRANCH  25  27
ENDBRANCH  23  25
ENDBRANCH  18  19
ENDBRANCH   1  18
BRANCH   1  29
ATOM     29  C   UNL     1       7.465   7.070  17.601  0.00  0.00    +0.000 C 
BRANCH  29  30
ATOM     30  O   UNL     1       7.913   6.696  16.286  0.00  0.00    +0.000 OA
ATOM     31  H   UNL     1       8.176   5.760  16.304  0.00  0.00    +0.000 HD
ENDBRANCH  29  30
BRANCH  29  32
ATOM     32  C   UNL     1       7.400   8.608  17.663  0.00  0.00    +0.000 C 
BRANCH  32  33
ATOM     33  C   UNL     1       8.510   9.163  18.575  0.00  0.00    +0.000 C 
BRANCH  33  34
ATOM     34  C   UNL     1       9.317  10.279  17.912  0.00  0.00    +0.000 C 
BRANCH  34  35
ATOM     35  C   UNL     1       8.996  11.638  18.507  0.00  0.00    +0.000 C 
ATOM     36  O   UNL     1       9.244  11.981  19.652  0.00  0.00    +0.000 OA
BRANCH  35  37
ATOM     37  O   UNL     1       8.397  12.456  17.615  0.00  0.00    +0.000 OA
ATOM     38  H   UNL     1       7.474  12.671  17.843  0.00  0.00    +0.000 HD
ENDBRANCH  35  37
ENDBRANCH  34  35
ENDBRANCH  33  34
ENDBRANCH  32  33
ENDBRANCH  29  32
ENDBRANCH   1  29
TORSDOF 20
ENDMDL
MODEL 8
REMARK VINA RESULT:      -7.1      4.840     10.466
REMARK  Name = 
REMARK  21 active torsions:
REMARK  status: ('A' for Active; 'I' for Inactive)
REMARK    1  A    between atoms: C_1  and  C_2
REMARK    2  A    between atoms: C_2  and  C_3
REMARK    3  A    between atoms: C_3  and  C_4
REMARK    4  A    between atoms: C_4  and  C_5
REMARK    5  A    between atoms: C_5  and  C_6
REMARK    6  A    between atoms: C_6  and  C_7
REMARK    7  A    between atoms: C_7  and  C_8
REMARK    8  A    between atoms: C_11  and  C_12
REMARK    9  A    between atoms: C_12  and  C_13
REMARK   10  A    between atoms: C_14  and  C_15
REMARK   11  A    between atoms: C_15  and  S_16
REMARK   12  A    between atoms: C_15  and  C_26
REMARK   13  A    between atoms: S_16  and  C_17
REMARK   14  A    between atoms: C_21  and  C_22
REMARK   15  A    between atoms: C_22  and  O_24
REMARK   16  A    between atoms: C_26  and  O_27
REMARK   17  A    between atoms: C_26  and  C_28
REMARK   18  A    between atoms: C_28  and  C_29
REMARK   19  A    between atoms: C_29  and  C_30
REMARK   20  A    between atoms: C_30  and  C_31
REMARK   21  A    between atoms: C_31  and  O_33
REMARK                            x       y       z     vdW  Elec       q    Type
REMARK                         _______ _______ _______ _____ _____    ______ ____
ROOT
ATOM      1  C   UNL     1      -1.857  10.632  18.499  0.00  0.00    +0.000 C 
ENDROOT
BRANCH   1   3
ATOM      2  C   UNL     1       0.722  10.368  18.516  0.00  0.00    +0.000 C 
ATOM      3  C   UNL     1      -0.428  10.868  18.034  0.00  0.00    +0.000 C 
BRANCH   2   4
ATOM      4  C   UNL     1       0.947   9.451  19.689  0.00  0.00    +0.000 C 
BRANCH   4   8
ATOM      5  C   UNL     1       3.379   5.956  18.800  0.00  0.00    +0.000 A 
ATOM      6  C   UNL     1       2.688   6.068  20.012  0.00  0.00    +0.000 A 
ATOM      7  C   UNL     1       1.911   7.197  20.291  0.00  0.00    +0.000 A 
ATOM      8  C   UNL     1       1.830   8.256  19.376  0.00  0.00    +0.000 A 
ATOM      9  C   UNL     1       2.530   8.144  18.167  0.00  0.00    +0.000 A 
ATOM     10  C   UNL     1       3.303   7.012  17.885  0.00  0.00    +0.000 A 
BRANCH   5  11
ATOM     11  C   UNL     1       4.167   4.709  18.479  0.00  0.00    +0.000 C 
BRANCH  11  12
ATOM     12  C   UNL     1       3.596   3.987  17.253  0.00  0.00    +0.000 C 
BRANCH  12  13
ATOM     13  C   UNL     1       3.382   2.497  17.513  0.00  0.00    +0.000 C 
BRANCH  13  14
ATOM     14  C   UNL     1       2.970   2.253  18.967  0.00  0.00    +0.000 C 
BRANCH  14  15
ATOM     15  C   UNL     1       1.454   2.124  19.095  0.00  0.00    +0.000 C 
BRANCH  15  17
ATOM     16  C   UNL     1       1.459   2.878  21.492  0.00  0.00    +0.000 C 
ATOM     17  C   UNL     1       0.888   3.122  20.104  0.00  0.00    +0.000 C 
ENDBRANCH  15  17
ENDBRANCH  14  15
ENDBRANCH  13  14
ENDBRANCH  12  13
ENDBRANCH  11  12
ENDBRANCH   5  11
ENDBRANCH   4   8
ENDBRANCH   2   4
ENDBRANCH   1   3
BRANCH   1  18
ATOM     18  S   UNL     1      -2.442  12.134  19.402  0.00  0.00    +0.000 S 
BRANCH  18  19
ATOM     19  C   UNL     1      -1.005  13.110  19.827  0.00  0.00    +0.000 A 
ATOM     20  C   UNL     1      -0.468  12.864  21.101  0.00  0.00    +0.000 A 
ATOM     21  C   UNL     1       0.609  13.604  21.593  0.00  0.00    +0.000 A 
ATOM     22  C   UNL     1       1.203  14.571  20.791  0.00  0.00    +0.000 A 
ATOM     23  C   UNL     1       0.744  14.769  19.484  0.00  0.00    +0.000 A 
ATOM     24  C   UNL     1      -0.370  14.051  19.011  0.00  0.00    +0.000 A 
BRANCH  23  25
ATOM     25  C   UNL     1       1.453  15.780  18.657  0.00  0.00    +0.000 C 
ATOM     26  O   UNL     1       2.510  15.548  18.098  0.00  0.00    +0.000 OA
BRANCH  25  27
ATOM     27  O   UNL     1       0.794  16.949  18.534  0.00  0.00    +0.000 OA
ATOM     28  H   UNL     1       1.355  17.730  18.377  0.00  0.00    +0.000 HD
ENDBRANCH  25  27
ENDBRANCH  23  25
ENDBRANCH  18  19
ENDBRANCH   1  18
BRANCH   1  29
ATOM     29  C   UNL     1      -2.770  10.094  17.351  0.00  0.00    +0.000 C 
BRANCH  29  30
ATOM     30  O   UNL     1      -4.132  10.052  17.814  0.00  0.00    +0.000 OA
ATOM     31  H   UNL     1      -4.136  10.203  18.775  0.00  0.00    +0.000 HD
ENDBRANCH  29  30
BRANCH  29  32
ATOM     32  C   UNL     1      -2.740  10.884  16.030  0.00  0.00    +0.000 C 
BRANCH  32  33
ATOM     33  C   UNL     1      -2.585   9.931  14.830  0.00  0.00    +0.000 C 
BRANCH  33  34
ATOM     34  C   UNL     1      -3.818   9.913  13.927  0.00  0.00    +0.000 C 
BRANCH  34  35
ATOM     35  C   UNL     1      -3.455   9.626  12.481  0.00  0.00    +0.000 C 
ATOM     36  O   UNL     1      -4.254   9.527  11.563  0.00  0.00    +0.000 OA
BRANCH  35  37
ATOM     37  O   UNL     1      -2.124   9.494  12.307  0.00  0.00    +0.000 OA
ATOM     38  H   UNL     1      -1.845   8.582  12.108  0.00  0.00    +0.000 HD
ENDBRANCH  35  37
ENDBRANCH  34  35
ENDBRANCH  33  34
ENDBRANCH  32  33
ENDBRANCH  29  32
ENDBRANCH   1  29
TORSDOF 20
ENDMDL
MODEL 9
REMARK VINA RESULT:      -7.1      3.678      6.730
REMARK  Name = 
REMARK  21 active torsions:
REMARK  status: ('A' for Active; 'I' for Inactive)
REMARK    1  A    between atoms: C_1  and  C_2
REMARK    2  A    between atoms: C_2  and  C_3
REMARK    3  A    between atoms: C_3  and  C_4
REMARK    4  A    between atoms: C_4  and  C_5
REMARK    5  A    between atoms: C_5  and  C_6
REMARK    6  A    between atoms: C_6  and  C_7
REMARK    7  A    between atoms: C_7  and  C_8
REMARK    8  A    between atoms: C_11  and  C_12
REMARK    9  A    between atoms: C_12  and  C_13
REMARK   10  A    between atoms: C_14  and  C_15
REMARK   11  A    between atoms: C_15  and  S_16
REMARK   12  A    between atoms: C_15  and  C_26
REMARK   13  A    between atoms: S_16  and  C_17
REMARK   14  A    between atoms: C_21  and  C_22
REMARK   15  A    between atoms: C_22  and  O_24
REMARK   16  A    between atoms: C_26  and  O_27
REMARK   17  A    between atoms: C_26  and  C_28
REMARK   18  A    between atoms: C_28  and  C_29
REMARK   19  A    between atoms: C_29  and  C_30
REMARK   20  A    between atoms: C_30  and  C_31
REMARK   21  A    between atoms: C_31  and  O_33
REMARK                            x       y       z     vdW  Elec       q    Type
REMARK                         _______ _______ _______ _____ _____    ______ ____
ROOT
ATOM      1  C   UNL     1       2.552   6.046  18.532  0.00  0.00    +0.000 C 
ENDROOT
BRANCH   1   3
ATOM      2  C   UNL     1       2.819   8.465  17.640  0.00  0.00    +0.000 C 
ATOM      3  C   UNL     1       3.283   7.239  17.938  0.00  0.00    +0.000 C 
BRANCH   2   4
ATOM      4  C   UNL     1       1.423   9.015  17.770  0.00  0.00    +0.000 C 
BRANCH   4   8
ATOM      5  C   UNL     1       1.215  12.503  20.361  0.00  0.00    +0.000 A 
ATOM      6  C   UNL     1       0.682  11.272  20.760  0.00  0.00    +0.000 A 
ATOM      7  C   UNL     1       0.751  10.156  19.919  0.00  0.00    +0.000 A 
ATOM      8  C   UNL     1       1.327  10.252  18.645  0.00  0.00    +0.000 A 
ATOM      9  C   UNL     1       1.853  11.489  18.245  0.00  0.00    +0.000 A 
ATOM     10  C   UNL     1       1.790  12.604  19.090  0.00  0.00    +0.000 A 
BRANCH   5  11
ATOM     11  C   UNL     1       1.193  13.688  21.297  0.00  0.00    +0.000 C 
BRANCH  11  12
ATOM     12  C   UNL     1       0.061  14.660  20.942  0.00  0.00    +0.000 C 
BRANCH  12  13
ATOM     13  C   UNL     1      -1.276  14.223  21.535  0.00  0.00    +0.000 C 
BRANCH  13  14
ATOM     14  C   UNL     1      -1.096  13.721  22.970  0.00  0.00    +0.000 C 
BRANCH  14  15
ATOM     15  C   UNL     1      -2.428  13.280  23.571  0.00  0.00    +0.000 C 
BRANCH  15  17
ATOM     16  C   UNL     1      -4.750  13.126  22.623  0.00  0.00    +0.000 C 
ATOM     17  C   UNL     1      -3.322  12.613  22.527  0.00  0.00    +0.000 C 
ENDBRANCH  15  17
ENDBRANCH  14  15
ENDBRANCH  13  14
ENDBRANCH  12  13
ENDBRANCH  11  12
ENDBRANCH   5  11
ENDBRANCH   4   8
ENDBRANCH   2   4
ENDBRANCH   1   3
BRANCH   1  18
ATOM     18  S   UNL     1       2.922   4.553  17.507  0.00  0.00    +0.000 S 
BRANCH  18  19
ATOM     19  C   UNL     1       4.646   4.628  17.036  0.00  0.00    +0.000 A 
ATOM     20  C   UNL     1       5.561   4.571  18.099  0.00  0.00    +0.000 A 
ATOM     21  C   UNL     1       6.935   4.692  17.885  0.00  0.00    +0.000 A 
ATOM     22  C   UNL     1       7.421   4.819  16.589  0.00  0.00    +0.000 A 
ATOM     23  C   UNL     1       6.535   4.787  15.508  0.00  0.00    +0.000 A 
ATOM     24  C   UNL     1       5.148   4.709  15.733  0.00  0.00    +0.000 A 
BRANCH  23  25
ATOM     25  C   UNL     1       7.118   4.875  14.144  0.00  0.00    +0.000 C 
ATOM     26  O   UNL     1       8.043   5.620  13.870  0.00  0.00    +0.000 OA
BRANCH  25  27
ATOM     27  O   UNL     1       6.574   4.019  13.257  0.00  0.00    +0.000 OA
ATOM     28  H   UNL     1       6.803   3.081  13.386  0.00  0.00    +0.000 HD
ENDBRANCH  25  27
ENDBRANCH  23  25
ENDBRANCH  18  19
ENDBRANCH   1  18
BRANCH   1  29
ATOM     29  C   UNL     1       2.780   5.921  20.073  0.00  0.00    +0.000 C 
BRANCH  29  30
ATOM     30  O   UNL     1       1.760   6.666  20.761  0.00  0.00    +0.000 OA
ATOM     31  H   UNL     1       0.909   6.511  20.314  0.00  0.00    +0.000 HD
ENDBRANCH  29  30
BRANCH  29  32
ATOM     32  C   UNL     1       2.795   4.492  20.645  0.00  0.00    +0.000 C 
BRANCH  32  33
ATOM     33  C   UNL     1       1.360   3.991  20.895  0.00  0.00    +0.000 C 
BRANCH  33  34
ATOM     34  C   UNL     1       1.222   2.479  20.719  0.00  0.00    +0.000 C 
BRANCH  34  35
ATOM     35  C   UNL     1       1.156   2.085  19.255  0.00  0.00    +0.000 C 
ATOM     36  O   UNL     1       0.235   2.347  18.497  0.00  0.00    +0.000 OA
BRANCH  35  37
ATOM     37  O   UNL     1       2.251   1.400  18.862  0.00  0.00    +0.000 OA
ATOM     38  H   UNL     1       2.082   0.783  18.128  0.00  0.00    +0.000 HD
ENDBRANCH  35  37
ENDBRANCH  34  35
ENDBRANCH  33  34
ENDBRANCH  32  33
ENDBRANCH  29  32
ENDBRANCH   1  29
TORSDOF 20
ENDMDL
