MODEL 1
REMARK VINA RESULT:      -8.3      0.000      0.000
REMARK  Name = 
REMARK  2 active torsions:
REMARK  status: ('A' for Active; 'I' for Inactive)
REMARK    1  A    between atoms: C_2  and  C_3
REMARK    2  A    between atoms: C_2  and  C_12
REMARK                            x       y       z     vdW  Elec       q    Type
REMARK                         _______ _______ _______ _____ _____    ______ ____
ROOT
ATOM      1  O   UNL     1       2.965   2.610  18.637  0.00  0.00    +0.000 OA
ATOM      2  C   UNL     1       3.407   3.755  18.630  0.00  0.00    +0.000 C 
ENDROOT
BRANCH   2   3
ATOM      3  C   UNL     1       2.836   4.821  19.454  0.00  0.00    +0.000 A 
ATOM      4  C   UNL     1       2.451   4.719  20.780  0.00  0.00    +0.000 A 
ATOM      5  N   UNL     1       1.956   5.928  21.182  0.00  0.00    +0.000 N 
ATOM      6  C   UNL     1       2.019   6.834  20.151  0.00  0.00    +0.000 A 
ATOM      7  C   UNL     1       1.628   8.178  20.093  0.00  0.00    +0.000 A 
ATOM      8 BR   UNL     1       0.875   9.043  21.595  0.00  0.00    +0.000 Br
ATOM      9  C   UNL     1       1.806   8.869  18.894  0.00  0.00    +0.000 A 
ATOM     10  C   UNL     1       2.362   8.234  17.786  0.00  0.00    +0.000 A 
ATOM     11  C   UNL     1       2.752   6.893  17.853  0.00  0.00    +0.000 A 
ATOM     12  C   UNL     1       2.580   6.173  19.057  0.00  0.00    +0.000 A 
ATOM     13  H   UNL     1       1.594   6.140  22.103  0.00  0.00    +0.000 HD
ENDBRANCH   2   3
BRANCH   2  14
ATOM     14  C   UNL     1       4.581   4.061  17.766  0.00  0.00    +0.000 A 
ATOM     15  C   UNL     1       5.790   4.463  18.377  0.00  0.00    +0.000 A 
ATOM     16  C   UNL     1       6.909   4.780  17.598  0.00  0.00    +0.000 A 
ATOM     17  C   UNL     1       6.780   4.700  16.228  0.00  0.00    +0.000 A 
ATOM     18  C   UNL     1       5.598   4.325  15.632  0.00  0.00    +0.000 A 
ATOM     19  C   UNL     1       4.481   4.008  16.368  0.00  0.00    +0.000 A 
ATOM     20  O   UNL     1       5.676   4.318  14.276  0.00  0.00    +0.000 OA
ATOM     21  C   UNL     1       7.023   4.792  14.082  0.00  0.00    +0.000 C 
ATOM     22  O   UNL     1       7.748   4.980  15.316  0.00  0.00    +0.000 OA
ENDBRANCH   2  14
TORSDOF 2
ENDMDL
MODEL 2
REMARK VINA RESULT:      -7.6      3.452      5.307
REMARK  Name = 
REMARK  2 active torsions:
REMARK  status: ('A' for Active; 'I' for Inactive)
REMARK    1  A    between atoms: C_2  and  C_3
REMARK    2  A    between atoms: C_2  and  C_12
REMARK                            x       y       z     vdW  Elec       q    Type
REMARK                         _______ _______ _______ _____ _____    ______ ____
ROOT
ATOM      1  O   UNL     1       4.000   7.292  17.811  0.00  0.00    +0.000 OA
ATOM      2  C   UNL     1       2.902   7.182  18.348  0.00  0.00    +0.000 C 
ENDROOT
BRANCH   2   3
ATOM      3  C   UNL     1       1.991   8.316  18.509  0.00  0.00    +0.000 A 
ATOM      4  C   UNL     1       1.538   9.157  17.506  0.00  0.00    +0.000 A 
ATOM      5  N   UNL     1       0.717  10.096  18.066  0.00  0.00    +0.000 N 
ATOM      6  C   UNL     1       0.604   9.884  19.418  0.00  0.00    +0.000 A 
ATOM      7  C   UNL     1      -0.116  10.585  20.394  0.00  0.00    +0.000 A 
ATOM      8 BR   UNL     1      -1.160  12.093  19.944  0.00  0.00    +0.000 Br
ATOM      9  C   UNL     1      -0.043  10.144  21.717  0.00  0.00    +0.000 A 
ATOM     10  C   UNL     1       0.725   9.031  22.051  0.00  0.00    +0.000 A 
ATOM     11  C   UNL     1       1.439   8.335  21.069  0.00  0.00    +0.000 A 
ATOM     12  C   UNL     1       1.382   8.765  19.725  0.00  0.00    +0.000 A 
ATOM     13  H   UNL     1       0.251  10.843  17.567  0.00  0.00    +0.000 HD
ENDBRANCH   2   3
BRANCH   2  14
ATOM     14  C   UNL     1       2.474   5.839  18.830  0.00  0.00    +0.000 A 
ATOM     15  C   UNL     1       1.854   4.954  17.921  0.00  0.00    +0.000 A 
ATOM     16  C   UNL     1       1.419   3.692  18.343  0.00  0.00    +0.000 A 
ATOM     17  C   UNL     1       1.604   3.359  19.668  0.00  0.00    +0.000 A 
ATOM     18  C   UNL     1       2.193   4.228  20.557  0.00  0.00    +0.000 A 
ATOM     19  C   UNL     1       2.631   5.475  20.176  0.00  0.00    +0.000 A 
ATOM     20  O   UNL     1       2.274   3.716  21.812  0.00  0.00    +0.000 OA
ATOM     21  C   UNL     1       1.612   2.448  21.628  0.00  0.00    +0.000 C 
ATOM     22  O   UNL     1       1.237   2.192  20.258  0.00  0.00    +0.000 OA
ENDBRANCH   2  14
TORSDOF 2
ENDMDL
MODEL 3
REMARK VINA RESULT:      -7.4      1.522      2.293
REMARK  Name = 
REMARK  2 active torsions:
REMARK  status: ('A' for Active; 'I' for Inactive)
REMARK    1  A    between atoms: C_2  and  C_3
REMARK    2  A    between atoms: C_2  and  C_12
REMARK                            x       y       z     vdW  Elec       q    Type
REMARK                         _______ _______ _______ _____ _____    ______ ____
ROOT
ATOM      1  O   UNL     1       1.751   4.352  17.535  0.00  0.00    +0.000 OA
ATOM      2  C   UNL     1       2.546   5.052  18.155  0.00  0.00    +0.000 C 
ENDROOT
BRANCH   2   3
ATOM      3  C   UNL     1       2.116   6.023  19.163  0.00  0.00    +0.000 A 
ATOM      4  C   UNL     1       1.866   5.763  20.500  0.00  0.00    +0.000 A 
ATOM      5  N   UNL     1       1.475   6.927  21.101  0.00  0.00    +0.000 N 
ATOM      6  C   UNL     1       1.475   7.956  20.191  0.00  0.00    +0.000 A 
ATOM      7  C   UNL     1       1.146   9.309  20.345  0.00  0.00    +0.000 A 
ATOM      8 BR   UNL     1       0.595   9.998  22.016  0.00  0.00    +0.000 Br
ATOM      9  C   UNL     1       1.233  10.143  19.229  0.00  0.00    +0.000 A 
ATOM     10  C   UNL     1       1.639   9.638  17.997  0.00  0.00    +0.000 A 
ATOM     11  C   UNL     1       1.969   8.286  17.853  0.00  0.00    +0.000 A 
ATOM     12  C   UNL     1       1.887   7.422  18.968  0.00  0.00    +0.000 A 
ATOM     13  H   UNL     1       1.221   7.030  22.076  0.00  0.00    +0.000 HD
ENDBRANCH   2   3
BRANCH   2  14
ATOM     14  C   UNL     1       4.002   4.891  17.884  0.00  0.00    +0.000 A 
ATOM     15  C   UNL     1       4.409   4.366  16.638  0.00  0.00    +0.000 A 
ATOM     16  C   UNL     1       5.767   4.179  16.355  0.00  0.00    +0.000 A 
ATOM     17  C   UNL     1       6.678   4.508  17.336  0.00  0.00    +0.000 A 
ATOM     18  C   UNL     1       6.281   5.004  18.556  0.00  0.00    +0.000 A 
ATOM     19  C   UNL     1       4.955   5.199  18.866  0.00  0.00    +0.000 A 
ATOM     20  O   UNL     1       7.328   5.256  19.383  0.00  0.00    +0.000 OA
ATOM     21  C   UNL     1       8.428   4.805  18.569  0.00  0.00    +0.000 C 
ATOM     22  O   UNL     1       8.028   4.384  17.248  0.00  0.00    +0.000 OA
ENDBRANCH   2  14
TORSDOF 2
ENDMDL
MODEL 4
REMARK VINA RESULT:      -7.3      1.943      2.700
REMARK  Name = 
REMARK  2 active torsions:
REMARK  status: ('A' for Active; 'I' for Inactive)
REMARK    1  A    between atoms: C_2  and  C_3
REMARK    2  A    between atoms: C_2  and  C_12
REMARK                            x       y       z     vdW  Elec       q    Type
REMARK                         _______ _______ _______ _____ _____    ______ ____
ROOT
ATOM      1  O   UNL     1       3.203   5.382  19.635  0.00  0.00    +0.000 OA
ATOM      2  C   UNL     1       3.432   6.208  18.758  0.00  0.00    +0.000 C 
ENDROOT
BRANCH   2   3
ATOM      3  C   UNL     1       2.661   7.445  18.625  0.00  0.00    +0.000 A 
ATOM      4  C   UNL     1       2.571   8.241  17.495  0.00  0.00    +0.000 A 
ATOM      5  N   UNL     1       1.767   9.309  17.781  0.00  0.00    +0.000 N 
ATOM      6  C   UNL     1       1.309   9.228  19.074  0.00  0.00    +0.000 A 
ATOM      7  C   UNL     1       0.473  10.085  19.801  0.00  0.00    +0.000 A 
ATOM      8 BR   UNL     1      -0.233  11.655  19.022  0.00  0.00    +0.000 Br
ATOM      9  C   UNL     1       0.172   9.754  21.123  0.00  0.00    +0.000 A 
ATOM     10  C   UNL     1       0.691   8.597  21.699  0.00  0.00    +0.000 A 
ATOM     11  C   UNL     1       1.523   7.745  20.965  0.00  0.00    +0.000 A 
ATOM     12  C   UNL     1       1.842   8.061  19.626  0.00  0.00    +0.000 A 
ATOM     13  H   UNL     1       1.531  10.057  17.141  0.00  0.00    +0.000 HD
ENDBRANCH   2   3
BRANCH   2  14
ATOM     14  C   UNL     1       4.550   5.950  17.808  0.00  0.00    +0.000 A 
ATOM     15  C   UNL     1       5.787   6.600  18.019  0.00  0.00    +0.000 A 
ATOM     16  C   UNL     1       6.855   6.400  17.136  0.00  0.00    +0.000 A 
ATOM     17  C   UNL     1       6.647   5.566  16.058  0.00  0.00    +0.000 A 
ATOM     18  C   UNL     1       5.439   4.947  15.843  0.00  0.00    +0.000 A 
ATOM     19  C   UNL     1       4.370   5.123  16.690  0.00  0.00    +0.000 A 
ATOM     20  O   UNL     1       5.437   4.177  14.724  0.00  0.00    +0.000 OA
ATOM     21  C   UNL     1       6.765   4.430  14.223  0.00  0.00    +0.000 C 
ATOM     22  O   UNL     1       7.557   5.264  15.094  0.00  0.00    +0.000 OA
ENDBRANCH   2  14
TORSDOF 2
ENDMDL
MODEL 5
REMARK VINA RESULT:      -7.2      3.524      5.907
REMARK  Name = 
REMARK  2 active torsions:
REMARK  status: ('A' for Active; 'I' for Inactive)
REMARK    1  A    between atoms: C_2  and  C_3
REMARK    2  A    between atoms: C_2  and  C_12
REMARK                            x       y       z     vdW  Elec       q    Type
REMARK                         _______ _______ _______ _____ _____    ______ ____
ROOT
ATOM      1  O   UNL     1       5.185   2.995  16.055  0.00  0.00    +0.000 OA
ATOM      2  C   UNL     1       4.844   3.881  16.833  0.00  0.00    +0.000 C 
ENDROOT
BRANCH   2   3
ATOM      3  C   UNL     1       5.480   5.199  16.848  0.00  0.00    +0.000 A 
ATOM      4  C   UNL     1       5.202   6.256  15.996  0.00  0.00    +0.000 A 
ATOM      5  N   UNL     1       6.017   7.303  16.326  0.00  0.00    +0.000 N 
ATOM      6  C   UNL     1       6.818   6.966  17.390  0.00  0.00    +0.000 A 
ATOM      7  C   UNL     1       7.799   7.706  18.063  0.00  0.00    +0.000 A 
ATOM      8 BR   UNL     1       8.210   9.478  17.552  0.00  0.00    +0.000 Br
ATOM      9  C   UNL     1       8.474   7.101  19.125  0.00  0.00    +0.000 A 
ATOM     10  C   UNL     1       8.172   5.795  19.504  0.00  0.00    +0.000 A 
ATOM     11  C   UNL     1       7.189   5.065  18.828  0.00  0.00    +0.000 A 
ATOM     12  C   UNL     1       6.494   5.656  17.749  0.00  0.00    +0.000 A 
ATOM     13  H   UNL     1       6.036   8.203  15.864  0.00  0.00    +0.000 HD
ENDBRANCH   2   3
BRANCH   2  14
ATOM     14  C   UNL     1       3.727   3.608  17.780  0.00  0.00    +0.000 A 
ATOM     15  C   UNL     1       2.399   3.808  17.342  0.00  0.00    +0.000 A 
ATOM     16  C   UNL     1       1.324   3.583  18.210  0.00  0.00    +0.000 A 
ATOM     17  C   UNL     1       1.611   3.180  19.496  0.00  0.00    +0.000 A 
ATOM     18  C   UNL     1       2.905   3.001  19.927  0.00  0.00    +0.000 A 
ATOM     19  C   UNL     1       3.983   3.214  19.101  0.00  0.00    +0.000 A 
ATOM     20  O   UNL     1       2.974   2.612  21.227  0.00  0.00    +0.000 OA
ATOM     21  C   UNL     1       1.578   2.625  21.585  0.00  0.00    +0.000 C 
ATOM     22  O   UNL     1       0.704   2.927  20.477  0.00  0.00    +0.000 OA
ENDBRANCH   2  14
TORSDOF 2
ENDMDL
MODEL 6
REMARK VINA RESULT:      -7.2      2.436      4.094
REMARK  Name = 
REMARK  2 active torsions:
REMARK  status: ('A' for Active; 'I' for Inactive)
REMARK    1  A    between atoms: C_2  and  C_3
REMARK    2  A    between atoms: C_2  and  C_12
REMARK                            x       y       z     vdW  Elec       q    Type
REMARK                         _______ _______ _______ _____ _____    ______ ____
ROOT
ATOM      1  O   UNL     1       2.579   8.666  17.176  0.00  0.00    +0.000 OA
ATOM      2  C   UNL     1       2.372   7.939  18.142  0.00  0.00    +0.000 C 
ENDROOT
BRANCH   2   3
ATOM      3  C   UNL     1       1.701   8.416  19.353  0.00  0.00    +0.000 A 
ATOM      4  C   UNL     1       1.799   7.864  20.619  0.00  0.00    +0.000 A 
ATOM      5  N   UNL     1       1.012   8.590  21.469  0.00  0.00    +0.000 N 
ATOM      6  C   UNL     1       0.408   9.623  20.794  0.00  0.00    +0.000 A 
ATOM      7  C   UNL     1      -0.476  10.612  21.243  0.00  0.00    +0.000 A 
ATOM      8 BR   UNL     1      -1.027  10.685  23.049  0.00  0.00    +0.000 Br
ATOM      9  C   UNL     1      -0.947  11.549  20.321  0.00  0.00    +0.000 A 
ATOM     10  C   UNL     1      -0.541  11.498  18.990  0.00  0.00    +0.000 A 
ATOM     11  C   UNL     1       0.344  10.508  18.550  0.00  0.00    +0.000 A 
ATOM     12  C   UNL     1       0.832   9.548  19.465  0.00  0.00    +0.000 A 
ATOM     13  H   UNL     1       0.887   8.407  22.457  0.00  0.00    +0.000 HD
ENDBRANCH   2   3
BRANCH   2  14
ATOM     14  C   UNL     1       2.801   6.514  18.070  0.00  0.00    +0.000 A 
ATOM     15  C   UNL     1       4.182   6.220  18.020  0.00  0.00    +0.000 A 
ATOM     16  C   UNL     1       4.623   4.895  17.929  0.00  0.00    +0.000 A 
ATOM     17  C   UNL     1       3.668   3.903  17.875  0.00  0.00    +0.000 A 
ATOM     18  C   UNL     1       2.323   4.190  17.907  0.00  0.00    +0.000 A 
ATOM     19  C   UNL     1       1.856   5.481  17.994  0.00  0.00    +0.000 A 
ATOM     20  O   UNL     1       1.549   3.077  17.833  0.00  0.00    +0.000 OA
ATOM     21  C   UNL     1       2.558   2.058  17.689  0.00  0.00    +0.000 C 
ATOM     22  O   UNL     1       3.905   2.569  17.773  0.00  0.00    +0.000 OA
ENDBRANCH   2  14
TORSDOF 2
ENDMDL
MODEL 7
REMARK VINA RESULT:      -7.2      3.814      6.490
REMARK  Name = 
REMARK  2 active torsions:
REMARK  status: ('A' for Active; 'I' for Inactive)
REMARK    1  A    between atoms: C_2  and  C_3
REMARK    2  A    between atoms: C_2  and  C_12
REMARK                            x       y       z     vdW  Elec       q    Type
REMARK                         _______ _______ _______ _____ _____    ______ ____
ROOT
ATOM      1  O   UNL     1       6.912   5.370  20.086  0.00  0.00    +0.000 OA
ATOM      2  C   UNL     1       6.177   5.336  19.104  0.00  0.00    +0.000 C 
ENDROOT
BRANCH   2   3
ATOM      3  C   UNL     1       6.672   5.564  17.745  0.00  0.00    +0.000 A 
ATOM      4  C   UNL     1       7.538   6.568  17.343  0.00  0.00    +0.000 A 
ATOM      5  N   UNL     1       7.746   6.447  15.998  0.00  0.00    +0.000 N 
ATOM      6  C   UNL     1       7.045   5.373  15.503  0.00  0.00    +0.000 A 
ATOM      7  C   UNL     1       6.949   4.870  14.199  0.00  0.00    +0.000 A 
ATOM      8 BR   UNL     1       7.876   5.682  12.766  0.00  0.00    +0.000 Br
ATOM      9  C   UNL     1       6.147   3.750  13.978  0.00  0.00    +0.000 A 
ATOM     10  C   UNL     1       5.464   3.149  15.032  0.00  0.00    +0.000 A 
ATOM     11  C   UNL     1       5.568   3.656  16.332  0.00  0.00    +0.000 A 
ATOM     12  C   UNL     1       6.373   4.790  16.579  0.00  0.00    +0.000 A 
ATOM     13  H   UNL     1       8.330   7.052  15.435  0.00  0.00    +0.000 HD
ENDBRANCH   2   3
BRANCH   2  14
ATOM     14  C   UNL     1       4.733   5.030  19.303  0.00  0.00    +0.000 A 
ATOM     15  C   UNL     1       3.778   6.027  19.006  0.00  0.00    +0.000 A 
ATOM     16  C   UNL     1       2.413   5.784  19.201  0.00  0.00    +0.000 A 
ATOM     17  C   UNL     1       2.046   4.554  19.703  0.00  0.00    +0.000 A 
ATOM     18  C   UNL     1       2.977   3.589  20.007  0.00  0.00    +0.000 A 
ATOM     19  C   UNL     1       4.325   3.796  19.829  0.00  0.00    +0.000 A 
ATOM     20  O   UNL     1       2.413   2.454  20.496  0.00  0.00    +0.000 OA
ATOM     21  C   UNL     1       1.023   2.836  20.524  0.00  0.00    +0.000 C 
ATOM     22  O   UNL     1       0.777   4.145  19.968  0.00  0.00    +0.000 OA
ENDBRANCH   2  14
TORSDOF 2
ENDMDL
MODEL 8
REMARK VINA RESULT:      -7.2      3.114      4.628
REMARK  Name = 
REMARK  2 active torsions:
REMARK  status: ('A' for Active; 'I' for Inactive)
REMARK    1  A    between atoms: C_2  and  C_3
REMARK    2  A    between atoms: C_2  and  C_12
REMARK                            x       y       z     vdW  Elec       q    Type
REMARK                         _______ _______ _______ _____ _____    ______ ____
ROOT
ATOM      1  O   UNL     1       4.340   7.476  17.423  0.00  0.00    +0.000 OA
ATOM      2  C   UNL     1       3.300   7.272  18.041  0.00  0.00    +0.000 C 
ENDROOT
BRANCH   2   3
ATOM      3  C   UNL     1       2.323   8.330  18.303  0.00  0.00    +0.000 A 
ATOM      4  C   UNL     1       1.904   9.302  17.410  0.00  0.00    +0.000 A 
ATOM      5  N   UNL     1       0.996  10.107  18.040  0.00  0.00    +0.000 N 
ATOM      6  C   UNL     1       0.794   9.677  19.330  0.00  0.00    +0.000 A 
ATOM      7  C   UNL     1      -0.032  10.185  20.341  0.00  0.00    +0.000 A 
ATOM      8 BR   UNL     1      -1.116  11.704  20.048  0.00  0.00    +0.000 Br
ATOM      9  C   UNL     1      -0.036   9.541  21.579  0.00  0.00    +0.000 A 
ATOM     10  C   UNL     1       0.762   8.420  21.797  0.00  0.00    +0.000 A 
ATOM     11  C   UNL     1       1.581   7.918  20.781  0.00  0.00    +0.000 A 
ATOM     12  C   UNL     1       1.603   8.554  19.520  0.00  0.00    +0.000 A 
ATOM     13  H   UNL     1       0.531  10.905  17.628  0.00  0.00    +0.000 HD
ENDBRANCH   2   3
BRANCH   2  14
ATOM     14  C   UNL     1       3.015   5.891  18.522  0.00  0.00    +0.000 A 
ATOM     15  C   UNL     1       3.880   5.309  19.475  0.00  0.00    +0.000 A 
ATOM     16  C   UNL     1       3.657   4.006  19.934  0.00  0.00    +0.000 A 
ATOM     17  C   UNL     1       2.582   3.317  19.414  0.00  0.00    +0.000 A 
ATOM     18  C   UNL     1       1.749   3.878  18.474  0.00  0.00    +0.000 A 
ATOM     19  C   UNL     1       1.941   5.155  18.001  0.00  0.00    +0.000 A 
ATOM     20  O   UNL     1       0.758   3.035  18.084  0.00  0.00    +0.000 OA
ATOM     21  C   UNL     1       1.098   1.855  18.839  0.00  0.00    +0.000 C 
ATOM     22  O   UNL     1       2.218   2.046  19.728  0.00  0.00    +0.000 OA
ENDBRANCH   2  14
TORSDOF 2
ENDMDL
MODEL 9
REMARK VINA RESULT:      -7.1      2.974      4.207
REMARK  Name = 
REMARK  2 active torsions:
REMARK  status: ('A' for Active; 'I' for Inactive)
REMARK    1  A    between atoms: C_2  and  C_3
REMARK    2  A    between atoms: C_2  and  C_12
REMARK                            x       y       z     vdW  Elec       q    Type
REMARK                         _______ _______ _______ _____ _____    ______ ____
ROOT
ATOM      1  O   UNL     1       3.053   7.993  17.551  0.00  0.00    +0.000 OA
ATOM      2  C   UNL     1       2.587   7.365  18.496  0.00  0.00    +0.000 C 
ENDROOT
BRANCH   2   3
ATOM      3  C   UNL     1       1.860   8.015  19.588  0.00  0.00    +0.000 A 
ATOM      4  C   UNL     1       1.801   7.591  20.905  0.00  0.00    +0.000 A 
ATOM      5  N   UNL     1       1.012   8.461  21.605  0.00  0.00    +0.000 N 
ATOM      6  C   UNL     1       0.559   9.462  20.780  0.00  0.00    +0.000 A 
ATOM      7  C   UNL     1      -0.271  10.558  21.048  0.00  0.00    +0.000 A 
ATOM      8 BR   UNL     1      -0.964  10.860  22.779  0.00  0.00    +0.000 Br
ATOM      9  C   UNL     1      -0.578  11.429  20.001  0.00  0.00    +0.000 A 
ATOM     10  C   UNL     1      -0.067  11.209  18.724  0.00  0.00    +0.000 A 
ATOM     11  C   UNL     1       0.763  10.112  18.466  0.00  0.00    +0.000 A 
ATOM     12  C   UNL     1       1.086   9.217  19.510  0.00  0.00    +0.000 A 
ATOM     13  H   UNL     1       0.788   8.391  22.589  0.00  0.00    +0.000 HD
ENDBRANCH   2   3
BRANCH   2  14
ATOM     14  C   UNL     1       2.750   5.884  18.520  0.00  0.00    +0.000 A 
ATOM     15  C   UNL     1       1.749   5.079  17.932  0.00  0.00    +0.000 A 
ATOM     16  C   UNL     1       1.856   3.684  17.954  0.00  0.00    +0.000 A 
ATOM     17  C   UNL     1       2.955   3.134  18.578  0.00  0.00    +0.000 A 
ATOM     18  C   UNL     1       3.922   3.918  19.164  0.00  0.00    +0.000 A 
ATOM     19  C   UNL     1       3.847   5.291  19.162  0.00  0.00    +0.000 A 
ATOM     20  O   UNL     1       4.915   3.185  19.732  0.00  0.00    +0.000 OA
ATOM     21  C   UNL     1       4.433   1.848  19.490  0.00  0.00    +0.000 C 
ATOM     22  O   UNL     1       3.221   1.808  18.708  0.00  0.00    +0.000 OA
ENDBRANCH   2  14
TORSDOF 2
ENDMDL
