MODEL 1
REMARK VINA RESULT:      -8.6      0.000      0.000
REMARK  Name = 
REMARK  9 active torsions:
REMARK  status: ('A' for Active; 'I' for Inactive)
REMARK    1  A    between atoms: C_1  and  C_2
REMARK    2  A    between atoms: C_2  and  O_3
REMARK    3  A    between atoms: O_3  and  C_4
REMARK    4  A    between atoms: N_9  and  C_10
REMARK    5  A    between atoms: C_19  and  C_20
REMARK    6  A    between atoms: C_20  and  N_21
REMARK    7  A    between atoms: N_21  and  C_22
REMARK    8  A    between atoms: C_22  and  C_23
REMARK    9  A    between atoms: C_23  and  C_24
REMARK                            x       y       z     vdW  Elec       q    Type
REMARK                         _______ _______ _______ _____ _____    ______ ____
ROOT
ATOM      1  C   UNL     1      -0.252  10.670  20.438  0.00  0.00    +0.000 A 
ATOM      2  N   UNL     1       0.433   9.569  20.878  0.00  0.00    +0.000 NA
ATOM      3  C   UNL     1       1.163   8.851  20.005  0.00  0.00    +0.000 A 
ATOM      4  C   UNL     1       1.755   7.632  20.388  0.00  0.00    +0.000 A 
ATOM      5  C   UNL     1       2.520   6.917  19.481  0.00  0.00    +0.000 A 
ATOM      6  C   UNL     1       2.873   7.476  18.248  0.00  0.00    +0.000 A 
ATOM      7  C   UNL     1       2.273   8.645  17.828  0.00  0.00    +0.000 A 
ATOM      8  C   UNL     1       1.349   9.283  18.695  0.00  0.00    +0.000 A 
ATOM      9  C   UNL     1       0.549  10.335  18.223  0.00  0.00    +0.000 A 
ATOM     10  C   UNL     1      -0.318  11.036  19.071  0.00  0.00    +0.000 A 
ATOM     11  C   UNL     1       3.780   6.566  17.496  0.00  0.00    +0.000 C 
ATOM     12  C   UNL     1       3.170   5.251  17.980  0.00  0.00    +0.000 C 
ATOM     13  C   UNL     1       2.953   5.472  19.499  0.00  0.00    +0.000 C 
ENDROOT
BRANCH   1  19
ATOM     14  C   UNL     1      -2.470  14.385  23.876  0.00  0.00    +0.000 C 
ATOM     15  O   UNL     1      -3.485  14.128  24.525  0.00  0.00    +0.000 OA
ATOM     16  N   UNL     1      -1.661  13.436  23.275  0.00  0.00    +0.000 N 
ATOM     17  C   UNL     1      -0.842  13.857  22.121  0.00  0.00    +0.000 C 
ATOM     18  C   UNL     1       0.114  12.763  21.633  0.00  0.00    +0.000 C 
ATOM     19  N   UNL     1      -0.706  11.551  21.411  0.00  0.00    +0.000 N 
ATOM     20  C   UNL     1      -1.205  11.021  22.689  0.00  0.00    +0.000 C 
ATOM     21  C   UNL     1      -2.197  12.059  23.244  0.00  0.00    +0.000 C 
BRANCH  14  22
ATOM     22  O   UNL     1      -2.061  15.653  23.598  0.00  0.00    +0.000 OA
BRANCH  22  24
ATOM     23  C   UNL     1      -0.274  17.033  24.358  0.00  0.00    +0.000 C 
ATOM     24  C   UNL     1      -1.621  16.431  24.716  0.00  0.00    +0.000 C 
ENDBRANCH  22  24
ENDBRANCH  14  22
ENDBRANCH   1  19
BRANCH  10  25
ATOM     25  C   UNL     1      -1.219  12.184  18.554  0.00  0.00    +0.000 C 
BRANCH  25  26
ATOM     26  N   UNL     1      -2.024  11.887  17.326  0.00  0.00    +0.000 NA
ATOM     27  H   UNL     1      -1.432  11.268  16.766  0.00  0.00    +0.000 HD
BRANCH  26  28
ATOM     28  C   UNL     1      -3.309  11.135  17.540  0.00  0.00    +0.000 C 
BRANCH  28  29
ATOM     29  C   UNL     1      -4.653  11.928  17.514  0.00  0.00    +0.000 C 
BRANCH  29  30
ATOM     30  C   UNL     1      -5.669  11.586  18.613  0.00  0.00    +0.000 A 
ATOM     31  C   UNL     1      -6.873  10.972  18.294  0.00  0.00    +0.000 A 
ATOM     32  N   UNL     1      -7.260  10.316  19.455  0.00  0.00    +0.000 N 
ATOM     33  C   UNL     1      -7.064  11.276  20.406  0.00  0.00    +0.000 A 
ATOM     34  C   UNL     1      -7.827  11.551  21.538  0.00  0.00    +0.000 A 
ATOM     35  C   UNL     1      -7.284  12.447  22.449  0.00  0.00    +0.000 A 
ATOM     36  C   UNL     1      -5.975  12.911  22.257  0.00  0.00    +0.000 A 
ATOM     37  C   UNL     1      -5.230  12.626  21.082  0.00  0.00    +0.000 A 
ATOM     38  C   UNL     1      -5.839  11.880  20.045  0.00  0.00    +0.000 A 
ATOM     39  H   UNL     1      -6.874   9.402  19.644  0.00  0.00    +0.000 HD
ENDBRANCH  29  30
ENDBRANCH  28  29
ENDBRANCH  26  28
ENDBRANCH  25  26
ENDBRANCH  10  25
TORSDOF 8
ENDMDL
MODEL 2
REMARK VINA RESULT:      -8.4      1.046      1.443
REMARK  Name = 
REMARK  9 active torsions:
REMARK  status: ('A' for Active; 'I' for Inactive)
REMARK    1  A    between atoms: C_1  and  C_2
REMARK    2  A    between atoms: C_2  and  O_3
REMARK    3  A    between atoms: O_3  and  C_4
REMARK    4  A    between atoms: N_9  and  C_10
REMARK    5  A    between atoms: C_19  and  C_20
REMARK    6  A    between atoms: C_20  and  N_21
REMARK    7  A    between atoms: N_21  and  C_22
REMARK    8  A    between atoms: C_22  and  C_23
REMARK    9  A    between atoms: C_23  and  C_24
REMARK                            x       y       z     vdW  Elec       q    Type
REMARK                         _______ _______ _______ _____ _____    ______ ____
ROOT
ATOM      1  C   UNL     1       0.027  10.294  20.298  0.00  0.00    +0.000 A 
ATOM      2  N   UNL     1       0.735   9.208  20.739  0.00  0.00    +0.000 NA
ATOM      3  C   UNL     1       1.454   8.485  19.861  0.00  0.00    +0.000 A 
ATOM      4  C   UNL     1       2.069   7.279  20.250  0.00  0.00    +0.000 A 
ATOM      5  C   UNL     1       2.822   6.559  19.337  0.00  0.00    +0.000 A 
ATOM      6  C   UNL     1       3.141   7.102  18.087  0.00  0.00    +0.000 A 
ATOM      7  C   UNL     1       2.517   8.258  17.662  0.00  0.00    +0.000 A 
ATOM      8  C   UNL     1       1.605   8.899  18.540  0.00  0.00    +0.000 A 
ATOM      9  C   UNL     1       0.782   9.933  18.070  0.00  0.00    +0.000 A 
ATOM     10  C   UNL     1      -0.074  10.637  18.927  0.00  0.00    +0.000 A 
ATOM     11  C   UNL     1       4.041   6.192  17.329  0.00  0.00    +0.000 C 
ATOM     12  C   UNL     1       3.458   4.878  17.847  0.00  0.00    +0.000 C 
ATOM     13  C   UNL     1       3.274   5.120  19.367  0.00  0.00    +0.000 C 
ENDROOT
BRANCH   1  19
ATOM     14  C   UNL     1      -2.137  14.057  23.717  0.00  0.00    +0.000 C 
ATOM     15  O   UNL     1      -3.162  13.822  24.358  0.00  0.00    +0.000 OA
ATOM     16  N   UNL     1      -1.344  13.091  23.123  0.00  0.00    +0.000 N 
ATOM     17  C   UNL     1      -0.507  13.494  21.975  0.00  0.00    +0.000 C 
ATOM     18  C   UNL     1       0.429  12.379  21.494  0.00  0.00    +0.000 C 
ATOM     19  N   UNL     1      -0.415  11.185  21.267  0.00  0.00    +0.000 N 
ATOM     20  C   UNL     1      -0.935  10.666  22.541  0.00  0.00    +0.000 C 
ATOM     21  C   UNL     1      -1.909  11.726  23.089  0.00  0.00    +0.000 C 
BRANCH  14  22
ATOM     22  O   UNL     1      -1.698  15.316  23.441  0.00  0.00    +0.000 OA
BRANCH  22  24
ATOM     23  C   UNL     1      -2.049  17.673  23.484  0.00  0.00    +0.000 C 
ATOM     24  C   UNL     1      -2.712  16.319  23.308  0.00  0.00    +0.000 C 
ENDBRANCH  22  24
ENDBRANCH  14  22
ENDBRANCH   1  19
BRANCH  10  25
ATOM     25  C   UNL     1      -1.001  11.766  18.412  0.00  0.00    +0.000 C 
BRANCH  25  26
ATOM     26  N   UNL     1      -1.867  11.423  17.240  0.00  0.00    +0.000 NA
ATOM     27  H   UNL     1      -1.219  11.094  16.520  0.00  0.00    +0.000 HD
BRANCH  26  28
ATOM     28  C   UNL     1      -2.849  10.303  17.444  0.00  0.00    +0.000 C 
BRANCH  28  29
ATOM     29  C   UNL     1      -4.329  10.515  16.998  0.00  0.00    +0.000 C 
BRANCH  29  30
ATOM     30  C   UNL     1      -5.291  11.066  18.060  0.00  0.00    +0.000 A 
ATOM     31  C   UNL     1      -5.146  12.361  18.538  0.00  0.00    +0.000 A 
ATOM     32  N   UNL     1      -6.408  12.721  18.991  0.00  0.00    +0.000 N 
ATOM     33  C   UNL     1      -6.776  11.623  19.715  0.00  0.00    +0.000 A 
ATOM     34  C   UNL     1      -7.498  11.565  20.905  0.00  0.00    +0.000 A 
ATOM     35  C   UNL     1      -7.914  10.305  21.317  0.00  0.00    +0.000 A 
ATOM     36  C   UNL     1      -7.711   9.206  20.471  0.00  0.00    +0.000 A 
ATOM     37  C   UNL     1      -6.955   9.296  19.272  0.00  0.00    +0.000 A 
ATOM     38  C   UNL     1      -6.347  10.529  18.932  0.00  0.00    +0.000 A 
ATOM     39  H   UNL     1      -7.079  13.071  18.322  0.00  0.00    +0.000 HD
ENDBRANCH  29  30
ENDBRANCH  28  29
ENDBRANCH  26  28
ENDBRANCH  25  26
ENDBRANCH  10  25
TORSDOF 8
ENDMDL
MODEL 3
REMARK VINA RESULT:      -8.3      1.132      1.339
REMARK  Name = 
REMARK  9 active torsions:
REMARK  status: ('A' for Active; 'I' for Inactive)
REMARK    1  A    between atoms: C_1  and  C_2
REMARK    2  A    between atoms: C_2  and  O_3
REMARK    3  A    between atoms: O_3  and  C_4
REMARK    4  A    between atoms: N_9  and  C_10
REMARK    5  A    between atoms: C_19  and  C_20
REMARK    6  A    between atoms: C_20  and  N_21
REMARK    7  A    between atoms: N_21  and  C_22
REMARK    8  A    between atoms: C_22  and  C_23
REMARK    9  A    between atoms: C_23  and  C_24
REMARK                            x       y       z     vdW  Elec       q    Type
REMARK                         _______ _______ _______ _____ _____    ______ ____
ROOT
ATOM      1  C   UNL     1      -0.228  10.308  20.489  0.00  0.00    +0.000 A 
ATOM      2  N   UNL     1       0.591   9.302  20.928  0.00  0.00    +0.000 NA
ATOM      3  C   UNL     1       1.296   8.585  20.033  0.00  0.00    +0.000 A 
ATOM      4  C   UNL     1       2.029   7.450  20.432  0.00  0.00    +0.000 A 
ATOM      5  C   UNL     1       2.764   6.737  19.500  0.00  0.00    +0.000 A 
ATOM      6  C   UNL     1       2.946   7.231  18.203  0.00  0.00    +0.000 A 
ATOM      7  C   UNL     1       2.206   8.313  17.772  0.00  0.00    +0.000 A 
ATOM      8  C   UNL     1       1.316   8.935  18.685  0.00  0.00    +0.000 A 
ATOM      9  C   UNL     1       0.384   9.879  18.230  0.00  0.00    +0.000 A 
ATOM     10  C   UNL     1      -0.458  10.566  19.116  0.00  0.00    +0.000 A 
ATOM     11  C   UNL     1       3.854   6.348  17.423  0.00  0.00    +0.000 C 
ATOM     12  C   UNL     1       3.413   5.026  18.051  0.00  0.00    +0.000 C 
ATOM     13  C   UNL     1       3.325   5.338  19.566  0.00  0.00    +0.000 C 
ENDROOT
BRANCH   1  19
ATOM     14  C   UNL     1      -2.404  14.098  23.872  0.00  0.00    +0.000 C 
ATOM     15  O   UNL     1      -3.370  13.834  24.588  0.00  0.00    +0.000 OA
ATOM     16  N   UNL     1      -1.591  13.153  23.270  0.00  0.00    +0.000 N 
ATOM     17  C   UNL     1      -0.855  13.549  22.053  0.00  0.00    +0.000 C 
ATOM     18  C   UNL     1       0.117  12.469  21.564  0.00  0.00    +0.000 C 
ATOM     19  N   UNL     1      -0.664  11.218  21.445  0.00  0.00    +0.000 N 
ATOM     20  C   UNL     1      -1.070  10.731  22.772  0.00  0.00    +0.000 C 
ATOM     21  C   UNL     1      -2.072  11.756  23.334  0.00  0.00    +0.000 C 
BRANCH  14  22
ATOM     22  O   UNL     1      -2.063  15.366  23.512  0.00  0.00    +0.000 OA
BRANCH  22  24
ATOM     23  C   UNL     1      -2.612  17.462  22.522  0.00  0.00    +0.000 C 
ATOM     24  C   UNL     1      -3.150  16.270  23.292  0.00  0.00    +0.000 C 
ENDBRANCH  22  24
ENDBRANCH  14  22
ENDBRANCH   1  19
BRANCH  10  25
ATOM     25  C   UNL     1      -1.503  11.595  18.620  0.00  0.00    +0.000 C 
BRANCH  25  26
ATOM     26  N   UNL     1      -1.665  11.705  17.135  0.00  0.00    +0.000 NA
ATOM     27  H   UNL     1      -0.953  11.083  16.745  0.00  0.00    +0.000 HD
BRANCH  26  28
ATOM     28  C   UNL     1      -2.975  11.227  16.572  0.00  0.00    +0.000 C 
BRANCH  28  29
ATOM     29  C   UNL     1      -4.047  10.658  17.552  0.00  0.00    +0.000 C 
BRANCH  29  30
ATOM     30  C   UNL     1      -5.285  11.532  17.794  0.00  0.00    +0.000 A 
ATOM     31  C   UNL     1      -5.678  12.474  16.852  0.00  0.00    +0.000 A 
ATOM     32  N   UNL     1      -7.038  12.654  17.069  0.00  0.00    +0.000 N 
ATOM     33  C   UNL     1      -7.096  12.788  18.426  0.00  0.00    +0.000 A 
ATOM     34  C   UNL     1      -7.916  13.619  19.186  0.00  0.00    +0.000 A 
ATOM     35  C   UNL     1      -7.916  13.404  20.558  0.00  0.00    +0.000 A 
ATOM     36  C   UNL     1      -7.217  12.307  21.079  0.00  0.00    +0.000 A 
ATOM     37  C   UNL     1      -6.375  11.489  20.280  0.00  0.00    +0.000 A 
ATOM     38  C   UNL     1      -6.199  11.812  18.912  0.00  0.00    +0.000 A 
ATOM     39  H   UNL     1      -7.684  12.001  16.648  0.00  0.00    +0.000 HD
ENDBRANCH  29  30
ENDBRANCH  28  29
ENDBRANCH  26  28
ENDBRANCH  25  26
ENDBRANCH  10  25
TORSDOF 8
ENDMDL
MODEL 4
REMARK VINA RESULT:      -8.3      1.175      1.497
REMARK  Name = 
REMARK  9 active torsions:
REMARK  status: ('A' for Active; 'I' for Inactive)
REMARK    1  A    between atoms: C_1  and  C_2
REMARK    2  A    between atoms: C_2  and  O_3
REMARK    3  A    between atoms: O_3  and  C_4
REMARK    4  A    between atoms: N_9  and  C_10
REMARK    5  A    between atoms: C_19  and  C_20
REMARK    6  A    between atoms: C_20  and  N_21
REMARK    7  A    between atoms: N_21  and  C_22
REMARK    8  A    between atoms: C_22  and  C_23
REMARK    9  A    between atoms: C_23  and  C_24
REMARK                            x       y       z     vdW  Elec       q    Type
REMARK                         _______ _______ _______ _____ _____    ______ ____
ROOT
ATOM      1  C   UNL     1       0.596   9.490  19.978  0.00  0.00    +0.000 A 
ATOM      2  N   UNL     1       1.317   8.435  20.469  0.00  0.00    +0.000 NA
ATOM      3  C   UNL     1       2.072   7.701  19.631  0.00  0.00    +0.000 A 
ATOM      4  C   UNL     1       2.705   6.522  20.071  0.00  0.00    +0.000 A 
ATOM      5  C   UNL     1       3.494   5.791  19.199  0.00  0.00    +0.000 A 
ATOM      6  C   UNL     1       3.829   6.302  17.940  0.00  0.00    +0.000 A 
ATOM      7  C   UNL     1       3.189   7.429  17.465  0.00  0.00    +0.000 A 
ATOM      8  C   UNL     1       2.243   8.076  18.301  0.00  0.00    +0.000 A 
ATOM      9  C   UNL     1       1.409   9.076  17.780  0.00  0.00    +0.000 A 
ATOM     10  C   UNL     1       0.517   9.787  18.595  0.00  0.00    +0.000 A 
ATOM     11  C   UNL     1       4.766   5.389  17.231  0.00  0.00    +0.000 C 
ATOM     12  C   UNL     1       4.201   4.079  17.778  0.00  0.00    +0.000 C 
ATOM     13  C   UNL     1       3.977   4.365  19.285  0.00  0.00    +0.000 C 
ENDROOT
BRANCH   1  19
ATOM     14  C   UNL     1      -1.794  13.234  23.265  0.00  0.00    +0.000 C 
ATOM     15  O   UNL     1      -2.721  12.925  24.016  0.00  0.00    +0.000 OA
ATOM     16  N   UNL     1      -0.924  12.331  22.680  0.00  0.00    +0.000 N 
ATOM     17  C   UNL     1      -0.248  12.733  21.431  0.00  0.00    +0.000 C 
ATOM     18  C   UNL     1       0.795  11.712  20.959  0.00  0.00    +0.000 C 
ATOM     19  N   UNL     1       0.111  10.401  20.908  0.00  0.00    +0.000 N 
ATOM     20  C   UNL     1      -0.226   9.938  22.263  0.00  0.00    +0.000 C 
ATOM     21  C   UNL     1      -1.292  10.905  22.810  0.00  0.00    +0.000 C 
BRANCH  14  22
ATOM     22  O   UNL     1      -1.562  14.509  22.848  0.00  0.00    +0.000 OA
BRANCH  22  24
ATOM     23  C   UNL     1      -2.939  15.656  21.279  0.00  0.00    +0.000 C 
ATOM     24  C   UNL     1      -2.711  15.357  22.750  0.00  0.00    +0.000 C 
ENDBRANCH  22  24
ENDBRANCH  14  22
ENDBRANCH   1  19
BRANCH  10  25
ATOM     25  C   UNL     1      -0.422  10.878  18.024  0.00  0.00    +0.000 C 
BRANCH  25  26
ATOM     26  N   UNL     1      -1.875  10.523  17.954  0.00  0.00    +0.000 NA
ATOM     27  H   UNL     1      -1.980   9.712  18.569  0.00  0.00    +0.000 HD
BRANCH  26  28
ATOM     28  C   UNL     1      -2.837  11.555  18.476  0.00  0.00    +0.000 C 
BRANCH  28  29
ATOM     29  C   UNL     1      -4.261  11.638  17.844  0.00  0.00    +0.000 C 
BRANCH  29  30
ATOM     30  C   UNL     1      -5.446  11.570  18.817  0.00  0.00    +0.000 A 
ATOM     31  C   UNL     1      -6.714  11.231  18.362  0.00  0.00    +0.000 A 
ATOM     32  N   UNL     1      -7.369  10.717  19.473  0.00  0.00    +0.000 N 
ATOM     33  C   UNL     1      -7.070  11.638  20.435  0.00  0.00    +0.000 A 
ATOM     34  C   UNL     1      -7.875  12.114  21.467  0.00  0.00    +0.000 A 
ATOM     35  C   UNL     1      -7.249  12.895  22.431  0.00  0.00    +0.000 A 
ATOM     36  C   UNL     1      -5.856  13.047  22.392  0.00  0.00    +0.000 A 
ATOM     37  C   UNL     1      -5.066  12.564  21.315  0.00  0.00    +0.000 A 
ATOM     38  C   UNL     1      -5.707  11.940  20.217  0.00  0.00    +0.000 A 
ATOM     39  H   UNL     1      -7.224   9.746  19.711  0.00  0.00    +0.000 HD
ENDBRANCH  29  30
ENDBRANCH  28  29
ENDBRANCH  26  28
ENDBRANCH  25  26
ENDBRANCH  10  25
TORSDOF 8
ENDMDL
MODEL 5
REMARK VINA RESULT:      -8.2      2.467      4.623
REMARK  Name = 
REMARK  9 active torsions:
REMARK  status: ('A' for Active; 'I' for Inactive)
REMARK    1  A    between atoms: C_1  and  C_2
REMARK    2  A    between atoms: C_2  and  O_3
REMARK    3  A    between atoms: O_3  and  C_4
REMARK    4  A    between atoms: N_9  and  C_10
REMARK    5  A    between atoms: C_19  and  C_20
REMARK    6  A    between atoms: C_20  and  N_21
REMARK    7  A    between atoms: N_21  and  C_22
REMARK    8  A    between atoms: C_22  and  C_23
REMARK    9  A    between atoms: C_23  and  C_24
REMARK                            x       y       z     vdW  Elec       q    Type
REMARK                         _______ _______ _______ _____ _____    ______ ____
ROOT
ATOM      1  C   UNL     1       1.779   8.572  19.531  0.00  0.00    +0.000 A 
ATOM      2  N   UNL     1       2.232   7.734  18.547  0.00  0.00    +0.000 NA
ATOM      3  C   UNL     1       2.246   6.406  18.764  0.00  0.00    +0.000 A 
ATOM      4  C   UNL     1       2.843   5.528  17.839  0.00  0.00    +0.000 A 
ATOM      5  C   UNL     1       2.830   4.163  18.070  0.00  0.00    +0.000 A 
ATOM      6  C   UNL     1       2.068   3.622  19.112  0.00  0.00    +0.000 A 
ATOM      7  C   UNL     1       1.511   4.457  20.059  0.00  0.00    +0.000 A 
ATOM      8  C   UNL     1       1.681   5.858  19.913  0.00  0.00    +0.000 A 
ATOM      9  C   UNL     1       1.335   6.723  20.961  0.00  0.00    +0.000 A 
ATOM     10  C   UNL     1       1.419   8.116  20.822  0.00  0.00    +0.000 A 
ATOM     11  C   UNL     1       2.129   2.135  19.094  0.00  0.00    +0.000 C 
ATOM     12  C   UNL     1       3.569   2.012  18.598  0.00  0.00    +0.000 C 
ATOM     13  C   UNL     1       3.669   3.064  17.465  0.00  0.00    +0.000 C 
ENDROOT
BRANCH   1  19
ATOM     14  C   UNL     1       0.645  13.904  18.618  0.00  0.00    +0.000 C 
ATOM     15  O   UNL     1       1.543  14.722  18.420  0.00  0.00    +0.000 OA
ATOM     16  N   UNL     1       0.795  12.532  18.511  0.00  0.00    +0.000 N 
ATOM     17  C   UNL     1      -0.133  11.674  19.274  0.00  0.00    +0.000 C 
ATOM     18  C   UNL     1       0.038  10.182  18.964  0.00  0.00    +0.000 C 
ATOM     19  N   UNL     1       1.473   9.873  19.149  0.00  0.00    +0.000 N 
ATOM     20  C   UNL     1       2.283  10.530  18.111  0.00  0.00    +0.000 C 
ATOM     21  C   UNL     1       2.182  12.045  18.362  0.00  0.00    +0.000 C 
BRANCH  14  22
ATOM     22  O   UNL     1      -0.598  14.247  19.054  0.00  0.00    +0.000 OA
BRANCH  22  24
ATOM     23  C   UNL     1      -1.224  15.448  21.015  0.00  0.00    +0.000 C 
ATOM     24  C   UNL     1      -0.734  15.571  19.583  0.00  0.00    +0.000 C 
ENDBRANCH  22  24
ENDBRANCH  14  22
ENDBRANCH   1  19
BRANCH  10  25
ATOM     25  C   UNL     1       1.060   9.077  21.981  0.00  0.00    +0.000 C 
BRANCH  25  26
ATOM     26  N   UNL     1      -0.387   9.138  22.362  0.00  0.00    +0.000 NA
ATOM     27  H   UNL     1      -0.553   8.286  22.904  0.00  0.00    +0.000 HD
BRANCH  26  28
ATOM     28  C   UNL     1      -0.791  10.275  23.260  0.00  0.00    +0.000 C 
BRANCH  28  29
ATOM     29  C   UNL     1      -1.028  11.681  22.625  0.00  0.00    +0.000 C 
BRANCH  29  30
ATOM     30  C   UNL     1      -2.477  12.189  22.612  0.00  0.00    +0.000 A 
ATOM     31  C   UNL     1      -3.230  12.202  23.779  0.00  0.00    +0.000 A 
ATOM     32  N   UNL     1      -4.191  13.183  23.575  0.00  0.00    +0.000 N 
ATOM     33  C   UNL     1      -4.640  12.888  22.321  0.00  0.00    +0.000 A 
ATOM     34  C   UNL     1      -5.937  12.971  21.817  0.00  0.00    +0.000 A 
ATOM     35  C   UNL     1      -6.079  12.810  20.444  0.00  0.00    +0.000 A 
ATOM     36  C   UNL     1      -4.934  12.711  19.643  0.00  0.00    +0.000 A 
ATOM     37  C   UNL     1      -3.627  12.612  20.190  0.00  0.00    +0.000 A 
ATOM     38  C   UNL     1      -3.471  12.569  21.597  0.00  0.00    +0.000 A 
ATOM     39  H   UNL     1      -3.943  14.146  23.755  0.00  0.00    +0.000 HD
ENDBRANCH  29  30
ENDBRANCH  28  29
ENDBRANCH  26  28
ENDBRANCH  25  26
ENDBRANCH  10  25
TORSDOF 8
ENDMDL
MODEL 6
REMARK VINA RESULT:      -8.2      2.373      5.037
REMARK  Name = 
REMARK  9 active torsions:
REMARK  status: ('A' for Active; 'I' for Inactive)
REMARK    1  A    between atoms: C_1  and  C_2
REMARK    2  A    between atoms: C_2  and  O_3
REMARK    3  A    between atoms: O_3  and  C_4
REMARK    4  A    between atoms: N_9  and  C_10
REMARK    5  A    between atoms: C_19  and  C_20
REMARK    6  A    between atoms: C_20  and  N_21
REMARK    7  A    between atoms: N_21  and  C_22
REMARK    8  A    between atoms: C_22  and  C_23
REMARK    9  A    between atoms: C_23  and  C_24
REMARK                            x       y       z     vdW  Elec       q    Type
REMARK                         _______ _______ _______ _____ _____    ______ ____
ROOT
ATOM      1  C   UNL     1       0.306   9.575  19.310  0.00  0.00    +0.000 A 
ATOM      2  N   UNL     1       1.106   9.232  18.253  0.00  0.00    +0.000 NA
ATOM      3  C   UNL     1       2.049   8.286  18.416  0.00  0.00    +0.000 A 
ATOM      4  C   UNL     1       2.986   8.016  17.400  0.00  0.00    +0.000 A 
ATOM      5  C   UNL     1       3.937   7.025  17.578  0.00  0.00    +0.000 A 
ATOM      6  C   UNL     1       3.867   6.157  18.674  0.00  0.00    +0.000 A 
ATOM      7  C   UNL     1       2.991   6.425  19.706  0.00  0.00    +0.000 A 
ATOM      8  C   UNL     1       2.137   7.553  19.596  0.00  0.00    +0.000 A 
ATOM      9  C   UNL     1       1.403   7.992  20.708  0.00  0.00    +0.000 A 
ATOM     10  C   UNL     1       0.494   9.055  20.614  0.00  0.00    +0.000 A 
ATOM     11  C   UNL     1       4.928   5.117  18.593  0.00  0.00    +0.000 C 
ATOM     12  C   UNL     1       5.999   5.993  17.943  0.00  0.00    +0.000 C 
ATOM     13  C   UNL     1       5.232   6.775  16.846  0.00  0.00    +0.000 C 
ENDROOT
BRANCH   1  19
ATOM     14  C   UNL     1      -4.569  12.065  18.549  0.00  0.00    +0.000 C 
ATOM     15  O   UNL     1      -4.939  12.981  19.285  0.00  0.00    +0.000 OA
ATOM     16  N   UNL     1      -3.261  11.626  18.440  0.00  0.00    +0.000 N 
ATOM     17  C   UNL     1      -3.033  10.240  17.986  0.00  0.00    +0.000 C 
ATOM     18  C   UNL     1      -1.550   9.917  17.767  0.00  0.00    +0.000 C 
ATOM     19  N   UNL     1      -0.846  10.293  19.013  0.00  0.00    +0.000 N 
ATOM     20  C   UNL     1      -0.852  11.753  19.192  0.00  0.00    +0.000 C 
ATOM     21  C   UNL     1      -2.315  12.164  19.440  0.00  0.00    +0.000 C 
BRANCH  14  22
ATOM     22  O   UNL     1      -5.424  11.308  17.808  0.00  0.00    +0.000 OA
BRANCH  22  24
ATOM     23  C   UNL     1      -6.880   9.948  19.115  0.00  0.00    +0.000 C 
ATOM     24  C   UNL     1      -6.768  11.220  18.294  0.00  0.00    +0.000 C 
ENDBRANCH  22  24
ENDBRANCH  14  22
ENDBRANCH   1  19
BRANCH  10  25
ATOM     25  C   UNL     1      -0.304   9.560  21.841  0.00  0.00    +0.000 C 
BRANCH  25  26
ATOM     26  N   UNL     1       0.231  10.785  22.516  0.00  0.00    +0.000 NA
ATOM     27  H   UNL     1       0.936  11.155  21.872  0.00  0.00    +0.000 HD
BRANCH  26  28
ATOM     28  C   UNL     1      -0.748  11.906  22.732  0.00  0.00    +0.000 C 
BRANCH  28  29
ATOM     29  C   UNL     1      -2.205  11.553  23.164  0.00  0.00    +0.000 C 
BRANCH  29  30
ATOM     30  C   UNL     1      -3.130  12.737  23.480  0.00  0.00    +0.000 A 
ATOM     31  C   UNL     1      -4.101  12.630  24.467  0.00  0.00    +0.000 A 
ATOM     32  N   UNL     1      -4.338  13.933  24.882  0.00  0.00    +0.000 N 
ATOM     33  C   UNL     1      -4.455  14.596  23.695  0.00  0.00    +0.000 A 
ATOM     34  C   UNL     1      -5.310  15.644  23.362  0.00  0.00    +0.000 A 
ATOM     35  C   UNL     1      -5.075  16.272  22.146  0.00  0.00    +0.000 A 
ATOM     36  C   UNL     1      -3.941  15.922  21.401  0.00  0.00    +0.000 A 
ATOM     37  C   UNL     1      -3.099  14.837  21.759  0.00  0.00    +0.000 A 
ATOM     38  C   UNL     1      -3.434  14.049  22.887  0.00  0.00    +0.000 A 
ATOM     39  H   UNL     1      -3.720  14.339  25.571  0.00  0.00    +0.000 HD
ENDBRANCH  29  30
ENDBRANCH  28  29
ENDBRANCH  26  28
ENDBRANCH  25  26
ENDBRANCH  10  25
TORSDOF 8
ENDMDL
MODEL 7
REMARK VINA RESULT:      -8.0      2.180      5.246
REMARK  Name = 
REMARK  9 active torsions:
REMARK  status: ('A' for Active; 'I' for Inactive)
REMARK    1  A    between atoms: C_1  and  C_2
REMARK    2  A    between atoms: C_2  and  O_3
REMARK    3  A    between atoms: O_3  and  C_4
REMARK    4  A    between atoms: N_9  and  C_10
REMARK    5  A    between atoms: C_19  and  C_20
REMARK    6  A    between atoms: C_20  and  N_21
REMARK    7  A    between atoms: N_21  and  C_22
REMARK    8  A    between atoms: C_22  and  C_23
REMARK    9  A    between atoms: C_23  and  C_24
REMARK                            x       y       z     vdW  Elec       q    Type
REMARK                         _______ _______ _______ _____ _____    ______ ____
ROOT
ATOM      1  C   UNL     1       0.428   9.384  19.400  0.00  0.00    +0.000 A 
ATOM      2  N   UNL     1       1.280   9.132  18.358  0.00  0.00    +0.000 NA
ATOM      3  C   UNL     1       2.210   8.167  18.481  0.00  0.00    +0.000 A 
ATOM      4  C   UNL     1       3.197   7.983  17.494  0.00  0.00    +0.000 A 
ATOM      5  C   UNL     1       4.133   6.972  17.629  0.00  0.00    +0.000 A 
ATOM      6  C   UNL     1       4.002   6.007  18.634  0.00  0.00    +0.000 A 
ATOM      7  C   UNL     1       3.075   6.186  19.640  0.00  0.00    +0.000 A 
ATOM      8  C   UNL     1       2.232   7.327  19.591  0.00  0.00    +0.000 A 
ATOM      9  C   UNL     1       1.443   7.669  20.700  0.00  0.00    +0.000 A 
ATOM     10  C   UNL     1       0.545   8.744  20.658  0.00  0.00    +0.000 A 
ATOM     11  C   UNL     1       5.062   4.969  18.512  0.00  0.00    +0.000 C 
ATOM     12  C   UNL     1       6.169   5.891  18.002  0.00  0.00    +0.000 C 
ATOM     13  C   UNL     1       5.464   6.778  16.944  0.00  0.00    +0.000 C 
ENDROOT
BRANCH   1  19
ATOM     14  C   UNL     1      -4.384  11.993  18.642  0.00  0.00    +0.000 C 
ATOM     15  O   UNL     1      -4.765  12.869  19.420  0.00  0.00    +0.000 OA
ATOM     16  N   UNL     1      -3.080  11.540  18.546  0.00  0.00    +0.000 N 
ATOM     17  C   UNL     1      -2.857  10.180  18.017  0.00  0.00    +0.000 C 
ATOM     18  C   UNL     1      -1.373   9.848  17.824  0.00  0.00    +0.000 C 
ATOM     19  N   UNL     1      -0.703  10.137  19.112  0.00  0.00    +0.000 N 
ATOM     20  C   UNL     1      -0.695  11.583  19.379  0.00  0.00    +0.000 C 
ATOM     21  C   UNL     1      -2.159  12.002  19.606  0.00  0.00    +0.000 C 
BRANCH  14  22
ATOM     22  O   UNL     1      -5.226  11.295  17.831  0.00  0.00    +0.000 OA
BRANCH  22  24
ATOM     23  C   UNL     1      -6.803   9.983  19.043  0.00  0.00    +0.000 C 
ATOM     24  C   UNL     1      -6.598  11.253  18.237  0.00  0.00    +0.000 C 
ENDBRANCH  22  24
ENDBRANCH  14  22
ENDBRANCH   1  19
BRANCH  10  25
ATOM     25  C   UNL     1      -0.314   9.141  21.883  0.00  0.00    +0.000 C 
BRANCH  25  26
ATOM     26  N   UNL     1       0.010  10.459  22.515  0.00  0.00    +0.000 NA
ATOM     27  H   UNL     1       0.384  11.032  21.754  0.00  0.00    +0.000 HD
BRANCH  26  28
ATOM     28  C   UNL     1      -1.153  11.233  23.072  0.00  0.00    +0.000 C 
BRANCH  28  29
ATOM     29  C   UNL     1      -1.103  12.792  23.032  0.00  0.00    +0.000 C 
BRANCH  29  30
ATOM     30  C   UNL     1      -2.392  13.528  23.423  0.00  0.00    +0.000 A 
ATOM     31  C   UNL     1      -3.600  13.202  22.822  0.00  0.00    +0.000 A 
ATOM     32  N   UNL     1      -4.572  13.586  23.736  0.00  0.00    +0.000 N 
ATOM     33  C   UNL     1      -4.152  14.834  24.093  0.00  0.00    +0.000 A 
ATOM     34  C   UNL     1      -4.917  15.966  24.369  0.00  0.00    +0.000 A 
ATOM     35  C   UNL     1      -4.243  17.052  24.913  0.00  0.00    +0.000 A 
ATOM     36  C   UNL     1      -2.896  16.912  25.272  0.00  0.00    +0.000 A 
ATOM     37  C   UNL     1      -2.140  15.751  24.961  0.00  0.00    +0.000 A 
ATOM     38  C   UNL     1      -2.752  14.708  24.224  0.00  0.00    +0.000 A 
ATOM     39  H   UNL     1      -4.804  12.951  24.487  0.00  0.00    +0.000 HD
ENDBRANCH  29  30
ENDBRANCH  28  29
ENDBRANCH  26  28
ENDBRANCH  25  26
ENDBRANCH  10  25
TORSDOF 8
ENDMDL
MODEL 8
REMARK VINA RESULT:      -8.0      2.966      7.256
REMARK  Name = 
REMARK  9 active torsions:
REMARK  status: ('A' for Active; 'I' for Inactive)
REMARK    1  A    between atoms: C_1  and  C_2
REMARK    2  A    between atoms: C_2  and  O_3
REMARK    3  A    between atoms: O_3  and  C_4
REMARK    4  A    between atoms: N_9  and  C_10
REMARK    5  A    between atoms: C_19  and  C_20
REMARK    6  A    between atoms: C_20  and  N_21
REMARK    7  A    between atoms: N_21  and  C_22
REMARK    8  A    between atoms: C_22  and  C_23
REMARK    9  A    between atoms: C_23  and  C_24
REMARK                            x       y       z     vdW  Elec       q    Type
REMARK                         _______ _______ _______ _____ _____    ______ ____
ROOT
ATOM      1  C   UNL     1      -0.929  11.641  20.684  0.00  0.00    +0.000 A 
ATOM      2  N   UNL     1      -1.226  12.035  21.962  0.00  0.00    +0.000 NA
ATOM      3  C   UNL     1      -2.270  12.857  22.175  0.00  0.00    +0.000 A 
ATOM      4  C   UNL     1      -2.512  13.402  23.451  0.00  0.00    +0.000 A 
ATOM      5  C   UNL     1      -3.603  14.231  23.656  0.00  0.00    +0.000 A 
ATOM      6  C   UNL     1      -4.578  14.387  22.664  0.00  0.00    +0.000 A 
ATOM      7  C   UNL     1      -4.345  13.903  21.392  0.00  0.00    +0.000 A 
ATOM      8  C   UNL     1      -3.136  13.204  21.142  0.00  0.00    +0.000 A 
ATOM      9  C   UNL     1      -2.756  12.901  19.826  0.00  0.00    +0.000 A 
ATOM     10  C   UNL     1      -1.607  12.147  19.549  0.00  0.00    +0.000 A 
ATOM     11  C   UNL     1      -5.698  15.235  23.152  0.00  0.00    +0.000 C 
ATOM     12  C   UNL     1      -4.861  16.160  24.035  0.00  0.00    +0.000 C 
ATOM     13  C   UNL     1      -3.892  15.203  24.773  0.00  0.00    +0.000 C 
ENDROOT
BRANCH   1  19
ATOM     14  C   UNL     1       1.966   6.994  19.937  0.00  0.00    +0.000 C 
ATOM     15  O   UNL     1       2.451   6.713  18.840  0.00  0.00    +0.000 OA
ATOM     16  N   UNL     1       1.539   8.257  20.306  0.00  0.00    +0.000 N 
ATOM     17  C   UNL     1       0.518   8.358  21.368  0.00  0.00    +0.000 C 
ATOM     18  C   UNL     1       0.232   9.804  21.789  0.00  0.00    +0.000 C 
ATOM     19  N   UNL     1      -0.076  10.553  20.550  0.00  0.00    +0.000 N 
ATOM     20  C   UNL     1       1.124  10.677  19.707  0.00  0.00    +0.000 C 
ATOM     21  C   UNL     1       1.473   9.258  19.221  0.00  0.00    +0.000 C 
BRANCH  14  22
ATOM     22  O   UNL     1       1.711   6.067  20.901  0.00  0.00    +0.000 OA
BRANCH  22  24
ATOM     23  C   UNL     1       2.283   3.794  21.329  0.00  0.00    +0.000 C 
ATOM     24  C   UNL     1       1.482   4.730  20.442  0.00  0.00    +0.000 C 
ENDBRANCH  22  24
ENDBRANCH  14  22
ENDBRANCH   1  19
BRANCH  10  25
ATOM     25  C   UNL     1      -1.169  11.826  18.099  0.00  0.00    +0.000 C 
BRANCH  25  26
ATOM     26  N   UNL     1      -2.246  11.880  17.059  0.00  0.00    +0.000 NA
ATOM     27  H   UNL     1      -1.761  12.113  16.189  0.00  0.00    +0.000 HD
BRANCH  26  28
ATOM     28  C   UNL     1      -2.971  10.590  16.786  0.00  0.00    +0.000 C 
BRANCH  28  29
ATOM     29  C   UNL     1      -4.146  10.180  17.727  0.00  0.00    +0.000 C 
BRANCH  29  30
ATOM     30  C   UNL     1      -5.284  11.199  17.884  0.00  0.00    +0.000 A 
ATOM     31  C   UNL     1      -5.464  12.204  16.943  0.00  0.00    +0.000 A 
ATOM     32  N   UNL     1      -6.805  12.551  17.039  0.00  0.00    +0.000 N 
ATOM     33  C   UNL     1      -6.977  12.659  18.389  0.00  0.00    +0.000 A 
ATOM     34  C   UNL     1      -7.757  13.569  19.099  0.00  0.00    +0.000 A 
ATOM     35  C   UNL     1      -7.916  13.323  20.456  0.00  0.00    +0.000 A 
ATOM     36  C   UNL     1      -7.413  12.134  21.001  0.00  0.00    +0.000 A 
ATOM     37  C   UNL     1      -6.606  11.235  20.254  0.00  0.00    +0.000 A 
ATOM     38  C   UNL     1      -6.259  11.565  18.921  0.00  0.00    +0.000 A 
ATOM     39  H   UNL     1      -7.483  11.995  16.537  0.00  0.00    +0.000 HD
ENDBRANCH  29  30
ENDBRANCH  28  29
ENDBRANCH  26  28
ENDBRANCH  25  26
ENDBRANCH  10  25
TORSDOF 8
ENDMDL
MODEL 9
REMARK VINA RESULT:      -8.0      2.162      5.041
REMARK  Name = 
REMARK  9 active torsions:
REMARK  status: ('A' for Active; 'I' for Inactive)
REMARK    1  A    between atoms: C_1  and  C_2
REMARK    2  A    between atoms: C_2  and  O_3
REMARK    3  A    between atoms: O_3  and  C_4
REMARK    4  A    between atoms: N_9  and  C_10
REMARK    5  A    between atoms: C_19  and  C_20
REMARK    6  A    between atoms: C_20  and  N_21
REMARK    7  A    between atoms: N_21  and  C_22
REMARK    8  A    between atoms: C_22  and  C_23
REMARK    9  A    between atoms: C_23  and  C_24
REMARK                            x       y       z     vdW  Elec       q    Type
REMARK                         _______ _______ _______ _____ _____    ______ ____
ROOT
ATOM      1  C   UNL     1       0.199   9.602  19.424  0.00  0.00    +0.000 A 
ATOM      2  N   UNL     1       1.016   9.268  18.377  0.00  0.00    +0.000 NA
ATOM      3  C   UNL     1       1.949   8.313  18.544  0.00  0.00    +0.000 A 
ATOM      4  C   UNL     1       2.903   8.049  17.542  0.00  0.00    +0.000 A 
ATOM      5  C   UNL     1       3.843   7.049  17.724  0.00  0.00    +0.000 A 
ATOM      6  C   UNL     1       3.746   6.166  18.806  0.00  0.00    +0.000 A 
ATOM      7  C   UNL     1       2.852   6.426  19.825  0.00  0.00    +0.000 A 
ATOM      8  C   UNL     1       2.009   7.562  19.716  0.00  0.00    +0.000 A 
ATOM      9  C   UNL     1       1.258   7.992  20.819  0.00  0.00    +0.000 A 
ATOM     10  C   UNL     1       0.359   9.063  20.724  0.00  0.00    +0.000 A 
ATOM     11  C   UNL     1       4.801   5.120  18.730  0.00  0.00    +0.000 C 
ATOM     12  C   UNL     1       5.890   5.996  18.112  0.00  0.00    +0.000 C 
ATOM     13  C   UNL     1       5.149   6.799  17.013  0.00  0.00    +0.000 C 
ENDROOT
BRANCH   1  19
ATOM     14  C   UNL     1      -4.647  12.123  18.587  0.00  0.00    +0.000 C 
ATOM     15  O   UNL     1      -5.051  13.000  19.352  0.00  0.00    +0.000 OA
ATOM     16  N   UNL     1      -3.334  11.691  18.510  0.00  0.00    +0.000 N 
ATOM     17  C   UNL     1      -3.084  10.330  17.997  0.00  0.00    +0.000 C 
ATOM     18  C   UNL     1      -1.592  10.020  17.824  0.00  0.00    +0.000 C 
ATOM     19  N   UNL     1      -0.941  10.333  19.116  0.00  0.00    +0.000 N 
ATOM     20  C   UNL     1      -0.959  11.783  19.368  0.00  0.00    +0.000 C 
ATOM     21  C   UNL     1      -2.432  12.179  19.575  0.00  0.00    +0.000 C 
BRANCH  14  22
ATOM     22  O   UNL     1      -5.468  11.403  17.774  0.00  0.00    +0.000 OA
BRANCH  22  24
ATOM     23  C   UNL     1      -6.796   9.993  19.163  0.00  0.00    +0.000 C 
ATOM     24  C   UNL     1      -6.805  11.205  18.248  0.00  0.00    +0.000 C 
ENDBRANCH  22  24
ENDBRANCH  14  22
ENDBRANCH   1  19
BRANCH  10  25
ATOM     25  C   UNL     1      -0.458   9.557  21.942  0.00  0.00    +0.000 C 
BRANCH  25  26
ATOM     26  N   UNL     1      -0.009  10.847  22.557  0.00  0.00    +0.000 NA
ATOM     27  H   UNL     1       0.437  11.361  21.794  0.00  0.00    +0.000 HD
BRANCH  26  28
ATOM     28  C   UNL     1      -1.095  11.749  23.075  0.00  0.00    +0.000 C 
BRANCH  28  29
ATOM     29  C   UNL     1      -0.972  13.285  22.829  0.00  0.00    +0.000 C 
BRANCH  29  30
ATOM     30  C   UNL     1      -2.238  14.119  23.068  0.00  0.00    +0.000 A 
ATOM     31  C   UNL     1      -2.159  15.361  23.685  0.00  0.00    +0.000 A 
ATOM     32  N   UNL     1      -3.281  16.052  23.248  0.00  0.00    +0.000 N 
ATOM     33  C   UNL     1      -4.270  15.125  23.410  0.00  0.00    +0.000 A 
ATOM     34  C   UNL     1      -5.586  15.317  23.823  0.00  0.00    +0.000 A 
ATOM     35  C   UNL     1      -6.439  14.228  23.700  0.00  0.00    +0.000 A 
ATOM     36  C   UNL     1      -5.982  13.068  23.060  0.00  0.00    +0.000 A 
ATOM     37  C   UNL     1      -4.629  12.897  22.666  0.00  0.00    +0.000 A 
ATOM     38  C   UNL     1      -3.691  13.916  22.965  0.00  0.00    +0.000 A 
ATOM     39  H   UNL     1      -3.240  16.522  22.355  0.00  0.00    +0.000 HD
ENDBRANCH  29  30
ENDBRANCH  28  29
ENDBRANCH  26  28
ENDBRANCH  25  26
ENDBRANCH  10  25
TORSDOF 8
ENDMDL
