MODEL 1
REMARK VINA RESULT:      -8.3      0.000      0.000
REMARK  Name = 
REMARK  5 active torsions:
REMARK  status: ('A' for Active; 'I' for Inactive)
REMARK    1  A    between atoms: C_1  and  C_2
REMARK    2  A    between atoms: C_8  and  N_9
REMARK    3  A    between atoms: C_10  and  C_12
REMARK    4  A    between atoms: C_12  and  S_13
REMARK    5  A    between atoms: S_13  and  C_16
REMARK                            x       y       z     vdW  Elec       q    Type
REMARK                         _______ _______ _______ _____ _____    ______ ____
ROOT
ATOM      1  C   UNL     1       2.566   3.468  20.145  0.00  0.00    +0.000 C 
ATOM      2  C   UNL     1       2.566   3.116  21.616  0.00  0.00    +0.000 C 
ATOM      3  C   UNL     1       1.570   2.465  20.697  0.00  0.00    +0.000 C 
ENDROOT
BRANCH   1   5
ATOM      4  N   UNL     1       2.450   5.892  20.294  0.00  0.00    +0.000 N 
ATOM      5  C   UNL     1       2.059   4.743  19.617  0.00  0.00    +0.000 C 
ATOM      6  O   UNL     1       1.350   4.688  18.619  0.00  0.00    +0.000 OA
ATOM      7  H   UNL     1       3.226   5.809  20.941  0.00  0.00    +0.000 HD
BRANCH   4  15
ATOM      8  C   UNL     1       3.213   7.316  17.794  0.00  0.00    +0.000 C 
ATOM      9  C   UNL     1       2.305   7.887  18.850  0.00  0.00    +0.000 A 
ATOM     10  C   UNL     1       1.737   9.156  18.599  0.00  0.00    +0.000 A 
ATOM     11  C   UNL     1       0.878   9.753  19.519  0.00  0.00    +0.000 A 
ATOM     12 BR   UNL     1       0.123  11.446  19.156  0.00  0.00    +0.000 Br
ATOM     13  C   UNL     1       0.575   9.102  20.701  0.00  0.00    +0.000 A 
ATOM     14  C   UNL     1       1.109   7.841  20.954  0.00  0.00    +0.000 A 
ATOM     15  C   UNL     1       1.951   7.197  20.031  0.00  0.00    +0.000 A 
ENDBRANCH   4  15
ENDBRANCH   1   5
BRANCH   1  16
ATOM     16  S   UNL     1       3.935   2.743  19.210  0.00  0.00    +0.000 S 
ATOM     17  O   UNL     1       4.753   2.055  20.192  0.00  0.00    +0.000 OA
ATOM     18  O   UNL     1       3.378   2.009  18.087  0.00  0.00    +0.000 OA
BRANCH  16  19
ATOM     19  C   UNL     1       4.900   4.082  18.540  0.00  0.00    +0.000 A 
ATOM     20  C   UNL     1       5.679   4.869  19.397  0.00  0.00    +0.000 A 
ATOM     21  C   UNL     1       6.537   5.834  18.860  0.00  0.00    +0.000 A 
ATOM     22  C   UNL     1       6.628   5.995  17.477  0.00  0.00    +0.000 A 
ATOM     23 CL   UNL     1       7.718   7.153  16.819  0.00  0.00    +0.000 Cl
ATOM     24  C   UNL     1       5.856   5.208  16.622  0.00  0.00    +0.000 A 
ATOM     25  C   UNL     1       4.991   4.246  17.152  0.00  0.00    +0.000 A 
ENDBRANCH  16  19
ENDBRANCH   1  16
TORSDOF 4
ENDMDL
MODEL 2
REMARK VINA RESULT:      -8.2      0.246      1.018
REMARK  Name = 
REMARK  5 active torsions:
REMARK  status: ('A' for Active; 'I' for Inactive)
REMARK    1  A    between atoms: C_1  and  C_2
REMARK    2  A    between atoms: C_8  and  N_9
REMARK    3  A    between atoms: C_10  and  C_12
REMARK    4  A    between atoms: C_12  and  S_13
REMARK    5  A    between atoms: S_13  and  C_16
REMARK                            x       y       z     vdW  Elec       q    Type
REMARK                         _______ _______ _______ _____ _____    ______ ____
ROOT
ATOM      1  C   UNL     1       2.492   3.508  20.012  0.00  0.00    +0.000 C 
ATOM      2  C   UNL     1       2.633   3.194  21.486  0.00  0.00    +0.000 C 
ATOM      3  C   UNL     1       1.502   2.586  20.703  0.00  0.00    +0.000 C 
ENDROOT
BRANCH   1   5
ATOM      4  N   UNL     1       2.442   5.933  20.180  0.00  0.00    +0.000 N 
ATOM      5  C   UNL     1       2.009   4.799  19.502  0.00  0.00    +0.000 C 
ATOM      6  O   UNL     1       1.282   4.770  18.517  0.00  0.00    +0.000 OA
ATOM      7  H   UNL     1       3.227   5.826  20.812  0.00  0.00    +0.000 HD
BRANCH   4  15
ATOM      8  C   UNL     1       3.232   7.369  17.696  0.00  0.00    +0.000 C 
ATOM      9  C   UNL     1       2.340   7.948  18.761  0.00  0.00    +0.000 A 
ATOM     10  C   UNL     1       1.802   9.234  18.527  0.00  0.00    +0.000 A 
ATOM     11  C   UNL     1       0.959   9.839  19.456  0.00  0.00    +0.000 A 
ATOM     12 BR   UNL     1       0.243  11.554  19.117  0.00  0.00    +0.000 Br
ATOM     13  C   UNL     1       0.644   9.181  20.631  0.00  0.00    +0.000 A 
ATOM     14  C   UNL     1       1.149   7.904  20.868  0.00  0.00    +0.000 A 
ATOM     15  C   UNL     1       1.973   7.253  19.934  0.00  0.00    +0.000 A 
ENDBRANCH   4  15
ENDBRANCH   1   5
BRANCH   1  16
ATOM     16  S   UNL     1       3.701   2.672  18.958  0.00  0.00    +0.000 S 
ATOM     17  O   UNL     1       4.373   1.718  19.822  0.00  0.00    +0.000 OA
ATOM     18  O   UNL     1       3.017   2.213  17.762  0.00  0.00    +0.000 OA
BRANCH  16  19
ATOM     19  C   UNL     1       4.902   3.884  18.449  0.00  0.00    +0.000 A 
ATOM     20  C   UNL     1       5.042   4.190  17.090  0.00  0.00    +0.000 A 
ATOM     21  C   UNL     1       5.888   5.233  16.698  0.00  0.00    +0.000 A 
ATOM     22  C   UNL     1       6.573   5.974  17.662  0.00  0.00    +0.000 A 
ATOM     23 CL   UNL     1       7.579   7.285  17.180  0.00  0.00    +0.000 Cl
ATOM     24  C   UNL     1       6.430   5.673  19.018  0.00  0.00    +0.000 A 
ATOM     25  C   UNL     1       5.591   4.628  19.415  0.00  0.00    +0.000 A 
ENDBRANCH  16  19
ENDBRANCH   1  16
TORSDOF 4
ENDMDL
MODEL 3
REMARK VINA RESULT:      -7.8      0.814      1.861
REMARK  Name = 
REMARK  5 active torsions:
REMARK  status: ('A' for Active; 'I' for Inactive)
REMARK    1  A    between atoms: C_1  and  C_2
REMARK    2  A    between atoms: C_8  and  N_9
REMARK    3  A    between atoms: C_10  and  C_12
REMARK    4  A    between atoms: C_12  and  S_13
REMARK    5  A    between atoms: S_13  and  C_16
REMARK                            x       y       z     vdW  Elec       q    Type
REMARK                         _______ _______ _______ _____ _____    ______ ____
ROOT
ATOM      1  C   UNL     1       2.460   4.093  19.675  0.00  0.00    +0.000 C 
ATOM      2  C   UNL     1       2.351   3.800  21.154  0.00  0.00    +0.000 C 
ATOM      3  C   UNL     1       1.340   3.216  20.206  0.00  0.00    +0.000 C 
ENDROOT
BRANCH   1   5
ATOM      4  N   UNL     1       2.381   6.517  19.846  0.00  0.00    +0.000 N 
ATOM      5  C   UNL     1       2.111   5.391  19.078  0.00  0.00    +0.000 C 
ATOM      6  O   UNL     1       1.628   5.373  17.952  0.00  0.00    +0.000 OA
ATOM      7  H   UNL     1       3.000   6.401  20.641  0.00  0.00    +0.000 HD
BRANCH   4  15
ATOM      8  C   UNL     1       0.739   8.119  21.742  0.00  0.00    +0.000 C 
ATOM      9  C   UNL     1       1.204   8.614  20.399  0.00  0.00    +0.000 A 
ATOM     10  C   UNL     1       0.885   9.946  20.053  0.00  0.00    +0.000 A 
ATOM     11  C   UNL     1       1.286  10.487  18.834  0.00  0.00    +0.000 A 
ATOM     12 BR   UNL     1       0.858  12.274  18.398  0.00  0.00    +0.000 Br
ATOM     13  C   UNL     1       2.004   9.713  17.940  0.00  0.00    +0.000 A 
ATOM     14  C   UNL     1       2.345   8.404  18.274  0.00  0.00    +0.000 A 
ATOM     15  C   UNL     1       1.985   7.842  19.511  0.00  0.00    +0.000 A 
ENDBRANCH   4  15
ENDBRANCH   1   5
BRANCH   1  16
ATOM     16  S   UNL     1       3.793   3.201  18.839  0.00  0.00    +0.000 S 
ATOM     17  O   UNL     1       4.392   2.358  19.858  0.00  0.00    +0.000 OA
ATOM     18  O   UNL     1       3.251   2.606  17.630  0.00  0.00    +0.000 OA
BRANCH  16  19
ATOM     19  C   UNL     1       5.013   4.399  18.338  0.00  0.00    +0.000 A 
ATOM     20  C   UNL     1       4.937   4.971  17.063  0.00  0.00    +0.000 A 
ATOM     21  C   UNL     1       5.812   6.005  16.715  0.00  0.00    +0.000 A 
ATOM     22  C   UNL     1       6.742   6.473  17.644  0.00  0.00    +0.000 A 
ATOM     23 CL   UNL     1       7.788   7.776  17.228  0.00  0.00    +0.000 Cl
ATOM     24  C   UNL     1       6.816   5.907  18.918  0.00  0.00    +0.000 A 
ATOM     25  C   UNL     1       5.948   4.869  19.269  0.00  0.00    +0.000 A 
ENDBRANCH  16  19
ENDBRANCH   1  16
TORSDOF 4
ENDMDL
MODEL 4
REMARK VINA RESULT:      -7.4      0.862      1.649
REMARK  Name = 
REMARK  5 active torsions:
REMARK  status: ('A' for Active; 'I' for Inactive)
REMARK    1  A    between atoms: C_1  and  C_2
REMARK    2  A    between atoms: C_8  and  N_9
REMARK    3  A    between atoms: C_10  and  C_12
REMARK    4  A    between atoms: C_12  and  S_13
REMARK    5  A    between atoms: S_13  and  C_16
REMARK                            x       y       z     vdW  Elec       q    Type
REMARK                         _______ _______ _______ _____ _____    ______ ____
ROOT
ATOM      1  C   UNL     1       2.306   3.663  20.271  0.00  0.00    +0.000 C 
ATOM      2  C   UNL     1       2.282   3.559  21.780  0.00  0.00    +0.000 C 
ATOM      3  C   UNL     1       1.176   2.933  20.976  0.00  0.00    +0.000 C 
ENDROOT
BRANCH   1   5
ATOM      4  N   UNL     1       2.439   6.085  20.111  0.00  0.00    +0.000 N 
ATOM      5  C   UNL     1       1.994   4.900  19.540  0.00  0.00    +0.000 C 
ATOM      6  O   UNL     1       1.383   4.781  18.484  0.00  0.00    +0.000 OA
ATOM      7  H   UNL     1       3.136   6.016  20.844  0.00  0.00    +0.000 HD
BRANCH   4  15
ATOM      8  C   UNL     1       0.836   7.939  21.799  0.00  0.00    +0.000 C 
ATOM      9  C   UNL     1       1.352   8.277  20.426  0.00  0.00    +0.000 A 
ATOM     10  C   UNL     1       1.103   9.581  19.943  0.00  0.00    +0.000 A 
ATOM     11  C   UNL     1       1.554   9.980  18.687  0.00  0.00    +0.000 A 
ATOM     12 BR   UNL     1       1.219  11.733  18.067  0.00  0.00    +0.000 Br
ATOM     13  C   UNL     1       2.252   9.090  17.891  0.00  0.00    +0.000 A 
ATOM     14  C   UNL     1       2.524   7.807  18.361  0.00  0.00    +0.000 A 
ATOM     15  C   UNL     1       2.113   7.386  19.638  0.00  0.00    +0.000 A 
ENDBRANCH   4  15
ENDBRANCH   1   5
BRANCH   1  16
ATOM     16  S   UNL     1       3.524   2.589  19.474  0.00  0.00    +0.000 S 
ATOM     17  O   UNL     1       4.406   2.148  20.539  0.00  0.00    +0.000 OA
ATOM     18  O   UNL     1       2.808   1.612  18.672  0.00  0.00    +0.000 OA
BRANCH  16  19
ATOM     19  C   UNL     1       4.480   3.593  18.356  0.00  0.00    +0.000 A 
ATOM     20  C   UNL     1       5.532   4.370  18.853  0.00  0.00    +0.000 A 
ATOM     21  C   UNL     1       6.367   5.056  17.964  0.00  0.00    +0.000 A 
ATOM     22  C   UNL     1       6.158   4.948  16.589  0.00  0.00    +0.000 A 
ATOM     23 CL   UNL     1       7.213   5.757  15.496  0.00  0.00    +0.000 Cl
ATOM     24  C   UNL     1       5.112   4.169  16.091  0.00  0.00    +0.000 A 
ATOM     25  C   UNL     1       4.271   3.487  16.975  0.00  0.00    +0.000 A 
ENDBRANCH  16  19
ENDBRANCH   1  16
TORSDOF 4
ENDMDL
MODEL 5
REMARK VINA RESULT:      -7.4      0.915      1.633
REMARK  Name = 
REMARK  5 active torsions:
REMARK  status: ('A' for Active; 'I' for Inactive)
REMARK    1  A    between atoms: C_1  and  C_2
REMARK    2  A    between atoms: C_8  and  N_9
REMARK    3  A    between atoms: C_10  and  C_12
REMARK    4  A    between atoms: C_12  and  S_13
REMARK    5  A    between atoms: S_13  and  C_16
REMARK                            x       y       z     vdW  Elec       q    Type
REMARK                         _______ _______ _______ _____ _____    ______ ____
ROOT
ATOM      1  C   UNL     1       2.498   3.999  19.511  0.00  0.00    +0.000 C 
ATOM      2  C   UNL     1       2.192   3.544  20.921  0.00  0.00    +0.000 C 
ATOM      3  C   UNL     1       1.444   2.937  19.767  0.00  0.00    +0.000 C 
ENDROOT
BRANCH   1   5
ATOM      4  N   UNL     1       2.496   6.427  19.658  0.00  0.00    +0.000 N 
ATOM      5  C   UNL     1       2.070   5.297  18.969  0.00  0.00    +0.000 C 
ATOM      6  O   UNL     1       1.389   5.276  17.951  0.00  0.00    +0.000 OA
ATOM      7  H   UNL     1       3.248   6.307  20.327  0.00  0.00    +0.000 HD
BRANCH   4  15
ATOM      8  C   UNL     1       0.723   7.864  21.567  0.00  0.00    +0.000 C 
ATOM      9  C   UNL     1       1.227   8.449  20.275  0.00  0.00    +0.000 A 
ATOM     10  C   UNL     1       0.877   9.789  19.991  0.00  0.00    +0.000 A 
ATOM     11  C   UNL     1       1.311  10.411  18.822  0.00  0.00    +0.000 A 
ATOM     12 BR   UNL     1       0.840  12.206  18.469  0.00  0.00    +0.000 Br
ATOM     13  C   UNL     1       2.090   9.713  17.919  0.00  0.00    +0.000 A 
ATOM     14  C   UNL     1       2.461   8.398  18.194  0.00  0.00    +0.000 A 
ATOM     15  C   UNL     1       2.070   7.755  19.380  0.00  0.00    +0.000 A 
ENDBRANCH   4  15
ENDBRANCH   1   5
BRANCH   1  16
ATOM     16  S   UNL     1       4.063   3.374  18.854  0.00  0.00    +0.000 S 
ATOM     17  O   UNL     1       4.685   2.657  19.952  0.00  0.00    +0.000 OA
ATOM     18  O   UNL     1       3.787   2.690  17.603  0.00  0.00    +0.000 OA
BRANCH  16  19
ATOM     19  C   UNL     1       5.088   4.780  18.473  0.00  0.00    +0.000 A 
ATOM     20  C   UNL     1       6.209   5.053  19.265  0.00  0.00    +0.000 A 
ATOM     21  C   UNL     1       7.089   6.074  18.891  0.00  0.00    +0.000 A 
ATOM     22  C   UNL     1       6.856   6.802  17.724  0.00  0.00    +0.000 A 
ATOM     23 CL   UNL     1       7.964   8.029  17.243  0.00  0.00    +0.000 Cl
ATOM     24  C   UNL     1       5.741   6.528  16.930  0.00  0.00    +0.000 A 
ATOM     25  C   UNL     1       4.855   5.512  17.301  0.00  0.00    +0.000 A 
ENDBRANCH  16  19
ENDBRANCH   1  16
TORSDOF 4
ENDMDL
MODEL 6
REMARK VINA RESULT:      -7.2      1.792      2.233
REMARK  Name = 
REMARK  5 active torsions:
REMARK  status: ('A' for Active; 'I' for Inactive)
REMARK    1  A    between atoms: C_1  and  C_2
REMARK    2  A    between atoms: C_8  and  N_9
REMARK    3  A    between atoms: C_10  and  C_12
REMARK    4  A    between atoms: C_12  and  S_13
REMARK    5  A    between atoms: S_13  and  C_16
REMARK                            x       y       z     vdW  Elec       q    Type
REMARK                         _______ _______ _______ _____ _____    ______ ____
ROOT
ATOM      1  C   UNL     1       2.768   4.201  19.016  0.00  0.00    +0.000 C 
ATOM      2  C   UNL     1       2.291   2.767  18.965  0.00  0.00    +0.000 C 
ATOM      3  C   UNL     1       2.217   3.617  17.727  0.00  0.00    +0.000 C 
ENDROOT
BRANCH   1   5
ATOM      4  N   UNL     1       2.249   6.569  19.207  0.00  0.00    +0.000 N 
ATOM      5  C   UNL     1       2.018   5.281  19.674  0.00  0.00    +0.000 C 
ATOM      6  O   UNL     1       1.243   4.955  20.566  0.00  0.00    +0.000 OA
ATOM      7  H   UNL     1       2.720   6.663  18.314  0.00  0.00    +0.000 HD
BRANCH   4  15
ATOM      8  C   UNL     1       1.843   9.024  17.574  0.00  0.00    +0.000 C 
ATOM      9  C   UNL     1       1.540   8.926  19.045  0.00  0.00    +0.000 A 
ATOM     10  C   UNL     1       0.971  10.061  19.666  0.00  0.00    +0.000 A 
ATOM     11  C   UNL     1       0.651  10.053  21.022  0.00  0.00    +0.000 A 
ATOM     12 BR   UNL     1      -0.119  11.578  21.827  0.00  0.00    +0.000 Br
ATOM     13  C   UNL     1       0.895   8.922  21.780  0.00  0.00    +0.000 A 
ATOM     14  C   UNL     1       1.436   7.787  21.178  0.00  0.00    +0.000 A 
ATOM     15  C   UNL     1       1.737   7.753  19.806  0.00  0.00    +0.000 A 
ENDBRANCH   4  15
ENDBRANCH   1   5
BRANCH   1  16
ATOM     16  S   UNL     1       4.567   4.382  19.060  0.00  0.00    +0.000 S 
ATOM     17  O   UNL     1       4.813   5.632  19.756  0.00  0.00    +0.000 OA
ATOM     18  O   UNL     1       5.134   3.145  19.567  0.00  0.00    +0.000 OA
BRANCH  16  19
ATOM     19  C   UNL     1       5.132   4.574  17.382  0.00  0.00    +0.000 A 
ATOM     20  C   UNL     1       5.286   5.858  16.847  0.00  0.00    +0.000 A 
ATOM     21  C   UNL     1       5.854   6.016  15.578  0.00  0.00    +0.000 A 
ATOM     22  C   UNL     1       6.279   4.898  14.861  0.00  0.00    +0.000 A 
ATOM     23 CL   UNL     1       7.017   5.098  13.319  0.00  0.00    +0.000 Cl
ATOM     24  C   UNL     1       6.130   3.616  15.395  0.00  0.00    +0.000 A 
ATOM     25  C   UNL     1       5.559   3.452  16.660  0.00  0.00    +0.000 A 
ENDBRANCH  16  19
ENDBRANCH   1  16
TORSDOF 4
ENDMDL
MODEL 7
REMARK VINA RESULT:      -7.1      3.417      5.736
REMARK  Name = 
REMARK  5 active torsions:
REMARK  status: ('A' for Active; 'I' for Inactive)
REMARK    1  A    between atoms: C_1  and  C_2
REMARK    2  A    between atoms: C_8  and  N_9
REMARK    3  A    between atoms: C_10  and  C_12
REMARK    4  A    between atoms: C_12  and  S_13
REMARK    5  A    between atoms: S_13  and  C_16
REMARK                            x       y       z     vdW  Elec       q    Type
REMARK                         _______ _______ _______ _____ _____    ______ ____
ROOT
ATOM      1  C   UNL     1       2.453   3.587  18.907  0.00  0.00    +0.000 C 
ATOM      2  C   UNL     1       1.051   3.041  19.065  0.00  0.00    +0.000 C 
ATOM      3  C   UNL     1       2.229   2.175  19.418  0.00  0.00    +0.000 C 
ENDROOT
BRANCH   1   5
ATOM      4  N   UNL     1       4.486   3.964  17.626  0.00  0.00    +0.000 N 
ATOM      5  C   UNL     1       3.111   3.764  17.603  0.00  0.00    +0.000 C 
ATOM      6  O   UNL     1       2.397   3.706  16.609  0.00  0.00    +0.000 OA
ATOM      7  H   UNL     1       4.974   3.744  18.487  0.00  0.00    +0.000 HD
BRANCH   4  15
ATOM      8  C   UNL     1       6.095   6.467  17.605  0.00  0.00    +0.000 C 
ATOM      9  C   UNL     1       6.043   5.485  16.465  0.00  0.00    +0.000 A 
ATOM     10  C   UNL     1       6.861   5.750  15.344  0.00  0.00    +0.000 A 
ATOM     11  C   UNL     1       6.881   4.887  14.250  0.00  0.00    +0.000 A 
ATOM     12 BR   UNL     1       7.991   5.255  12.767  0.00  0.00    +0.000 Br
ATOM     13  C   UNL     1       6.087   3.755  14.253  0.00  0.00    +0.000 A 
ATOM     14  C   UNL     1       5.290   3.468  15.359  0.00  0.00    +0.000 A 
ATOM     15  C   UNL     1       5.275   4.300  16.492  0.00  0.00    +0.000 A 
ENDBRANCH   4  15
ENDBRANCH   1   5
BRANCH   1  16
ATOM     16  S   UNL     1       2.929   4.788  20.173  0.00  0.00    +0.000 S 
ATOM     17  O   UNL     1       2.213   4.390  21.372  0.00  0.00    +0.000 OA
ATOM     18  O   UNL     1       4.378   4.878  20.189  0.00  0.00    +0.000 OA
BRANCH  16  19
ATOM     19  C   UNL     1       2.305   6.378  19.670  0.00  0.00    +0.000 A 
ATOM     20  C   UNL     1       1.695   7.212  20.614  0.00  0.00    +0.000 A 
ATOM     21  C   UNL     1       1.324   8.512  20.253  0.00  0.00    +0.000 A 
ATOM     22  C   UNL     1       1.580   8.976  18.963  0.00  0.00    +0.000 A 
ATOM     23 CL   UNL     1       1.163  10.591  18.534  0.00  0.00    +0.000 Cl
ATOM     24  C   UNL     1       2.193   8.148  18.021  0.00  0.00    +0.000 A 
ATOM     25  C   UNL     1       2.561   6.846  18.374  0.00  0.00    +0.000 A 
ENDBRANCH  16  19
ENDBRANCH   1  16
TORSDOF 4
ENDMDL
MODEL 8
REMARK VINA RESULT:      -7.1      1.033      1.190
REMARK  Name = 
REMARK  5 active torsions:
REMARK  status: ('A' for Active; 'I' for Inactive)
REMARK    1  A    between atoms: C_1  and  C_2
REMARK    2  A    between atoms: C_8  and  N_9
REMARK    3  A    between atoms: C_10  and  C_12
REMARK    4  A    between atoms: C_12  and  S_13
REMARK    5  A    between atoms: S_13  and  C_16
REMARK                            x       y       z     vdW  Elec       q    Type
REMARK                         _______ _______ _______ _____ _____    ______ ____
ROOT
ATOM      1  C   UNL     1       2.378   3.611  19.823  0.00  0.00    +0.000 C 
ATOM      2  C   UNL     1       3.122   2.885  20.922  0.00  0.00    +0.000 C 
ATOM      3  C   UNL     1       1.830   2.319  20.402  0.00  0.00    +0.000 C 
ENDROOT
BRANCH   1   5
ATOM      4  N   UNL     1       2.304   6.042  19.803  0.00  0.00    +0.000 N 
ATOM      5  C   UNL     1       1.623   4.854  20.041  0.00  0.00    +0.000 C 
ATOM      6  O   UNL     1       0.457   4.740  20.397  0.00  0.00    +0.000 OA
ATOM      7  H   UNL     1       3.172   5.984  19.281  0.00  0.00    +0.000 HD
BRANCH   4  15
ATOM      8  C   UNL     1       2.268   8.148  17.700  0.00  0.00    +0.000 C 
ATOM      9  C   UNL     1       1.778   8.349  19.109  0.00  0.00    +0.000 A 
ATOM     10  C   UNL     1       1.210   9.605  19.423  0.00  0.00    +0.000 A 
ATOM     11  C   UNL     1       0.721   9.872  20.700  0.00  0.00    +0.000 A 
ATOM     12 BR   UNL     1      -0.043  11.554  21.095  0.00  0.00    +0.000 Br
ATOM     13  C   UNL     1       0.794   8.901  21.682  0.00  0.00    +0.000 A 
ATOM     14  C   UNL     1       1.331   7.650  21.382  0.00  0.00    +0.000 A 
ATOM     15  C   UNL     1       1.799   7.339  20.095  0.00  0.00    +0.000 A 
ENDBRANCH   4  15
ENDBRANCH   1   5
BRANCH   1  16
ATOM     16  S   UNL     1       3.133   3.452  18.187  0.00  0.00    +0.000 S 
ATOM     17  O   UNL     1       3.781   2.153  18.185  0.00  0.00    +0.000 OA
ATOM     18  O   UNL     1       2.122   3.760  17.190  0.00  0.00    +0.000 OA
BRANCH  16  19
ATOM     19  C   UNL     1       4.402   4.694  18.054  0.00  0.00    +0.000 A 
ATOM     20  C   UNL     1       5.444   4.721  18.989  0.00  0.00    +0.000 A 
ATOM     21  C   UNL     1       6.510   5.608  18.812  0.00  0.00    +0.000 A 
ATOM     22  C   UNL     1       6.541   6.448  17.698  0.00  0.00    +0.000 A 
ATOM     23 CL   UNL     1       7.876   7.508  17.460  0.00  0.00    +0.000 Cl
ATOM     24  C   UNL     1       5.505   6.419  16.762  0.00  0.00    +0.000 A 
ATOM     25  C   UNL     1       4.434   5.538  16.937  0.00  0.00    +0.000 A 
ENDBRANCH  16  19
ENDBRANCH   1  16
TORSDOF 4
ENDMDL
MODEL 9
REMARK VINA RESULT:      -7.1      1.846      2.804
REMARK  Name = 
REMARK  5 active torsions:
REMARK  status: ('A' for Active; 'I' for Inactive)
REMARK    1  A    between atoms: C_1  and  C_2
REMARK    2  A    between atoms: C_8  and  N_9
REMARK    3  A    between atoms: C_10  and  C_12
REMARK    4  A    between atoms: C_12  and  S_13
REMARK    5  A    between atoms: S_13  and  C_16
REMARK                            x       y       z     vdW  Elec       q    Type
REMARK                         _______ _______ _______ _____ _____    ______ ____
ROOT
ATOM      1  C   UNL     1       3.245   4.933  18.699  0.00  0.00    +0.000 C 
ATOM      2  C   UNL     1       2.227   4.080  19.423  0.00  0.00    +0.000 C 
ATOM      3  C   UNL     1       2.360   3.969  17.929  0.00  0.00    +0.000 C 
ENDROOT
BRANCH   1   5
ATOM      4  N   UNL     1       2.245   7.050  19.357  0.00  0.00    +0.000 N 
ATOM      5  C   UNL     1       3.076   6.376  18.471  0.00  0.00    +0.000 C 
ATOM      6  O   UNL     1       3.692   6.865  17.531  0.00  0.00    +0.000 OA
ATOM      7  H   UNL     1       2.004   6.576  20.220  0.00  0.00    +0.000 HD
BRANCH   4  15
ATOM      8  C   UNL     1       0.753   8.404  21.547  0.00  0.00    +0.000 C 
ATOM      9  C   UNL     1       1.130   9.062  20.247  0.00  0.00    +0.000 A 
ATOM     10  C   UNL     1       0.802  10.428  20.094  0.00  0.00    +0.000 A 
ATOM     11  C   UNL     1       1.125  11.117  18.927  0.00  0.00    +0.000 A 
ATOM     12 BR   UNL     1       0.686  12.945  18.748  0.00  0.00    +0.000 Br
ATOM     13  C   UNL     1       1.772  10.460  17.896  0.00  0.00    +0.000 A 
ATOM     14  C   UNL     1       2.121   9.119  18.040  0.00  0.00    +0.000 A 
ATOM     15  C   UNL     1       1.841   8.406  19.218  0.00  0.00    +0.000 A 
ENDBRANCH   4  15
ENDBRANCH   1   5
BRANCH   1  16
ATOM     16  S   UNL     1       4.956   4.388  18.914  0.00  0.00    +0.000 S 
ATOM     17  O   UNL     1       5.581   5.395  19.752  0.00  0.00    +0.000 OA
ATOM     18  O   UNL     1       4.938   2.999  19.339  0.00  0.00    +0.000 OA
BRANCH  16  19
ATOM     19  C   UNL     1       5.745   4.441  17.318  0.00  0.00    +0.000 A 
ATOM     20  C   UNL     1       5.134   3.818  16.224  0.00  0.00    +0.000 A 
ATOM     21  C   UNL     1       5.682   3.970  14.946  0.00  0.00    +0.000 A 
ATOM     22  C   UNL     1       6.821   4.755  14.765  0.00  0.00    +0.000 A 
ATOM     23 CL   UNL     1       7.468   4.977  13.185  0.00  0.00    +0.000 Cl
ATOM     24  C   UNL     1       7.429   5.382  15.855  0.00  0.00    +0.000 A 
ATOM     25  C   UNL     1       6.889   5.228  17.135  0.00  0.00    +0.000 A 
ENDBRANCH  16  19
ENDBRANCH   1  16
TORSDOF 4
ENDMDL
