MODEL 1
REMARK VINA RESULT:      -8.8      0.000      0.000
REMARK  Name = 
REMARK  5 active torsions:
REMARK  status: ('A' for Active; 'I' for Inactive)
REMARK    1  A    between atoms: C_2  and  C_10
REMARK    2  A    between atoms: N_3  and  C_4
REMARK    3  A    between atoms: N_13  and  S_14
REMARK    4  A    between atoms: S_14  and  C_17
REMARK    5  A    between atoms: C_22  and  C_23
REMARK                            x       y       z     vdW  Elec       q    Type
REMARK                         _______ _______ _______ _____ _____    ______ ____
ROOT
ATOM      1  C   UNL     1       7.496   6.254  17.765  0.00  0.00    +0.000 C 
ATOM      2  C   UNL     1       7.126   5.675  19.134  0.00  0.00    +0.000 C 
ATOM      3  C   UNL     1       5.641   5.331  19.269  0.00  0.00    +0.000 C 
ATOM      4  N   UNL     1       4.750   6.476  18.905  0.00  0.00    +0.000 NA
ATOM      5  C   UNL     1       5.115   7.090  17.581  0.00  0.00    +0.000 C 
ATOM      6  C   UNL     1       6.593   7.452  17.486  0.00  0.00    +0.000 C 
ENDROOT
BRANCH   1   8
ATOM      7  O   UNL     1       7.920   4.069  16.835  0.00  0.00    +0.000 OA
ATOM      8  C   UNL     1       7.465   5.196  16.656  0.00  0.00    +0.000 C 
ATOM      9  N   UNL     1       6.945   5.664  15.455  0.00  0.00    +0.000 N 
ATOM     10  H   UNL     1       6.727   6.651  15.403  0.00  0.00    +0.000 HD
BRANCH   9  11
ATOM     11  C   UNL     1       6.824   4.941  14.240  0.00  0.00    +0.000 A 
ATOM     12  C   UNL     1       7.707   5.070  13.171  0.00  0.00    +0.000 A 
ATOM     13  C   UNL     1       7.475   4.329  12.023  0.00  0.00    +0.000 A 
ATOM     14  N   UNL     1       6.436   3.480  11.870  0.00  0.00    +0.000 NA
ATOM     15  C   UNL     1       5.602   3.360  12.921  0.00  0.00    +0.000 A 
ATOM     16  C   UNL     1       5.756   4.052  14.114  0.00  0.00    +0.000 A 
ENDBRANCH   9  11
ENDBRANCH   1   8
BRANCH   4  17
ATOM     17  S   UNL     1       3.057   6.049  18.866  0.00  0.00    +0.000 S 
ATOM     18  O   UNL     1       2.434   6.417  20.118  0.00  0.00    +0.000 OA
ATOM     19  O   UNL     1       2.539   6.595  17.624  0.00  0.00    +0.000 OA
BRANCH  17  20
ATOM     20  C   UNL     1       2.995   4.271  18.726  0.00  0.00    +0.000 A 
ATOM     21  C   UNL     1       3.541   3.714  17.551  0.00  0.00    +0.000 A 
ATOM     22  C   UNL     1       3.484   2.342  17.313  0.00  0.00    +0.000 A 
ATOM     23  C   UNL     1       2.892   1.506  18.248  0.00  0.00    +0.000 A 
ATOM     24  C   UNL     1       2.339   2.052  19.407  0.00  0.00    +0.000 A 
ATOM     25  C   UNL     1       2.361   3.444  19.667  0.00  0.00    +0.000 A 
BRANCH  25  26
ATOM     26  C   UNL     1       1.654   3.894  20.923  0.00  0.00    +0.000 C 
ATOM     27  F   UNL     1       2.379   4.575  21.837  0.00  0.00    +0.000 F 
ATOM     28  F   UNL     1       0.572   4.673  20.634  0.00  0.00    +0.000 F 
ATOM     29  F   UNL     1       1.148   2.823  21.607  0.00  0.00    +0.000 F 
ENDBRANCH  25  26
ENDBRANCH  17  20
ENDBRANCH   4  17
TORSDOF 5
ENDMDL
MODEL 2
REMARK VINA RESULT:      -8.7      1.698      2.446
REMARK  Name = 
REMARK  5 active torsions:
REMARK  status: ('A' for Active; 'I' for Inactive)
REMARK    1  A    between atoms: C_2  and  C_10
REMARK    2  A    between atoms: N_3  and  C_4
REMARK    3  A    between atoms: N_13  and  S_14
REMARK    4  A    between atoms: S_14  and  C_17
REMARK    5  A    between atoms: C_22  and  C_23
REMARK                            x       y       z     vdW  Elec       q    Type
REMARK                         _______ _______ _______ _____ _____    ______ ____
ROOT
ATOM      1  C   UNL     1       7.419   6.173  17.830  0.00  0.00    +0.000 C 
ATOM      2  C   UNL     1       6.960   5.580  19.166  0.00  0.00    +0.000 C 
ATOM      3  C   UNL     1       5.458   5.288  19.220  0.00  0.00    +0.000 C 
ATOM      4  N   UNL     1       4.628   6.471  18.837  0.00  0.00    +0.000 NA
ATOM      5  C   UNL     1       5.081   7.099  17.547  0.00  0.00    +0.000 C 
ATOM      6  C   UNL     1       6.573   7.409  17.533  0.00  0.00    +0.000 C 
ENDROOT
BRANCH   1   8
ATOM      7  O   UNL     1       7.935   4.039  16.831  0.00  0.00    +0.000 OA
ATOM      8  C   UNL     1       7.406   5.139  16.698  0.00  0.00    +0.000 C 
ATOM      9  N   UNL     1       6.809   5.601  15.530  0.00  0.00    +0.000 N 
ATOM     10  H   UNL     1       6.530   6.573  15.511  0.00  0.00    +0.000 HD
BRANCH   9  11
ATOM     11  C   UNL     1       6.682   4.898  14.304  0.00  0.00    +0.000 A 
ATOM     12  C   UNL     1       5.675   3.974  14.041  0.00  0.00    +0.000 A 
ATOM     13  C   UNL     1       5.666   3.330  12.813  0.00  0.00    +0.000 A 
ATOM     14  N   UNL     1       6.581   3.542  11.844  0.00  0.00    +0.000 NA
ATOM     15  C   UNL     1       7.539   4.449  12.113  0.00  0.00    +0.000 A 
ATOM     16  C   UNL     1       7.626   5.151  13.308  0.00  0.00    +0.000 A 
ENDBRANCH   9  11
ENDBRANCH   1   8
BRANCH   4  17
ATOM     17  S   UNL     1       2.926   6.107  18.705  0.00  0.00    +0.000 S 
ATOM     18  O   UNL     1       2.154   7.148  19.348  0.00  0.00    +0.000 OA
ATOM     19  O   UNL     1       2.691   5.810  17.303  0.00  0.00    +0.000 OA
BRANCH  17  20
ATOM     20  C   UNL     1       2.668   4.594  19.615  0.00  0.00    +0.000 A 
ATOM     21  C   UNL     1       2.336   4.730  20.979  0.00  0.00    +0.000 A 
ATOM     22  C   UNL     1       2.178   3.612  21.796  0.00  0.00    +0.000 A 
ATOM     23  C   UNL     1       2.338   2.343  21.260  0.00  0.00    +0.000 A 
ATOM     24  C   UNL     1       2.678   2.200  19.914  0.00  0.00    +0.000 A 
ATOM     25  C   UNL     1       2.867   3.318  19.065  0.00  0.00    +0.000 A 
BRANCH  25  26
ATOM     26  C   UNL     1       3.309   3.009  17.654  0.00  0.00    +0.000 C 
ATOM     27  F   UNL     1       4.399   3.656  17.186  0.00  0.00    +0.000 F 
ATOM     28  F   UNL     1       3.553   1.677  17.489  0.00  0.00    +0.000 F 
ATOM     29  F   UNL     1       2.318   3.302  16.759  0.00  0.00    +0.000 F 
ENDBRANCH  25  26
ENDBRANCH  17  20
ENDBRANCH   4  17
TORSDOF 5
ENDMDL
MODEL 3
REMARK VINA RESULT:      -8.5      1.687      2.279
REMARK  Name = 
REMARK  5 active torsions:
REMARK  status: ('A' for Active; 'I' for Inactive)
REMARK    1  A    between atoms: C_2  and  C_10
REMARK    2  A    between atoms: N_3  and  C_4
REMARK    3  A    between atoms: N_13  and  S_14
REMARK    4  A    between atoms: S_14  and  C_17
REMARK    5  A    between atoms: C_22  and  C_23
REMARK                            x       y       z     vdW  Elec       q    Type
REMARK                         _______ _______ _______ _____ _____    ______ ____
ROOT
ATOM      1  C   UNL     1       7.462   6.181  17.864  0.00  0.00    +0.000 C 
ATOM      2  C   UNL     1       6.982   5.575  19.187  0.00  0.00    +0.000 C 
ATOM      3  C   UNL     1       5.482   5.272  19.211  0.00  0.00    +0.000 C 
ATOM      4  N   UNL     1       4.651   6.452  18.821  0.00  0.00    +0.000 NA
ATOM      5  C   UNL     1       5.123   7.093  17.544  0.00  0.00    +0.000 C 
ATOM      6  C   UNL     1       6.613   7.413  17.561  0.00  0.00    +0.000 C 
ENDROOT
BRANCH   1   8
ATOM      7  O   UNL     1       7.950   4.033  16.881  0.00  0.00    +0.000 OA
ATOM      8  C   UNL     1       7.478   5.156  16.724  0.00  0.00    +0.000 C 
ATOM      9  N   UNL     1       6.976   5.649  15.525  0.00  0.00    +0.000 N 
ATOM     10  H   UNL     1       6.740   6.633  15.497  0.00  0.00    +0.000 HD
BRANCH   9  11
ATOM     11  C   UNL     1       6.898   4.961  14.287  0.00  0.00    +0.000 A 
ATOM     12  C   UNL     1       7.754   5.197  13.215  0.00  0.00    +0.000 A 
ATOM     13  C   UNL     1       7.567   4.478  12.044  0.00  0.00    +0.000 A 
ATOM     14  N   UNL     1       6.597   3.555  11.871  0.00  0.00    +0.000 NA
ATOM     15  C   UNL     1       5.789   3.333  12.926  0.00  0.00    +0.000 A 
ATOM     16  C   UNL     1       5.903   3.993  14.141  0.00  0.00    +0.000 A 
ENDBRANCH   9  11
ENDBRANCH   1   8
BRANCH   4  17
ATOM     17  S   UNL     1       2.954   6.077  18.654  0.00  0.00    +0.000 S 
ATOM     18  O   UNL     1       2.162   7.139  19.236  0.00  0.00    +0.000 OA
ATOM     19  O   UNL     1       2.760   5.727  17.259  0.00  0.00    +0.000 OA
BRANCH  17  20
ATOM     20  C   UNL     1       2.674   4.598  19.613  0.00  0.00    +0.000 A 
ATOM     21  C   UNL     1       2.378   4.782  20.979  0.00  0.00    +0.000 A 
ATOM     22  C   UNL     1       2.207   3.692  21.831  0.00  0.00    +0.000 A 
ATOM     23  C   UNL     1       2.318   2.404  21.328  0.00  0.00    +0.000 A 
ATOM     24  C   UNL     1       2.624   2.215  19.980  0.00  0.00    +0.000 A 
ATOM     25  C   UNL     1       2.826   3.302  19.095  0.00  0.00    +0.000 A 
BRANCH  25  26
ATOM     26  C   UNL     1       3.227   2.942  17.684  0.00  0.00    +0.000 C 
ATOM     27  F   UNL     1       3.451   1.638  17.413  0.00  0.00    +0.000 F 
ATOM     28  F   UNL     1       2.300   3.368  16.779  0.00  0.00    +0.000 F 
ATOM     29  F   UNL     1       4.385   3.576  17.331  0.00  0.00    +0.000 F 
ENDBRANCH  25  26
ENDBRANCH  17  20
ENDBRANCH   4  17
TORSDOF 5
ENDMDL
MODEL 4
REMARK VINA RESULT:      -8.3      3.248      5.337
REMARK  Name = 
REMARK  5 active torsions:
REMARK  status: ('A' for Active; 'I' for Inactive)
REMARK    1  A    between atoms: C_2  and  C_10
REMARK    2  A    between atoms: N_3  and  C_4
REMARK    3  A    between atoms: N_13  and  S_14
REMARK    4  A    between atoms: S_14  and  C_17
REMARK    5  A    between atoms: C_22  and  C_23
REMARK                            x       y       z     vdW  Elec       q    Type
REMARK                         _______ _______ _______ _____ _____    ______ ____
ROOT
ATOM      1  C   UNL     1       7.851   6.218  17.930  0.00  0.00    +0.000 C 
ATOM      2  C   UNL     1       7.142   5.588  16.727  0.00  0.00    +0.000 C 
ATOM      3  C   UNL     1       5.616   5.679  16.802  0.00  0.00    +0.000 C 
ATOM      4  N   UNL     1       5.071   5.152  18.091  0.00  0.00    +0.000 NA
ATOM      5  C   UNL     1       5.775   5.725  19.291  0.00  0.00    +0.000 C 
ATOM      6  C   UNL     1       7.291   5.592  19.205  0.00  0.00    +0.000 C 
ENDROOT
BRANCH   1   8
ATOM      7  O   UNL     1       6.978   8.343  17.192  0.00  0.00    +0.000 OA
ATOM      8  C   UNL     1       7.771   7.750  17.918  0.00  0.00    +0.000 C 
ATOM      9  N   UNL     1       8.709   8.362  18.743  0.00  0.00    +0.000 N 
ATOM     10  H   UNL     1       9.391   7.761  19.187  0.00  0.00    +0.000 HD
BRANCH   9  11
ATOM     11  C   UNL     1       8.911   9.756  18.913  0.00  0.00    +0.000 A 
ATOM     12  C   UNL     1       9.244  10.347  20.128  0.00  0.00    +0.000 A 
ATOM     13  C   UNL     1       9.394  11.724  20.179  0.00  0.00    +0.000 A 
ATOM     14  N   UNL     1       9.236  12.541  19.116  0.00  0.00    +0.000 NA
ATOM     15  C   UNL     1       8.927  11.947  17.947  0.00  0.00    +0.000 A 
ATOM     16  C   UNL     1       8.765  10.577  17.794  0.00  0.00    +0.000 A 
ENDBRANCH   9  11
ENDBRANCH   1   8
BRANCH   4  17
ATOM     17  S   UNL     1       3.356   5.422  18.277  0.00  0.00    +0.000 S 
ATOM     18  O   UNL     1       3.128   6.747  18.811  0.00  0.00    +0.000 OA
ATOM     19  O   UNL     1       2.756   5.053  17.008  0.00  0.00    +0.000 OA
BRANCH  17  20
ATOM     20  C   UNL     1       2.795   4.240  19.490  0.00  0.00    +0.000 A 
ATOM     21  C   UNL     1       2.382   4.763  20.733  0.00  0.00    +0.000 A 
ATOM     22  C   UNL     1       1.987   3.921  21.771  0.00  0.00    +0.000 A 
ATOM     23  C   UNL     1       1.990   2.548  21.581  0.00  0.00    +0.000 A 
ATOM     24  C   UNL     1       2.410   2.022  20.358  0.00  0.00    +0.000 A 
ATOM     25  C   UNL     1       2.837   2.851  19.291  0.00  0.00    +0.000 A 
BRANCH  25  26
ATOM     26  C   UNL     1       3.337   2.136  18.058  0.00  0.00    +0.000 C 
ATOM     27  F   UNL     1       4.404   2.664  17.420  0.00  0.00    +0.000 F 
ATOM     28  F   UNL     1       3.655   0.838  18.329  0.00  0.00    +0.000 F 
ATOM     29  F   UNL     1       2.358   2.070  17.105  0.00  0.00    +0.000 F 
ENDBRANCH  25  26
ENDBRANCH  17  20
ENDBRANCH   4  17
TORSDOF 5
ENDMDL
MODEL 5
REMARK VINA RESULT:      -8.3      3.267      5.356
REMARK  Name = 
REMARK  5 active torsions:
REMARK  status: ('A' for Active; 'I' for Inactive)
REMARK    1  A    between atoms: C_2  and  C_10
REMARK    2  A    between atoms: N_3  and  C_4
REMARK    3  A    between atoms: N_13  and  S_14
REMARK    4  A    between atoms: S_14  and  C_17
REMARK    5  A    between atoms: C_22  and  C_23
REMARK                            x       y       z     vdW  Elec       q    Type
REMARK                         _______ _______ _______ _____ _____    ______ ____
ROOT
ATOM      1  C   UNL     1       7.718   6.380  17.758  0.00  0.00    +0.000 C 
ATOM      2  C   UNL     1       6.823   5.826  16.645  0.00  0.00    +0.000 C 
ATOM      3  C   UNL     1       5.328   6.005  16.919  0.00  0.00    +0.000 C 
ATOM      4  N   UNL     1       4.921   5.477  18.257  0.00  0.00    +0.000 NA
ATOM      5  C   UNL     1       5.807   5.973  19.366  0.00  0.00    +0.000 C 
ATOM      6  C   UNL     1       7.288   5.753  19.082  0.00  0.00    +0.000 C 
ENDROOT
BRANCH   1   8
ATOM      7  O   UNL     1       7.019   8.573  17.036  0.00  0.00    +0.000 OA
ATOM      8  C   UNL     1       7.733   7.913  17.786  0.00  0.00    +0.000 C 
ATOM      9  N   UNL     1       8.660   8.444  18.676  0.00  0.00    +0.000 N 
ATOM     10  H   UNL     1       9.278   7.790  19.139  0.00  0.00    +0.000 HD
BRANCH   9  11
ATOM     11  C   UNL     1       8.938   9.818  18.897  0.00  0.00    +0.000 A 
ATOM     12  C   UNL     1       8.899  10.786  17.897  0.00  0.00    +0.000 A 
ATOM     13  C   UNL     1       9.214  12.095  18.226  0.00  0.00    +0.000 A 
ATOM     14  N   UNL     1       9.560  12.499  19.467  0.00  0.00    +0.000 NA
ATOM     15  C   UNL     1       9.578  11.549  20.422  0.00  0.00    +0.000 A 
ATOM     16  C   UNL     1       9.270  10.216  20.192  0.00  0.00    +0.000 A 
ENDBRANCH   9  11
ENDBRANCH   1   8
BRANCH   4  17
ATOM     17  S   UNL     1       3.264   5.843  18.670  0.00  0.00    +0.000 S 
ATOM     18  O   UNL     1       3.225   6.991  19.549  0.00  0.00    +0.000 OA
ATOM     19  O   UNL     1       2.542   5.884  17.411  0.00  0.00    +0.000 OA
BRANCH  17  20
ATOM     20  C   UNL     1       2.655   4.434  19.582  0.00  0.00    +0.000 A 
ATOM     21  C   UNL     1       2.316   4.659  20.932  0.00  0.00    +0.000 A 
ATOM     22  C   UNL     1       1.893   3.613  21.750  0.00  0.00    +0.000 A 
ATOM     23  C   UNL     1       1.792   2.332  21.230  0.00  0.00    +0.000 A 
ATOM     24  C   UNL     1       2.139   2.100  19.898  0.00  0.00    +0.000 A 
ATOM     25  C   UNL     1       2.593   3.137  19.048  0.00  0.00    +0.000 A 
BRANCH  25  26
ATOM     26  C   UNL     1       3.005   2.720  17.656  0.00  0.00    +0.000 C 
ATOM     27  F   UNL     1       2.387   3.320  16.616  0.00  0.00    +0.000 F 
ATOM     28  F   UNL     1       4.343   2.895  17.460  0.00  0.00    +0.000 F 
ATOM     29  F   UNL     1       2.790   1.383  17.466  0.00  0.00    +0.000 F 
ENDBRANCH  25  26
ENDBRANCH  17  20
ENDBRANCH   4  17
TORSDOF 5
ENDMDL
MODEL 6
REMARK VINA RESULT:      -7.9      2.902      4.992
REMARK  Name = 
REMARK  5 active torsions:
REMARK  status: ('A' for Active; 'I' for Inactive)
REMARK    1  A    between atoms: C_2  and  C_10
REMARK    2  A    between atoms: N_3  and  C_4
REMARK    3  A    between atoms: N_13  and  S_14
REMARK    4  A    between atoms: S_14  and  C_17
REMARK    5  A    between atoms: C_22  and  C_23
REMARK                            x       y       z     vdW  Elec       q    Type
REMARK                         _______ _______ _______ _____ _____    ______ ____
ROOT
ATOM      1  C   UNL     1       7.255   5.876  17.172  0.00  0.00    +0.000 C 
ATOM      2  C   UNL     1       6.173   6.414  16.231  0.00  0.00    +0.000 C 
ATOM      3  C   UNL     1       4.865   6.766  16.943  0.00  0.00    +0.000 C 
ATOM      4  N   UNL     1       4.346   5.641  17.781  0.00  0.00    +0.000 NA
ATOM      5  C   UNL     1       5.399   5.065  18.689  0.00  0.00    +0.000 C 
ATOM      6  C   UNL     1       6.678   4.695  17.948  0.00  0.00    +0.000 C 
ENDROOT
BRANCH   1   8
ATOM      7  O   UNL     1       8.152   6.739  19.240  0.00  0.00    +0.000 OA
ATOM      8  C   UNL     1       7.841   6.970  18.074  0.00  0.00    +0.000 C 
ATOM      9  N   UNL     1       7.912   8.216  17.462  0.00  0.00    +0.000 N 
ATOM     10  H   UNL     1       7.501   8.299  16.541  0.00  0.00    +0.000 HD
BRANCH   9  11
ATOM     11  C   UNL     1       8.365   9.427  18.047  0.00  0.00    +0.000 A 
ATOM     12  C   UNL     1       9.076   9.491  19.243  0.00  0.00    +0.000 A 
ATOM     13  C   UNL     1       9.446  10.735  19.731  0.00  0.00    +0.000 A 
ATOM     14  N   UNL     1       9.159  11.903  19.118  0.00  0.00    +0.000 NA
ATOM     15  C   UNL     1       8.482  11.817  17.956  0.00  0.00    +0.000 A 
ATOM     16  C   UNL     1       8.077  10.620  17.383  0.00  0.00    +0.000 A 
ENDBRANCH   9  11
ENDBRANCH   1   8
BRANCH   4  17
ATOM     17  S   UNL     1       2.963   6.082  18.751  0.00  0.00    +0.000 S 
ATOM     18  O   UNL     1       3.356   7.061  19.740  0.00  0.00    +0.000 OA
ATOM     19  O   UNL     1       1.906   6.405  17.810  0.00  0.00    +0.000 OA
BRANCH  17  20
ATOM     20  C   UNL     1       2.467   4.601  19.614  0.00  0.00    +0.000 A 
ATOM     21  C   UNL     1       2.382   4.691  21.019  0.00  0.00    +0.000 A 
ATOM     22  C   UNL     1       2.067   3.576  21.793  0.00  0.00    +0.000 A 
ATOM     23  C   UNL     1       1.823   2.358  21.176  0.00  0.00    +0.000 A 
ATOM     24  C   UNL     1       1.918   2.258  19.787  0.00  0.00    +0.000 A 
ATOM     25  C   UNL     1       2.258   3.368  18.975  0.00  0.00    +0.000 A 
BRANCH  25  26
ATOM     26  C   UNL     1       2.399   3.089  17.498  0.00  0.00    +0.000 C 
ATOM     27  F   UNL     1       3.599   3.334  16.928  0.00  0.00    +0.000 F 
ATOM     28  F   UNL     1       2.094   1.792  17.205  0.00  0.00    +0.000 F 
ATOM     29  F   UNL     1       1.510   3.835  16.774  0.00  0.00    +0.000 F 
ENDBRANCH  25  26
ENDBRANCH  17  20
ENDBRANCH   4  17
TORSDOF 5
ENDMDL
MODEL 7
REMARK VINA RESULT:      -7.7      2.950      4.966
REMARK  Name = 
REMARK  5 active torsions:
REMARK  status: ('A' for Active; 'I' for Inactive)
REMARK    1  A    between atoms: C_2  and  C_10
REMARK    2  A    between atoms: N_3  and  C_4
REMARK    3  A    between atoms: N_13  and  S_14
REMARK    4  A    between atoms: S_14  and  C_17
REMARK    5  A    between atoms: C_22  and  C_23
REMARK                            x       y       z     vdW  Elec       q    Type
REMARK                         _______ _______ _______ _____ _____    ______ ____
ROOT
ATOM      1  C   UNL     1       7.093   6.713  16.574  0.00  0.00    +0.000 C 
ATOM      2  C   UNL     1       5.583   6.973  16.582  0.00  0.00    +0.000 C 
ATOM      3  C   UNL     1       4.869   6.380  17.799  0.00  0.00    +0.000 C 
ATOM      4  N   UNL     1       5.171   4.929  17.993  0.00  0.00    +0.000 NA
ATOM      5  C   UNL     1       6.647   4.637  17.950  0.00  0.00    +0.000 C 
ATOM      6  C   UNL     1       7.326   5.211  16.713  0.00  0.00    +0.000 C 
ENDROOT
BRANCH   1   8
ATOM      7  O   UNL     1       8.267   7.034  18.657  0.00  0.00    +0.000 OA
ATOM      8  C   UNL     1       7.834   7.545  17.628  0.00  0.00    +0.000 C 
ATOM      9  N   UNL     1       7.895   8.900  17.325  0.00  0.00    +0.000 N 
ATOM     10  H   UNL     1       7.383   9.212  16.509  0.00  0.00    +0.000 HD
BRANCH   9  11
ATOM     11  C   UNL     1       8.473   9.925  18.118  0.00  0.00    +0.000 A 
ATOM     12  C   UNL     1       9.047   9.706  19.368  0.00  0.00    +0.000 A 
ATOM     13  C   UNL     1       9.560  10.790  20.063  0.00  0.00    +0.000 A 
ATOM     14  N   UNL     1       9.540  12.060  19.605  0.00  0.00    +0.000 NA
ATOM     15  C   UNL     1       8.992  12.247  18.388  0.00  0.00    +0.000 A 
ATOM     16  C   UNL     1       8.462  11.226  17.613  0.00  0.00    +0.000 A 
ENDBRANCH   9  11
ENDBRANCH   1   8
BRANCH   4  17
ATOM     17  S   UNL     1       4.524   4.280  19.479  0.00  0.00    +0.000 S 
ATOM     18  O   UNL     1       5.310   3.138  19.894  0.00  0.00    +0.000 OA
ATOM     19  O   UNL     1       4.383   5.412  20.377  0.00  0.00    +0.000 OA
BRANCH  17  20
ATOM     20  C   UNL     1       2.880   3.702  19.096  0.00  0.00    +0.000 A 
ATOM     21  C   UNL     1       2.451   3.867  17.763  0.00  0.00    +0.000 A 
ATOM     22  C   UNL     1       1.161   3.509  17.373  0.00  0.00    +0.000 A 
ATOM     23  C   UNL     1       0.287   2.973  18.306  0.00  0.00    +0.000 A 
ATOM     24  C   UNL     1       0.700   2.819  19.630  0.00  0.00    +0.000 A 
ATOM     25  C   UNL     1       1.996   3.194  20.061  0.00  0.00    +0.000 A 
BRANCH  25  26
ATOM     26  C   UNL     1       2.272   3.041  21.538  0.00  0.00    +0.000 C 
ATOM     27  F   UNL     1       2.575   4.158  22.235  0.00  0.00    +0.000 F 
ATOM     28  F   UNL     1       1.221   2.459  22.183  0.00  0.00    +0.000 F 
ATOM     29  F   UNL     1       3.329   2.199  21.750  0.00  0.00    +0.000 F 
ENDBRANCH  25  26
ENDBRANCH  17  20
ENDBRANCH   4  17
TORSDOF 5
ENDMDL
MODEL 8
REMARK VINA RESULT:      -7.7      5.501      7.730
REMARK  Name = 
REMARK  5 active torsions:
REMARK  status: ('A' for Active; 'I' for Inactive)
REMARK    1  A    between atoms: C_2  and  C_10
REMARK    2  A    between atoms: N_3  and  C_4
REMARK    3  A    between atoms: N_13  and  S_14
REMARK    4  A    between atoms: S_14  and  C_17
REMARK    5  A    between atoms: C_22  and  C_23
REMARK                            x       y       z     vdW  Elec       q    Type
REMARK                         _______ _______ _______ _____ _____    ______ ____
ROOT
ATOM      1  C   UNL     1       1.122  10.452  19.343  0.00  0.00    +0.000 C 
ATOM      2  C   UNL     1       1.985  10.142  18.116  0.00  0.00    +0.000 C 
ATOM      3  C   UNL     1       2.036   8.654  17.766  0.00  0.00    +0.000 C 
ATOM      4  N   UNL     1       2.424   7.802  18.932  0.00  0.00    +0.000 NA
ATOM      5  C   UNL     1       1.618   8.110  20.164  0.00  0.00    +0.000 C 
ATOM      6  C   UNL     1       1.611   9.595  20.508  0.00  0.00    +0.000 C 
ENDROOT
BRANCH   1   8
ATOM      7  O   UNL     1      -1.087   9.573  19.753  0.00  0.00    +0.000 OA
ATOM      8  C   UNL     1      -0.377  10.293  19.057  0.00  0.00    +0.000 C 
ATOM      9  N   UNL     1      -0.803  10.979  17.926  0.00  0.00    +0.000 N 
ATOM     10  H   UNL     1      -0.089  11.430  17.366  0.00  0.00    +0.000 HD
BRANCH   9  11
ATOM     11  C   UNL     1      -2.113  10.994  17.382  0.00  0.00    +0.000 A 
ATOM     12  C   UNL     1      -2.426  10.536  16.104  0.00  0.00    +0.000 A 
ATOM     13  C   UNL     1      -3.740  10.622  15.671  0.00  0.00    +0.000 A 
ATOM     14  N   UNL     1      -4.749  11.127  16.412  0.00  0.00    +0.000 NA
ATOM     15  C   UNL     1      -4.426  11.552  17.649  0.00  0.00    +0.000 A 
ATOM     16  C   UNL     1      -3.143  11.499  18.176  0.00  0.00    +0.000 A 
ENDBRANCH   9  11
ENDBRANCH   1   8
BRANCH   4  17
ATOM     17  S   UNL     1       2.301   6.090  18.609  0.00  0.00    +0.000 S 
ATOM     18  O   UNL     1       2.252   5.362  19.858  0.00  0.00    +0.000 OA
ATOM     19  O   UNL     1       1.216   5.944  17.655  0.00  0.00    +0.000 OA
BRANCH  17  20
ATOM     20  C   UNL     1       3.808   5.633  17.768  0.00  0.00    +0.000 A 
ATOM     21  C   UNL     1       4.632   6.693  17.336  0.00  0.00    +0.000 A 
ATOM     22  C   UNL     1       5.798   6.447  16.612  0.00  0.00    +0.000 A 
ATOM     23  C   UNL     1       6.162   5.142  16.320  0.00  0.00    +0.000 A 
ATOM     24  C   UNL     1       5.345   4.089  16.734  0.00  0.00    +0.000 A 
ATOM     25  C   UNL     1       4.143   4.307  17.451  0.00  0.00    +0.000 A 
BRANCH  25  26
ATOM     26  C   UNL     1       3.325   3.076  17.762  0.00  0.00    +0.000 C 
ATOM     27  F   UNL     1       2.051   3.044  17.314  0.00  0.00    +0.000 F 
ATOM     28  F   UNL     1       3.927   1.947  17.290  0.00  0.00    +0.000 F 
ATOM     29  F   UNL     1       3.225   2.888  19.113  0.00  0.00    +0.000 F 
ENDBRANCH  25  26
ENDBRANCH  17  20
ENDBRANCH   4  17
TORSDOF 5
ENDMDL
MODEL 9
REMARK VINA RESULT:      -7.7      1.675      2.396
REMARK  Name = 
REMARK  5 active torsions:
REMARK  status: ('A' for Active; 'I' for Inactive)
REMARK    1  A    between atoms: C_2  and  C_10
REMARK    2  A    between atoms: N_3  and  C_4
REMARK    3  A    between atoms: N_13  and  S_14
REMARK    4  A    between atoms: S_14  and  C_17
REMARK    5  A    between atoms: C_22  and  C_23
REMARK                            x       y       z     vdW  Elec       q    Type
REMARK                         _______ _______ _______ _____ _____    ______ ____
ROOT
ATOM      1  C   UNL     1       7.259   6.102  17.864  0.00  0.00    +0.000 C 
ATOM      2  C   UNL     1       6.747   5.383  19.117  0.00  0.00    +0.000 C 
ATOM      3  C   UNL     1       5.279   4.961  19.021  0.00  0.00    +0.000 C 
ATOM      4  N   UNL     1       4.380   6.093  18.638  0.00  0.00    +0.000 NA
ATOM      5  C   UNL     1       4.878   6.842  17.433  0.00  0.00    +0.000 C 
ATOM      6  C   UNL     1       6.332   7.278  17.568  0.00  0.00    +0.000 C 
ENDROOT
BRANCH   1   8
ATOM      7  O   UNL     1       8.144   4.151  16.754  0.00  0.00    +0.000 OA
ATOM      8  C   UNL     1       7.433   5.149  16.675  0.00  0.00    +0.000 C 
ATOM      9  N   UNL     1       6.771   5.567  15.526  0.00  0.00    +0.000 N 
ATOM     10  H   UNL     1       6.327   6.476  15.557  0.00  0.00    +0.000 HD
BRANCH   9  11
ATOM     11  C   UNL     1       6.776   4.926  14.260  0.00  0.00    +0.000 A 
ATOM     12  C   UNL     1       5.903   3.900  13.909  0.00  0.00    +0.000 A 
ATOM     13  C   UNL     1       6.017   3.332  12.649  0.00  0.00    +0.000 A 
ATOM     14  N   UNL     1       6.929   3.711  11.729  0.00  0.00    +0.000 NA
ATOM     15  C   UNL     1       7.755   4.714  12.085  0.00  0.00    +0.000 A 
ATOM     16  C   UNL     1       7.712   5.351  13.317  0.00  0.00    +0.000 A 
ENDBRANCH   9  11
ENDBRANCH   1   8
BRANCH   4  17
ATOM     17  S   UNL     1       2.734   5.595  18.336  0.00  0.00    +0.000 S 
ATOM     18  O   UNL     1       1.862   6.749  18.375  0.00  0.00    +0.000 OA
ATOM     19  O   UNL     1       2.780   4.777  17.138  0.00  0.00    +0.000 OA
BRANCH  17  20
ATOM     20  C   UNL     1       2.281   4.522  19.689  0.00  0.00    +0.000 A 
ATOM     21  C   UNL     1       2.715   4.914  20.973  0.00  0.00    +0.000 A 
ATOM     22  C   UNL     1       2.472   4.114  22.088  0.00  0.00    +0.000 A 
ATOM     23  C   UNL     1       1.784   2.919  21.940  0.00  0.00    +0.000 A 
ATOM     24  C   UNL     1       1.363   2.519  20.670  0.00  0.00    +0.000 A 
ATOM     25  C   UNL     1       1.615   3.299  19.515  0.00  0.00    +0.000 A 
BRANCH  25  26
ATOM     26  C   UNL     1       1.168   2.700  18.202  0.00  0.00    +0.000 C 
ATOM     27  F   UNL     1       2.118   2.160  17.408  0.00  0.00    +0.000 F 
ATOM     28  F   UNL     1       0.229   1.729  18.392  0.00  0.00    +0.000 F 
ATOM     29  F   UNL     1       0.554   3.640  17.423  0.00  0.00    +0.000 F 
ENDBRANCH  25  26
ENDBRANCH  17  20
ENDBRANCH   4  17
TORSDOF 5
ENDMDL
