MODEL 1
REMARK VINA RESULT:      -7.8      0.000      0.000
REMARK  Name = 
REMARK  9 active torsions:
REMARK  status: ('A' for Active; 'I' for Inactive)
REMARK    1  A    between atoms: C_1  and  O_2
REMARK    2  A    between atoms: O_2  and  C_3
REMARK    3  A    between atoms: C_8  and  C_9
REMARK    4  A    between atoms: N_11  and  C_12
REMARK    5  A    between atoms: C_17  and  S_18
REMARK    6  A    between atoms: S_18  and  C_19
REMARK    7  A    between atoms: C_19  and  C_20
REMARK    8  A    between atoms: N_22  and  C_23
REMARK    9  A    between atoms: C_23  and  C_24
REMARK                            x       y       z     vdW  Elec       q    Type
REMARK                         _______ _______ _______ _____ _____    ______ ____
ROOT
ATOM      1  C   UNL     1       7.920   8.160  17.794  0.00  0.00    +0.000 A 
ATOM      2  C   UNL     1       8.375   7.355  18.845  0.00  0.00    +0.000 A 
ATOM      3  C   UNL     1       7.794   6.122  19.144  0.00  0.00    +0.000 A 
ATOM      4  C   UNL     1       6.715   5.665  18.381  0.00  0.00    +0.000 A 
ATOM      5  N   UNL     1       6.011   4.504  18.632  0.00  0.00    +0.000 NA
ATOM      6  C   UNL     1       5.042   4.385  17.760  0.00  0.00    +0.000 A 
ATOM      7  S   UNL     1       4.969   5.599  16.549  0.00  0.00    +0.000 S 
ATOM      8  C   UNL     1       6.288   6.432  17.294  0.00  0.00    +0.000 A 
ATOM      9  C   UNL     1       6.893   7.674  16.967  0.00  0.00    +0.000 A 
ENDROOT
BRANCH   1  12
ATOM     10  C   UNL     1       9.108  10.225  18.528  0.00  0.00    +0.000 C 
ATOM     11  O   UNL     1       9.202   9.892  19.714  0.00  0.00    +0.000 OA
ATOM     12  N   UNL     1       8.470   9.456  17.557  0.00  0.00    +0.000 N 
ATOM     13  H   UNL     1       8.295   9.901  16.666  0.00  0.00    +0.000 HD
BRANCH  10  19
ATOM     14  C   UNL     1       8.940  12.747  17.982  0.00  0.00    +0.000 A 
ATOM     15  C   UNL     1       9.634  13.950  17.743  0.00  0.00    +0.000 A 
ATOM     16  C   UNL     1      11.023  13.972  17.603  0.00  0.00    +0.000 A 
ATOM     17  C   UNL     1      11.745  12.795  17.715  0.00  0.00    +0.000 A 
ATOM     18  C   UNL     1      11.075  11.611  18.012  0.00  0.00    +0.000 A 
ATOM     19  C   UNL     1       9.669  11.565  18.175  0.00  0.00    +0.000 A 
BRANCH  14  21
ATOM     20  C   UNL     1       6.933  13.890  17.548  0.00  0.00    +0.000 C 
ATOM     21  O   UNL     1       7.568  12.706  18.045  0.00  0.00    +0.000 OA
ENDBRANCH  14  21
ENDBRANCH  10  19
ENDBRANCH   1  12
BRANCH   6  22
ATOM     22  S   UNL     1       3.903   3.056  17.860  0.00  0.00    +0.000 S 
BRANCH  22  23
ATOM     23  C   UNL     1       4.159   2.497  19.575  0.00  0.00    +0.000 C 
BRANCH  23  24
ATOM     24  C   UNL     1       3.218   3.227  20.521  0.00  0.00    +0.000 C 
ATOM     25  O   UNL     1       2.749   2.688  21.521  0.00  0.00    +0.000 OA
ATOM     26  N   UNL     1       2.930   4.523  20.159  0.00  0.00    +0.000 N 
ATOM     27  H   UNL     1       3.276   4.870  19.270  0.00  0.00    +0.000 HD
BRANCH  26  28
ATOM     28  C   UNL     1       1.998   5.343  20.899  0.00  0.00    +0.000 C 
BRANCH  28  29
ATOM     29  C   UNL     1       1.896   6.721  20.300  0.00  0.00    +0.000 A 
ATOM     30  C   UNL     1       1.281   7.767  21.004  0.00  0.00    +0.000 A 
ATOM     31  C   UNL     1       1.131   9.024  20.413  0.00  0.00    +0.000 A 
ATOM     32  C   UNL     1       1.589   9.240  19.115  0.00  0.00    +0.000 A 
ATOM     33 CL   UNL     1       1.369  10.777  18.375  0.00  0.00    +0.000 Cl
ATOM     34  C   UNL     1       2.214   8.215  18.408  0.00  0.00    +0.000 A 
ATOM     35  C   UNL     1       2.364   6.959  18.999  0.00  0.00    +0.000 A 
ENDBRANCH  28  29
ENDBRANCH  26  28
ENDBRANCH  23  24
ENDBRANCH  22  23
ENDBRANCH   6  22
TORSDOF 8
ENDMDL
MODEL 2
REMARK VINA RESULT:      -7.8      5.234      8.523
REMARK  Name = 
REMARK  9 active torsions:
REMARK  status: ('A' for Active; 'I' for Inactive)
REMARK    1  A    between atoms: C_1  and  O_2
REMARK    2  A    between atoms: O_2  and  C_3
REMARK    3  A    between atoms: C_8  and  C_9
REMARK    4  A    between atoms: N_11  and  C_12
REMARK    5  A    between atoms: C_17  and  S_18
REMARK    6  A    between atoms: S_18  and  C_19
REMARK    7  A    between atoms: C_19  and  C_20
REMARK    8  A    between atoms: N_22  and  C_23
REMARK    9  A    between atoms: C_23  and  C_24
REMARK                            x       y       z     vdW  Elec       q    Type
REMARK                         _______ _______ _______ _____ _____    ______ ____
ROOT
ATOM      1  C   UNL     1       2.196   7.789  18.537  0.00  0.00    +0.000 A 
ATOM      2  C   UNL     1       1.641   8.901  17.894  0.00  0.00    +0.000 A 
ATOM      3  C   UNL     1       0.895   9.862  18.577  0.00  0.00    +0.000 A 
ATOM      4  C   UNL     1       0.681   9.718  19.952  0.00  0.00    +0.000 A 
ATOM      5  N   UNL     1      -0.104  10.559  20.717  0.00  0.00    +0.000 NA
ATOM      6  C   UNL     1      -0.127  10.127  21.953  0.00  0.00    +0.000 A 
ATOM      7  S   UNL     1       0.847   8.755  22.287  0.00  0.00    +0.000 S 
ATOM      8  C   UNL     1       1.277   8.643  20.616  0.00  0.00    +0.000 A 
ATOM      9  C   UNL     1       2.060   7.678  19.931  0.00  0.00    +0.000 A 
ENDROOT
BRANCH   1  12
ATOM     10  C   UNL     1       4.213   6.861  17.404  0.00  0.00    +0.000 C 
ATOM     11  O   UNL     1       4.917   7.861  17.578  0.00  0.00    +0.000 OA
ATOM     12  N   UNL     1       2.882   6.772  17.806  0.00  0.00    +0.000 N 
ATOM     13  H   UNL     1       2.351   5.985  17.457  0.00  0.00    +0.000 HD
BRANCH  10  19
ATOM     14  C   UNL     1       4.738   4.367  16.963  0.00  0.00    +0.000 A 
ATOM     15  C   UNL     1       5.326   3.421  16.100  0.00  0.00    +0.000 A 
ATOM     16  C   UNL     1       6.090   3.816  15.001  0.00  0.00    +0.000 A 
ATOM     17  C   UNL     1       6.268   5.164  14.736  0.00  0.00    +0.000 A 
ATOM     18  C   UNL     1       5.642   6.107  15.547  0.00  0.00    +0.000 A 
ATOM     19  C   UNL     1       4.848   5.731  16.657  0.00  0.00    +0.000 A 
BRANCH  14  21
ATOM     20  C   UNL     1       4.884   3.770  19.231  0.00  0.00    +0.000 C 
ATOM     21  O   UNL     1       4.048   3.985  18.089  0.00  0.00    +0.000 OA
ENDBRANCH  14  21
ENDBRANCH  10  19
ENDBRANCH   1  12
BRANCH   6  22
ATOM     22  S   UNL     1      -1.111  10.927  23.163  0.00  0.00    +0.000 S 
BRANCH  22  23
ATOM     23  C   UNL     1      -1.464  12.515  22.343  0.00  0.00    +0.000 C 
BRANCH  23  24
ATOM     24  C   UNL     1      -2.831  12.480  21.678  0.00  0.00    +0.000 C 
ATOM     25  O   UNL     1      -3.873  12.426  22.328  0.00  0.00    +0.000 OA
ATOM     26  N   UNL     1      -2.802  12.503  20.302  0.00  0.00    +0.000 N 
ATOM     27  H   UNL     1      -1.904  12.449  19.831  0.00  0.00    +0.000 HD
BRANCH  26  28
ATOM     28  C   UNL     1      -4.002  12.403  19.502  0.00  0.00    +0.000 C 
BRANCH  28  29
ATOM     29  C   UNL     1      -3.724  11.707  18.195  0.00  0.00    +0.000 A 
ATOM     30  C   UNL     1      -2.481  11.105  17.952  0.00  0.00    +0.000 A 
ATOM     31  C   UNL     1      -2.211  10.520  16.712  0.00  0.00    +0.000 A 
ATOM     32  C   UNL     1      -3.178  10.540  15.709  0.00  0.00    +0.000 A 
ATOM     33 CL   UNL     1      -2.829   9.854  14.171  0.00  0.00    +0.000 Cl
ATOM     34  C   UNL     1      -4.422  11.122  15.940  0.00  0.00    +0.000 A 
ATOM     35  C   UNL     1      -4.692  11.706  17.180  0.00  0.00    +0.000 A 
ENDBRANCH  28  29
ENDBRANCH  26  28
ENDBRANCH  23  24
ENDBRANCH  22  23
ENDBRANCH   6  22
TORSDOF 8
ENDMDL
MODEL 3
REMARK VINA RESULT:      -7.6      5.894      9.417
REMARK  Name = 
REMARK  9 active torsions:
REMARK  status: ('A' for Active; 'I' for Inactive)
REMARK    1  A    between atoms: C_1  and  O_2
REMARK    2  A    between atoms: O_2  and  C_3
REMARK    3  A    between atoms: C_8  and  C_9
REMARK    4  A    between atoms: N_11  and  C_12
REMARK    5  A    between atoms: C_17  and  S_18
REMARK    6  A    between atoms: S_18  and  C_19
REMARK    7  A    between atoms: C_19  and  C_20
REMARK    8  A    between atoms: N_22  and  C_23
REMARK    9  A    between atoms: C_23  and  C_24
REMARK                            x       y       z     vdW  Elec       q    Type
REMARK                         _______ _______ _______ _____ _____    ______ ____
ROOT
ATOM      1  C   UNL     1       1.322   8.892  19.885  0.00  0.00    +0.000 A 
ATOM      2  C   UNL     1       1.084  10.042  19.124  0.00  0.00    +0.000 A 
ATOM      3  C   UNL     1       0.333  11.114  19.608  0.00  0.00    +0.000 A 
ATOM      4  C   UNL     1      -0.212  11.047  20.893  0.00  0.00    +0.000 A 
ATOM      5  N   UNL     1      -1.036  12.008  21.448  0.00  0.00    +0.000 NA
ATOM      6  C   UNL     1      -1.403  11.627  22.646  0.00  0.00    +0.000 A 
ATOM      7  S   UNL     1      -0.723  10.155  23.207  0.00  0.00    +0.000 S 
ATOM      8  C   UNL     1       0.065   9.930  21.685  0.00  0.00    +0.000 A 
ATOM      9  C   UNL     1       0.852   8.849  21.208  0.00  0.00    +0.000 A 
ENDROOT
BRANCH   1  12
ATOM     10  C   UNL     1       2.639   7.764  18.094  0.00  0.00    +0.000 C 
ATOM     11  O   UNL     1       2.589   8.708  17.298  0.00  0.00    +0.000 OA
ATOM     12  N   UNL     1       2.019   7.771  19.341  0.00  0.00    +0.000 N 
ATOM     13  H   UNL     1       1.973   6.887  19.832  0.00  0.00    +0.000 HD
BRANCH  10  19
ATOM     14  C   UNL     1       2.986   5.212  17.852  0.00  0.00    +0.000 A 
ATOM     15  C   UNL     1       3.731   4.176  17.257  0.00  0.00    +0.000 A 
ATOM     16  C   UNL     1       4.886   4.442  16.519  0.00  0.00    +0.000 A 
ATOM     17  C   UNL     1       5.309   5.750  16.351  0.00  0.00    +0.000 A 
ATOM     18  C   UNL     1       4.547   6.786  16.885  0.00  0.00    +0.000 A 
ATOM     19  C   UNL     1       3.363   6.543  17.622  0.00  0.00    +0.000 A 
BRANCH  14  21
ATOM     20  C   UNL     1       1.503   3.574  18.653  0.00  0.00    +0.000 C 
ATOM     21  O   UNL     1       1.891   4.953  18.641  0.00  0.00    +0.000 OA
ENDBRANCH  14  21
ENDBRANCH  10  19
ENDBRANCH   1  12
BRANCH   6  22
ATOM     22  S   UNL     1      -2.528  12.588  23.587  0.00  0.00    +0.000 S 
BRANCH  22  23
ATOM     23  C   UNL     1      -3.188  13.710  22.313  0.00  0.00    +0.000 C 
BRANCH  23  24
ATOM     24  C   UNL     1      -4.296  13.029  21.524  0.00  0.00    +0.000 C 
ATOM     25  O   UNL     1      -5.114  12.282  22.056  0.00  0.00    +0.000 OA
ATOM     26  N   UNL     1      -4.297  13.308  20.176  0.00  0.00    +0.000 N 
ATOM     27  H   UNL     1      -3.533  13.855  19.790  0.00  0.00    +0.000 HD
BRANCH  26  28
ATOM     28  C   UNL     1      -5.230  12.693  19.260  0.00  0.00    +0.000 C 
BRANCH  28  29
ATOM     29  C   UNL     1      -4.507  11.968  18.155  0.00  0.00    +0.000 A 
ATOM     30  C   UNL     1      -5.085  11.834  16.885  0.00  0.00    +0.000 A 
ATOM     31  C   UNL     1      -4.436  11.102  15.887  0.00  0.00    +0.000 A 
ATOM     32  C   UNL     1      -3.210  10.497  16.156  0.00  0.00    +0.000 A 
ATOM     33 CL   UNL     1      -2.431   9.565  14.938  0.00  0.00    +0.000 Cl
ATOM     34  C   UNL     1      -2.617  10.632  17.409  0.00  0.00    +0.000 A 
ATOM     35  C   UNL     1      -3.265  11.364  18.406  0.00  0.00    +0.000 A 
ENDBRANCH  28  29
ENDBRANCH  26  28
ENDBRANCH  23  24
ENDBRANCH  22  23
ENDBRANCH   6  22
TORSDOF 8
ENDMDL
MODEL 4
REMARK VINA RESULT:      -7.4      5.566      9.292
REMARK  Name = 
REMARK  9 active torsions:
REMARK  status: ('A' for Active; 'I' for Inactive)
REMARK    1  A    between atoms: C_1  and  O_2
REMARK    2  A    between atoms: O_2  and  C_3
REMARK    3  A    between atoms: C_8  and  C_9
REMARK    4  A    between atoms: N_11  and  C_12
REMARK    5  A    between atoms: C_17  and  S_18
REMARK    6  A    between atoms: S_18  and  C_19
REMARK    7  A    between atoms: C_19  and  C_20
REMARK    8  A    between atoms: N_22  and  C_23
REMARK    9  A    between atoms: C_23  and  C_24
REMARK                            x       y       z     vdW  Elec       q    Type
REMARK                         _______ _______ _______ _____ _____    ______ ____
ROOT
ATOM      1  C   UNL     1       1.513   8.514  20.012  0.00  0.00    +0.000 A 
ATOM      2  C   UNL     1       1.226   8.212  21.348  0.00  0.00    +0.000 A 
ATOM      3  C   UNL     1       0.666   9.146  22.220  0.00  0.00    +0.000 A 
ATOM      4  C   UNL     1       0.383  10.436  21.758  0.00  0.00    +0.000 A 
ATOM      5  N   UNL     1      -0.096  11.464  22.546  0.00  0.00    +0.000 NA
ATOM      6  C   UNL     1      -0.219  12.547  21.820  0.00  0.00    +0.000 A 
ATOM      7  S   UNL     1       0.147  12.378  20.151  0.00  0.00    +0.000 S 
ATOM      8  C   UNL     1       0.612  10.734  20.413  0.00  0.00    +0.000 A 
ATOM      9  C   UNL     1       1.155   9.778  19.514  0.00  0.00    +0.000 A 
ENDROOT
BRANCH   1  12
ATOM     10  C   UNL     1       2.187   6.198  19.384  0.00  0.00    +0.000 C 
ATOM     11  O   UNL     1       1.702   5.658  20.384  0.00  0.00    +0.000 OA
ATOM     12  N   UNL     1       2.165   7.573  19.160  0.00  0.00    +0.000 N 
ATOM     13  H   UNL     1       2.744   7.921  18.406  0.00  0.00    +0.000 HD
BRANCH  10  19
ATOM     14  C   UNL     1       4.099   5.545  17.769  0.00  0.00    +0.000 A 
ATOM     15  C   UNL     1       4.665   4.542  16.958  0.00  0.00    +0.000 A 
ATOM     16  C   UNL     1       3.998   3.340  16.716  0.00  0.00    +0.000 A 
ATOM     17  C   UNL     1       2.759   3.112  17.293  0.00  0.00    +0.000 A 
ATOM     18  C   UNL     1       2.218   4.072  18.145  0.00  0.00    +0.000 A 
ATOM     19  C   UNL     1       2.883   5.292  18.419  0.00  0.00    +0.000 A 
BRANCH  14  21
ATOM     20  C   UNL     1       5.900   6.927  17.163  0.00  0.00    +0.000 C 
ATOM     21  O   UNL     1       4.716   6.760  17.950  0.00  0.00    +0.000 OA
ENDBRANCH  14  21
ENDBRANCH  10  19
ENDBRANCH   1  12
BRANCH   6  22
ATOM     22  S   UNL     1      -0.721  14.062  22.546  0.00  0.00    +0.000 S 
BRANCH  22  23
ATOM     23  C   UNL     1      -1.984  14.624  21.359  0.00  0.00    +0.000 C 
BRANCH  23  24
ATOM     24  C   UNL     1      -3.065  13.568  21.191  0.00  0.00    +0.000 C 
ATOM     25  O   UNL     1      -3.646  13.067  22.151  0.00  0.00    +0.000 OA
ATOM     26  N   UNL     1      -3.328  13.216  19.886  0.00  0.00    +0.000 N 
ATOM     27  H   UNL     1      -2.743  13.600  19.150  0.00  0.00    +0.000 HD
BRANCH  26  28
ATOM     28  C   UNL     1      -4.272  12.179  19.540  0.00  0.00    +0.000 C 
BRANCH  28  29
ATOM     29  C   UNL     1      -3.906  11.528  18.232  0.00  0.00    +0.000 A 
ATOM     30  C   UNL     1      -2.722  10.787  18.104  0.00  0.00    +0.000 A 
ATOM     31  C   UNL     1      -2.358  10.244  16.869  0.00  0.00    +0.000 A 
ATOM     32  C   UNL     1      -3.172  10.443  15.757  0.00  0.00    +0.000 A 
ATOM     33 CL   UNL     1      -2.702   9.806  14.229  0.00  0.00    +0.000 Cl
ATOM     34  C   UNL     1      -4.358  11.165  15.870  0.00  0.00    +0.000 A 
ATOM     35  C   UNL     1      -4.721  11.707  17.104  0.00  0.00    +0.000 A 
ENDBRANCH  28  29
ENDBRANCH  26  28
ENDBRANCH  23  24
ENDBRANCH  22  23
ENDBRANCH   6  22
TORSDOF 8
ENDMDL
MODEL 5
REMARK VINA RESULT:      -7.4      5.313      8.511
REMARK  Name = 
REMARK  9 active torsions:
REMARK  status: ('A' for Active; 'I' for Inactive)
REMARK    1  A    between atoms: C_1  and  O_2
REMARK    2  A    between atoms: O_2  and  C_3
REMARK    3  A    between atoms: C_8  and  C_9
REMARK    4  A    between atoms: N_11  and  C_12
REMARK    5  A    between atoms: C_17  and  S_18
REMARK    6  A    between atoms: S_18  and  C_19
REMARK    7  A    between atoms: C_19  and  C_20
REMARK    8  A    between atoms: N_22  and  C_23
REMARK    9  A    between atoms: C_23  and  C_24
REMARK                            x       y       z     vdW  Elec       q    Type
REMARK                         _______ _______ _______ _____ _____    ______ ____
ROOT
ATOM      1  C   UNL     1       2.277   7.302  18.846  0.00  0.00    +0.000 A 
ATOM      2  C   UNL     1       1.960   6.958  20.165  0.00  0.00    +0.000 A 
ATOM      3  C   UNL     1       1.385   7.866  21.055  0.00  0.00    +0.000 A 
ATOM      4  C   UNL     1       1.118   9.171  20.629  0.00  0.00    +0.000 A 
ATOM      5  N   UNL     1       0.628  10.177  21.439  0.00  0.00    +0.000 NA
ATOM      6  C   UNL     1       0.526  11.283  20.746  0.00  0.00    +0.000 A 
ATOM      7  S   UNL     1       0.926  11.166  19.081  0.00  0.00    +0.000 S 
ATOM      8  C   UNL     1       1.378   9.511  19.299  0.00  0.00    +0.000 A 
ATOM      9  C   UNL     1       1.936   8.582  18.382  0.00  0.00    +0.000 A 
ENDROOT
BRANCH   1  12
ATOM     10  C   UNL     1       4.249   6.548  17.519  0.00  0.00    +0.000 C 
ATOM     11  O   UNL     1       4.941   7.542  17.762  0.00  0.00    +0.000 OA
ATOM     12  N   UNL     1       2.943   6.385  17.978  0.00  0.00    +0.000 N 
ATOM     13  H   UNL     1       2.410   5.625  17.575  0.00  0.00    +0.000 HD
BRANCH  10  19
ATOM     14  C   UNL     1       4.831   4.129  16.811  0.00  0.00    +0.000 A 
ATOM     15  C   UNL     1       5.384   3.292  15.823  0.00  0.00    +0.000 A 
ATOM     16  C   UNL     1       6.042   3.817  14.710  0.00  0.00    +0.000 A 
ATOM     17  C   UNL     1       6.148   5.190  14.557  0.00  0.00    +0.000 A 
ATOM     18  C   UNL     1       5.552   6.028  15.497  0.00  0.00    +0.000 A 
ATOM     19  C   UNL     1       4.864   5.519  16.626  0.00  0.00    +0.000 A 
BRANCH  14  21
ATOM     20  C   UNL     1       5.080   3.703  19.109  0.00  0.00    +0.000 C 
ATOM     21  O   UNL     1       4.248   3.619  17.946  0.00  0.00    +0.000 OA
ENDBRANCH  14  21
ENDBRANCH  10  19
ENDBRANCH   1  12
BRANCH   6  22
ATOM     22  S   UNL     1       0.014  12.776  21.510  0.00  0.00    +0.000 S 
BRANCH  22  23
ATOM     23  C   UNL     1      -1.211  12.160  22.709  0.00  0.00    +0.000 C 
BRANCH  23  24
ATOM     24  C   UNL     1      -2.621  12.335  22.169  0.00  0.00    +0.000 C 
ATOM     25  O   UNL     1      -3.609  12.313  22.901  0.00  0.00    +0.000 OA
ATOM     26  N   UNL     1      -2.698  12.508  20.806  0.00  0.00    +0.000 N 
ATOM     27  H   UNL     1      -1.851  12.418  20.254  0.00  0.00    +0.000 HD
BRANCH  26  28
ATOM     28  C   UNL     1      -3.960  12.617  20.111  0.00  0.00    +0.000 C 
BRANCH  28  29
ATOM     29  C   UNL     1      -3.886  11.973  18.751  0.00  0.00    +0.000 A 
ATOM     30  C   UNL     1      -2.650  11.633  18.183  0.00  0.00    +0.000 A 
ATOM     31  C   UNL     1      -2.587  11.098  16.894  0.00  0.00    +0.000 A 
ATOM     32  C   UNL     1      -3.759  10.906  16.165  0.00  0.00    +0.000 A 
ATOM     33 CL   UNL     1      -3.676  10.284  14.563  0.00  0.00    +0.000 Cl
ATOM     34  C   UNL     1      -4.996  11.226  16.719  0.00  0.00    +0.000 A 
ATOM     35  C   UNL     1      -5.058  11.760  18.008  0.00  0.00    +0.000 A 
ENDBRANCH  28  29
ENDBRANCH  26  28
ENDBRANCH  23  24
ENDBRANCH  22  23
ENDBRANCH   6  22
TORSDOF 8
ENDMDL
MODEL 6
REMARK VINA RESULT:      -7.4      3.999      6.681
REMARK  Name = 
REMARK  9 active torsions:
REMARK  status: ('A' for Active; 'I' for Inactive)
REMARK    1  A    between atoms: C_1  and  O_2
REMARK    2  A    between atoms: O_2  and  C_3
REMARK    3  A    between atoms: C_8  and  C_9
REMARK    4  A    between atoms: N_11  and  C_12
REMARK    5  A    between atoms: C_17  and  S_18
REMARK    6  A    between atoms: S_18  and  C_19
REMARK    7  A    between atoms: C_19  and  C_20
REMARK    8  A    between atoms: N_22  and  C_23
REMARK    9  A    between atoms: C_23  and  C_24
REMARK                            x       y       z     vdW  Elec       q    Type
REMARK                         _______ _______ _______ _____ _____    ______ ____
ROOT
ATOM      1  C   UNL     1       1.407  10.545  18.584  0.00  0.00    +0.000 A 
ATOM      2  C   UNL     1       2.150   9.837  17.633  0.00  0.00    +0.000 A 
ATOM      3  C   UNL     1       2.484   8.492  17.799  0.00  0.00    +0.000 A 
ATOM      4  C   UNL     1       2.076   7.819  18.954  0.00  0.00    +0.000 A 
ATOM      5  N   UNL     1       2.413   6.516  19.265  0.00  0.00    +0.000 NA
ATOM      6  C   UNL     1       1.904   6.201  20.430  0.00  0.00    +0.000 A 
ATOM      7  S   UNL     1       0.930   7.402  21.174  0.00  0.00    +0.000 S 
ATOM      8  C   UNL     1       1.285   8.498  19.885  0.00  0.00    +0.000 A 
ATOM      9  C   UNL     1       0.918   9.858  19.707  0.00  0.00    +0.000 A 
ENDROOT
BRANCH   1  12
ATOM     10  C   UNL     1       1.583  12.917  19.333  0.00  0.00    +0.000 C 
ATOM     11  O   UNL     1       2.178  12.665  20.385  0.00  0.00    +0.000 OA
ATOM     12  N   UNL     1       1.148  11.942  18.437  0.00  0.00    +0.000 N 
ATOM     13  H   UNL     1       0.519  12.244  17.704  0.00  0.00    +0.000 HD
BRANCH  10  19
ATOM     14  C   UNL     1       2.183  15.339  18.650  0.00  0.00    +0.000 A 
ATOM     15  C   UNL     1       1.709  16.635  18.369  0.00  0.00    +0.000 A 
ATOM     16  C   UNL     1       0.377  16.987  18.594  0.00  0.00    +0.000 A 
ATOM     17  C   UNL     1      -0.509  16.045  19.090  0.00  0.00    +0.000 A 
ATOM     18  C   UNL     1      -0.066  14.745  19.315  0.00  0.00    +0.000 A 
ATOM     19  C   UNL     1       1.276  14.358  19.079  0.00  0.00    +0.000 A 
BRANCH  14  21
ATOM     20  C   UNL     1       4.348  15.513  19.546  0.00  0.00    +0.000 C 
ATOM     21  O   UNL     1       3.508  15.007  18.503  0.00  0.00    +0.000 OA
ENDBRANCH  14  21
ENDBRANCH  10  19
ENDBRANCH   1  12
BRANCH   6  22
ATOM     22  S   UNL     1       2.226   4.638  21.155  0.00  0.00    +0.000 S 
BRANCH  22  23
ATOM     23  C   UNL     1       1.772   3.514  19.795  0.00  0.00    +0.000 C 
BRANCH  23  24
ATOM     24  C   UNL     1       3.007   3.094  19.014  0.00  0.00    +0.000 C 
ATOM     25  O   UNL     1       3.692   2.127  19.343  0.00  0.00    +0.000 OA
ATOM     26  N   UNL     1       3.297   3.885  17.926  0.00  0.00    +0.000 N 
ATOM     27  H   UNL     1       2.745   4.723  17.771  0.00  0.00    +0.000 HD
BRANCH  26  28
ATOM     28  C   UNL     1       4.473   3.679  17.112  0.00  0.00    +0.000 C 
BRANCH  28  29
ATOM     29  C   UNL     1       5.437   4.829  17.253  0.00  0.00    +0.000 A 
ATOM     30  C   UNL     1       6.657   4.665  17.926  0.00  0.00    +0.000 A 
ATOM     31  C   UNL     1       7.513   5.753  18.109  0.00  0.00    +0.000 A 
ATOM     32  C   UNL     1       7.153   7.009  17.626  0.00  0.00    +0.000 A 
ATOM     33 CL   UNL     1       8.192   8.355  17.887  0.00  0.00    +0.000 Cl
ATOM     34  C   UNL     1       5.952   7.185  16.943  0.00  0.00    +0.000 A 
ATOM     35  C   UNL     1       5.096   6.097  16.760  0.00  0.00    +0.000 A 
ENDBRANCH  28  29
ENDBRANCH  26  28
ENDBRANCH  23  24
ENDBRANCH  22  23
ENDBRANCH   6  22
TORSDOF 8
ENDMDL
MODEL 7
REMARK VINA RESULT:      -7.4      5.649      9.351
REMARK  Name = 
REMARK  9 active torsions:
REMARK  status: ('A' for Active; 'I' for Inactive)
REMARK    1  A    between atoms: C_1  and  O_2
REMARK    2  A    between atoms: O_2  and  C_3
REMARK    3  A    between atoms: C_8  and  C_9
REMARK    4  A    between atoms: N_11  and  C_12
REMARK    5  A    between atoms: C_17  and  S_18
REMARK    6  A    between atoms: S_18  and  C_19
REMARK    7  A    between atoms: C_19  and  C_20
REMARK    8  A    between atoms: N_22  and  C_23
REMARK    9  A    between atoms: C_23  and  C_24
REMARK                            x       y       z     vdW  Elec       q    Type
REMARK                         _______ _______ _______ _____ _____    ______ ____
ROOT
ATOM      1  C   UNL     1       1.335   8.360  20.568  0.00  0.00    +0.000 A 
ATOM      2  C   UNL     1       0.460   7.957  21.583  0.00  0.00    +0.000 A 
ATOM      3  C   UNL     1      -0.314   8.866  22.306  0.00  0.00    +0.000 A 
ATOM      4  C   UNL     1      -0.216  10.231  22.022  0.00  0.00    +0.000 A 
ATOM      5  N   UNL     1      -0.868  11.228  22.721  0.00  0.00    +0.000 NA
ATOM      6  C   UNL     1      -0.536  12.395  22.228  0.00  0.00    +0.000 A 
ATOM      7  S   UNL     1       0.500  12.364  20.860  0.00  0.00    +0.000 S 
ATOM      8  C   UNL     1       0.611  10.643  20.973  0.00  0.00    +0.000 A 
ATOM      9  C   UNL     1       1.378   9.719  20.216  0.00  0.00    +0.000 A 
ENDROOT
BRANCH   1  12
ATOM     10  C   UNL     1       2.395   7.409  18.522  0.00  0.00    +0.000 C 
ATOM     11  O   UNL     1       1.819   8.161  17.730  0.00  0.00    +0.000 OA
ATOM     12  N   UNL     1       2.180   7.425  19.899  0.00  0.00    +0.000 N 
ATOM     13  H   UNL     1       2.564   6.653  20.429  0.00  0.00    +0.000 HD
BRANCH  10  19
ATOM     14  C   UNL     1       3.359   5.028  18.217  0.00  0.00    +0.000 A 
ATOM     15  C   UNL     1       4.230   4.194  17.488  0.00  0.00    +0.000 A 
ATOM     16  C   UNL     1       5.113   4.716  16.541  0.00  0.00    +0.000 A 
ATOM     17  C   UNL     1       5.132   6.079  16.295  0.00  0.00    +0.000 A 
ATOM     18  C   UNL     1       4.234   6.905  16.966  0.00  0.00    +0.000 A 
ATOM     19  C   UNL     1       3.317   6.398  17.919  0.00  0.00    +0.000 A 
BRANCH  14  21
ATOM     20  C   UNL     1       2.843   3.182  19.575  0.00  0.00    +0.000 C 
ATOM     21  O   UNL     1       2.542   4.531  19.203  0.00  0.00    +0.000 OA
ENDBRANCH  14  21
ENDBRANCH  10  19
ENDBRANCH   1  12
BRANCH   6  22
ATOM     22  S   UNL     1      -1.127  13.876  22.955  0.00  0.00    +0.000 S 
BRANCH  22  23
ATOM     23  C   UNL     1      -1.766  14.758  21.494  0.00  0.00    +0.000 C 
BRANCH  23  24
ATOM     24  C   UNL     1      -3.074  14.139  21.027  0.00  0.00    +0.000 C 
ATOM     25  O   UNL     1      -4.168  14.578  21.378  0.00  0.00    +0.000 OA
ATOM     26  N   UNL     1      -2.931  13.052  20.196  0.00  0.00    +0.000 N 
ATOM     27  H   UNL     1      -2.000  12.686  20.026  0.00  0.00    +0.000 HD
BRANCH  26  28
ATOM     28  C   UNL     1      -4.063  12.294  19.713  0.00  0.00    +0.000 C 
BRANCH  28  29
ATOM     29  C   UNL     1      -3.764  11.666  18.377  0.00  0.00    +0.000 A 
ATOM     30  C   UNL     1      -2.507  11.101  18.114  0.00  0.00    +0.000 A 
ATOM     31  C   UNL     1      -2.217  10.581  16.850  0.00  0.00    +0.000 A 
ATOM     32  C   UNL     1      -3.178  10.627  15.843  0.00  0.00    +0.000 A 
ATOM     33 CL   UNL     1      -2.805  10.020  14.277  0.00  0.00    +0.000 Cl
ATOM     34  C   UNL     1      -4.436  11.171  16.093  0.00  0.00    +0.000 A 
ATOM     35  C   UNL     1      -4.726  11.691  17.356  0.00  0.00    +0.000 A 
ENDBRANCH  28  29
ENDBRANCH  26  28
ENDBRANCH  23  24
ENDBRANCH  22  23
ENDBRANCH   6  22
TORSDOF 8
ENDMDL
MODEL 8
REMARK VINA RESULT:      -7.3      6.219     10.242
REMARK  Name = 
REMARK  9 active torsions:
REMARK  status: ('A' for Active; 'I' for Inactive)
REMARK    1  A    between atoms: C_1  and  O_2
REMARK    2  A    between atoms: O_2  and  C_3
REMARK    3  A    between atoms: C_8  and  C_9
REMARK    4  A    between atoms: N_11  and  C_12
REMARK    5  A    between atoms: C_17  and  S_18
REMARK    6  A    between atoms: S_18  and  C_19
REMARK    7  A    between atoms: C_19  and  C_20
REMARK    8  A    between atoms: N_22  and  C_23
REMARK    9  A    between atoms: C_23  and  C_24
REMARK                            x       y       z     vdW  Elec       q    Type
REMARK                         _______ _______ _______ _____ _____    ______ ____
ROOT
ATOM      1  C   UNL     1      -1.320  11.470  22.445  0.00  0.00    +0.000 A 
ATOM      2  C   UNL     1      -0.928  10.481  23.354  0.00  0.00    +0.000 A 
ATOM      3  C   UNL     1      -0.070   9.440  22.998  0.00  0.00    +0.000 A 
ATOM      4  C   UNL     1       0.417   9.366  21.690  0.00  0.00    +0.000 A 
ATOM      5  N   UNL     1       1.205   8.341  21.201  0.00  0.00    +0.000 NA
ATOM      6  C   UNL     1       1.457   8.553  19.934  0.00  0.00    +0.000 A 
ATOM      7  S   UNL     1       0.845  10.017  19.280  0.00  0.00    +0.000 S 
ATOM      8  C   UNL     1       0.079  10.378  20.788  0.00  0.00    +0.000 A 
ATOM      9  C   UNL     1      -0.770  11.455  21.152  0.00  0.00    +0.000 A 
ENDROOT
BRANCH   1  12
ATOM     10  C   UNL     1      -1.933  13.671  23.442  0.00  0.00    +0.000 C 
ATOM     11  O   UNL     1      -0.793  13.950  23.825  0.00  0.00    +0.000 OA
ATOM     12  N   UNL     1      -2.265  12.478  22.804  0.00  0.00    +0.000 N 
ATOM     13  H   UNL     1      -3.251  12.278  22.696  0.00  0.00    +0.000 HD
BRANCH  10  19
ATOM     14  C   UNL     1      -4.375  14.517  23.553  0.00  0.00    +0.000 A 
ATOM     15  C   UNL     1      -5.254  15.526  23.993  0.00  0.00    +0.000 A 
ATOM     16  C   UNL     1      -4.776  16.715  24.547  0.00  0.00    +0.000 A 
ATOM     17  C   UNL     1      -3.411  16.911  24.683  0.00  0.00    +0.000 A 
ATOM     18  C   UNL     1      -2.536  15.896  24.306  0.00  0.00    +0.000 A 
ATOM     19  C   UNL     1      -2.997  14.674  23.759  0.00  0.00    +0.000 A 
BRANCH  14  21
ATOM     20  C   UNL     1      -5.945  12.769  23.611  0.00  0.00    +0.000 C 
ATOM     21  O   UNL     1      -4.836  13.377  22.939  0.00  0.00    +0.000 OA
ENDBRANCH  14  21
ENDBRANCH  10  19
ENDBRANCH   1  12
BRANCH   6  22
ATOM     22  S   UNL     1       2.363   7.384  18.993  0.00  0.00    +0.000 S 
BRANCH  22  23
ATOM     23  C   UNL     1       2.158   5.880  20.000  0.00  0.00    +0.000 C 
BRANCH  23  24
ATOM     24  C   UNL     1       3.309   4.916  19.762  0.00  0.00    +0.000 C 
ATOM     25  O   UNL     1       3.201   3.707  19.956  0.00  0.00    +0.000 OA
ATOM     26  N   UNL     1       4.473   5.506  19.326  0.00  0.00    +0.000 N 
ATOM     27  H   UNL     1       4.520   6.520  19.281  0.00  0.00    +0.000 HD
BRANCH  26  28
ATOM     28  C   UNL     1       5.690   4.755  19.117  0.00  0.00    +0.000 C 
BRANCH  28  29
ATOM     29  C   UNL     1       5.974   4.581  17.648  0.00  0.00    +0.000 A 
ATOM     30  C   UNL     1       7.216   4.944  17.108  0.00  0.00    +0.000 A 
ATOM     31  C   UNL     1       7.446   4.842  15.734  0.00  0.00    +0.000 A 
ATOM     32  C   UNL     1       6.435   4.381  14.893  0.00  0.00    +0.000 A 
ATOM     33 CL   UNL     1       6.708   4.292  13.197  0.00  0.00    +0.000 Cl
ATOM     34  C   UNL     1       5.200   4.004  15.416  0.00  0.00    +0.000 A 
ATOM     35  C   UNL     1       4.970   4.106  16.789  0.00  0.00    +0.000 A 
ENDBRANCH  28  29
ENDBRANCH  26  28
ENDBRANCH  23  24
ENDBRANCH  22  23
ENDBRANCH   6  22
TORSDOF 8
ENDMDL
MODEL 9
REMARK VINA RESULT:      -7.3      4.261      7.411
REMARK  Name = 
REMARK  9 active torsions:
REMARK  status: ('A' for Active; 'I' for Inactive)
REMARK    1  A    between atoms: C_1  and  O_2
REMARK    2  A    between atoms: O_2  and  C_3
REMARK    3  A    between atoms: C_8  and  C_9
REMARK    4  A    between atoms: N_11  and  C_12
REMARK    5  A    between atoms: C_17  and  S_18
REMARK    6  A    between atoms: S_18  and  C_19
REMARK    7  A    between atoms: C_19  and  C_20
REMARK    8  A    between atoms: N_22  and  C_23
REMARK    9  A    between atoms: C_23  and  C_24
REMARK                            x       y       z     vdW  Elec       q    Type
REMARK                         _______ _______ _______ _____ _____    ______ ____
ROOT
ATOM      1  C   UNL     1       1.407   8.391  20.122  0.00  0.00    +0.000 A 
ATOM      2  C   UNL     1       2.204   8.312  18.975  0.00  0.00    +0.000 A 
ATOM      3  C   UNL     1       2.865   7.141  18.605  0.00  0.00    +0.000 A 
ATOM      4  C   UNL     1       2.741   5.999  19.402  0.00  0.00    +0.000 A 
ATOM      5  N   UNL     1       3.408   4.810  19.182  0.00  0.00    +0.000 NA
ATOM      6  C   UNL     1       3.102   3.957  20.127  0.00  0.00    +0.000 A 
ATOM      7  S   UNL     1       1.944   4.492  21.275  0.00  0.00    +0.000 S 
ATOM      8  C   UNL     1       1.902   6.047  20.519  0.00  0.00    +0.000 A 
ATOM      9  C   UNL     1       1.205   7.228  20.885  0.00  0.00    +0.000 A 
ENDROOT
BRANCH   1  12
ATOM     10  C   UNL     1       0.086  10.460  19.684  0.00  0.00    +0.000 C 
ATOM     11  O   UNL     1      -0.052  10.257  18.473  0.00  0.00    +0.000 OA
ATOM     12  N   UNL     1       0.809   9.621  20.531  0.00  0.00    +0.000 N 
ATOM     13  H   UNL     1       1.008   9.972  21.458  0.00  0.00    +0.000 HD
BRANCH  10  19
ATOM     14  C   UNL     1       0.143  12.717  20.946  0.00  0.00    +0.000 A 
ATOM     15  C   UNL     1      -0.554  13.890  21.293  0.00  0.00    +0.000 A 
ATOM     16  C   UNL     1      -1.911  14.043  21.003  0.00  0.00    +0.000 A 
ATOM     17  C   UNL     1      -2.592  13.030  20.347  0.00  0.00    +0.000 A 
ATOM     18  C   UNL     1      -1.898  11.891  19.947  0.00  0.00    +0.000 A 
ATOM     19  C   UNL     1      -0.518  11.720  20.214  0.00  0.00    +0.000 A 
BRANCH  14  21
ATOM     20  C   UNL     1       2.376  13.322  20.534  0.00  0.00    +0.000 C 
ATOM     21  O   UNL     1       1.459  12.529  21.296  0.00  0.00    +0.000 OA
ENDBRANCH  14  21
ENDBRANCH  10  19
ENDBRANCH   1  12
BRANCH   6  22
ATOM     22  S   UNL     1       3.856   2.376  20.186  0.00  0.00    +0.000 S 
BRANCH  22  23
ATOM     23  C   UNL     1       3.196   1.610  18.671  0.00  0.00    +0.000 C 
BRANCH  23  24
ATOM     24  C   UNL     1       3.415   2.521  17.473  0.00  0.00    +0.000 C 
ATOM     25  O   UNL     1       2.490   2.881  16.747  0.00  0.00    +0.000 OA
ATOM     26  N   UNL     1       4.723   2.894  17.266  0.00  0.00    +0.000 N 
ATOM     27  H   UNL     1       5.447   2.481  17.846  0.00  0.00    +0.000 HD
BRANCH  26  28
ATOM     28  C   UNL     1       5.128   3.697  16.134  0.00  0.00    +0.000 C 
BRANCH  28  29
ATOM     29  C   UNL     1       5.919   4.900  16.580  0.00  0.00    +0.000 A 
ATOM     30  C   UNL     1       7.015   4.759  17.443  0.00  0.00    +0.000 A 
ATOM     31  C   UNL     1       7.700   5.887  17.903  0.00  0.00    +0.000 A 
ATOM     32  C   UNL     1       7.290   7.158  17.507  0.00  0.00    +0.000 A 
ATOM     33 CL   UNL     1       8.112   8.546  18.106  0.00  0.00    +0.000 Cl
ATOM     34  C   UNL     1       6.212   7.313  16.639  0.00  0.00    +0.000 A 
ATOM     35  C   UNL     1       5.527   6.186  16.179  0.00  0.00    +0.000 A 
ENDBRANCH  28  29
ENDBRANCH  26  28
ENDBRANCH  23  24
ENDBRANCH  22  23
ENDBRANCH   6  22
TORSDOF 8
ENDMDL
