MODEL 1
REMARK VINA RESULT:     -10.0      0.000      0.000
REMARK  Name = 
REMARK  5 active torsions:
REMARK  status: ('A' for Active; 'I' for Inactive)
REMARK    1  A    between atoms: S_2  and  N_4
REMARK    2  A    between atoms: S_2  and  C_26
REMARK    3  A    between atoms: N_4  and  C_5
REMARK    4  A    between atoms: C_9  and  N_10
REMARK    5  A    between atoms: N_10  and  C_11
REMARK                            x       y       z     vdW  Elec       q    Type
REMARK                         _______ _______ _______ _____ _____    ______ ____
ROOT
ATOM      1  C   UNL     1       0.585   8.860  20.144  0.00  0.00    +0.000 A 
ATOM      2  C   UNL     1       0.558   9.469  18.895  0.00  0.00    +0.000 A 
ATOM      3  C   UNL     1       1.557   9.175  17.957  0.00  0.00    +0.000 A 
ATOM      4  C   UNL     1       2.555   8.258  18.267  0.00  0.00    +0.000 A 
ATOM      5  C   UNL     1       2.500   7.526  19.454  0.00  0.00    +0.000 A 
ATOM      6  C   UNL     1       1.536   7.875  20.415  0.00  0.00    +0.000 A 
ENDROOT
BRANCH   1   7
ATOM      7  N   UNL     1      -0.325   9.256  21.160  0.00  0.00    +0.000 N 
ATOM      8  H   UNL     1      -0.915   8.543  21.583  0.00  0.00    +0.000 HD
BRANCH   7  10
ATOM      9  O   UNL     1       0.143   9.874  23.528  0.00  0.00    +0.000 OA
ATOM     10  S   UNL     1       0.082  10.492  22.227  0.00  0.00    +0.000 S 
ATOM     11  O   UNL     1       1.197  11.248  21.695  0.00  0.00    +0.000 OA
BRANCH  10  12
ATOM     12  C   UNL     1      -1.370  11.508  22.174  0.00  0.00    +0.000 A 
ATOM     13  C   UNL     1      -2.086  11.738  23.350  0.00  0.00    +0.000 A 
ATOM     14  C   UNL     1      -3.240  12.516  23.299  0.00  0.00    +0.000 A 
ATOM     15  C   UNL     1      -3.667  13.063  22.087  0.00  0.00    +0.000 A 
ATOM     16  C   UNL     1      -2.936  12.844  20.918  0.00  0.00    +0.000 A 
ATOM     17  C   UNL     1      -1.778  12.070  20.960  0.00  0.00    +0.000 A 
ENDBRANCH  10  12
ENDBRANCH   7  10
ENDBRANCH   1   7
BRANCH   5  18
ATOM     18  N   UNL     1       3.376   6.444  19.707  0.00  0.00    +0.000 N 
ATOM     19  H   UNL     1       3.428   6.249  20.708  0.00  0.00    +0.000 HD
BRANCH  18  20
ATOM     20  C   UNL     1       3.682   5.250  18.990  0.00  0.00    +0.000 A 
ATOM     21  C   UNL     1       4.322   5.178  17.686  0.00  0.00    +0.000 A 
ATOM     22  C   UNL     1       4.536   6.209  16.742  0.00  0.00    +0.000 A 
ATOM     23  C   UNL     1       5.301   6.007  15.593  0.00  0.00    +0.000 A 
ATOM     24  C   UNL     1       5.858   4.760  15.349  0.00  0.00    +0.000 A 
ATOM     25  C   UNL     1       5.485   3.698  16.167  0.00  0.00    +0.000 A 
ATOM     26  C   UNL     1       4.631   3.894  17.238  0.00  0.00    +0.000 A 
ATOM     27  N   UNL     1       3.960   2.842  17.679  0.00  0.00    +0.000 NA
ATOM     28  C   UNL     1       3.005   3.093  18.576  0.00  0.00    +0.000 A 
ATOM     29  C   UNL     1       1.668   2.857  18.280  0.00  0.00    +0.000 A 
ATOM     30  C   UNL     1       0.658   3.245  19.166  0.00  0.00    +0.000 A 
ATOM     31  C   UNL     1       1.019   3.641  20.445  0.00  0.00    +0.000 A 
ATOM     32  C   UNL     1       2.348   3.962  20.676  0.00  0.00    +0.000 A 
ATOM     33  C   UNL     1       3.174   4.039  19.542  0.00  0.00    +0.000 A 
ENDBRANCH  18  20
ENDBRANCH   5  18
TORSDOF 5
ENDMDL
MODEL 2
REMARK VINA RESULT:      -9.7      0.940      3.275
REMARK  Name = 
REMARK  5 active torsions:
REMARK  status: ('A' for Active; 'I' for Inactive)
REMARK    1  A    between atoms: S_2  and  N_4
REMARK    2  A    between atoms: S_2  and  C_26
REMARK    3  A    between atoms: N_4  and  C_5
REMARK    4  A    between atoms: C_9  and  N_10
REMARK    5  A    between atoms: N_10  and  C_11
REMARK                            x       y       z     vdW  Elec       q    Type
REMARK                         _______ _______ _______ _____ _____    ______ ____
ROOT
ATOM      1  C   UNL     1       0.170   9.381  20.090  0.00  0.00    +0.000 A 
ATOM      2  C   UNL     1      -0.132  10.095  18.936  0.00  0.00    +0.000 A 
ATOM      3  C   UNL     1       0.708   9.995  17.817  0.00  0.00    +0.000 A 
ATOM      4  C   UNL     1       1.822   9.164  17.856  0.00  0.00    +0.000 A 
ATOM      5  C   UNL     1       2.043   8.325  18.949  0.00  0.00    +0.000 A 
ATOM      6  C   UNL     1       1.238   8.482  20.090  0.00  0.00    +0.000 A 
ENDROOT
BRANCH   1   7
ATOM      7  N   UNL     1      -0.578   9.585  21.280  0.00  0.00    +0.000 N 
ATOM      8  H   UNL     1      -0.905   8.766  21.789  0.00  0.00    +0.000 HD
BRANCH   7  10
ATOM      9  O   UNL     1      -0.129  10.338  23.613  0.00  0.00    +0.000 OA
ATOM     10  S   UNL     1      -0.231  10.889  22.285  0.00  0.00    +0.000 S 
ATOM     11  O   UNL     1       0.839  11.678  21.708  0.00  0.00    +0.000 OA
BRANCH  10  12
ATOM     12  C   UNL     1      -1.736  11.822  22.197  0.00  0.00    +0.000 A 
ATOM     13  C   UNL     1      -2.099  12.420  20.989  0.00  0.00    +0.000 A 
ATOM     14  C   UNL     1      -3.269  13.173  20.931  0.00  0.00    +0.000 A 
ATOM     15  C   UNL     1      -4.069  13.319  22.067  0.00  0.00    +0.000 A 
ATOM     16  C   UNL     1      -3.709  12.703  23.267  0.00  0.00    +0.000 A 
ATOM     17  C   UNL     1      -2.542  11.944  23.334  0.00  0.00    +0.000 A 
ENDBRANCH  10  12
ENDBRANCH   7  10
ENDBRANCH   1   7
BRANCH   5  18
ATOM     18  N   UNL     1       3.042   7.324  18.934  0.00  0.00    +0.000 N 
ATOM     19  H   UNL     1       3.560   7.318  19.813  0.00  0.00    +0.000 HD
BRANCH  18  20
ATOM     20  C   UNL     1       3.108   6.023  18.352  0.00  0.00    +0.000 A 
ATOM     21  C   UNL     1       2.400   4.842  18.819  0.00  0.00    +0.000 A 
ATOM     22  C   UNL     1       1.730   4.634  20.047  0.00  0.00    +0.000 A 
ATOM     23  C   UNL     1       0.970   3.488  20.285  0.00  0.00    +0.000 A 
ATOM     24  C   UNL     1       0.874   2.512  19.305  0.00  0.00    +0.000 A 
ATOM     25  C   UNL     1       1.689   2.619  18.181  0.00  0.00    +0.000 A 
ATOM     26  C   UNL     1       2.525   3.709  18.016  0.00  0.00    +0.000 A 
ATOM     27  N   UNL     1       3.572   3.554  17.220  0.00  0.00    +0.000 NA
ATOM     28  C   UNL     1       4.464   4.546  17.230  0.00  0.00    +0.000 A 
ATOM     29  C   UNL     1       5.757   4.338  17.696  0.00  0.00    +0.000 A 
ATOM     30  C   UNL     1       6.651   5.405  17.832  0.00  0.00    +0.000 A 
ATOM     31  C   UNL     1       6.311   6.626  17.267  0.00  0.00    +0.000 A 
ATOM     32  C   UNL     1       4.988   6.830  16.904  0.00  0.00    +0.000 A 
ATOM     33  C   UNL     1       4.072   5.848  17.318  0.00  0.00    +0.000 A 
ENDBRANCH  18  20
ENDBRANCH   5  18
TORSDOF 5
ENDMDL
MODEL 3
REMARK VINA RESULT:      -9.5      1.541      1.836
REMARK  Name = 
REMARK  5 active torsions:
REMARK  status: ('A' for Active; 'I' for Inactive)
REMARK    1  A    between atoms: S_2  and  N_4
REMARK    2  A    between atoms: S_2  and  C_26
REMARK    3  A    between atoms: N_4  and  C_5
REMARK    4  A    between atoms: C_9  and  N_10
REMARK    5  A    between atoms: N_10  and  C_11
REMARK                            x       y       z     vdW  Elec       q    Type
REMARK                         _______ _______ _______ _____ _____    ______ ____
ROOT
ATOM      1  C   UNL     1       1.353   9.528  20.389  0.00  0.00    +0.000 A 
ATOM      2  C   UNL     1       0.882  10.390  19.405  0.00  0.00    +0.000 A 
ATOM      3  C   UNL     1       1.016  10.042  18.053  0.00  0.00    +0.000 A 
ATOM      4  C   UNL     1       1.595   8.827  17.702  0.00  0.00    +0.000 A 
ATOM      5  C   UNL     1       1.926   7.890  18.682  0.00  0.00    +0.000 A 
ATOM      6  C   UNL     1       1.851   8.274  20.032  0.00  0.00    +0.000 A 
ENDROOT
BRANCH   1   7
ATOM      7  N   UNL     1       1.365   9.928  21.752  0.00  0.00    +0.000 N 
ATOM      8  H   UNL     1       1.873  10.774  22.001  0.00  0.00    +0.000 HD
BRANCH   7  10
ATOM      9  O   UNL     1      -0.780   8.688  22.020  0.00  0.00    +0.000 OA
ATOM     10  S   UNL     1       0.021   9.656  22.726  0.00  0.00    +0.000 S 
ATOM     11  O   UNL     1       0.446   9.435  24.094  0.00  0.00    +0.000 OA
BRANCH  10  12
ATOM     12  C   UNL     1      -0.811  11.220  22.636  0.00  0.00    +0.000 A 
ATOM     13  C   UNL     1      -2.073  11.356  23.216  0.00  0.00    +0.000 A 
ATOM     14  C   UNL     1      -2.734  12.578  23.121  0.00  0.00    +0.000 A 
ATOM     15  C   UNL     1      -2.134  13.653  22.460  0.00  0.00    +0.000 A 
ATOM     16  C   UNL     1      -0.864  13.515  21.898  0.00  0.00    +0.000 A 
ATOM     17  C   UNL     1      -0.193  12.297  21.991  0.00  0.00    +0.000 A 
ENDBRANCH  10  12
ENDBRANCH   7  10
ENDBRANCH   1   7
BRANCH   5  18
ATOM     18  N   UNL     1       2.320   6.571  18.354  0.00  0.00    +0.000 N 
ATOM     19  H   UNL     1       2.083   6.354  17.386  0.00  0.00    +0.000 HD
BRANCH  18  20
ATOM     20  C   UNL     1       3.422   5.757  18.751  0.00  0.00    +0.000 A 
ATOM     21  C   UNL     1       4.814   5.971  18.393  0.00  0.00    +0.000 A 
ATOM     22  C   UNL     1       5.357   6.822  17.402  0.00  0.00    +0.000 A 
ATOM     23  C   UNL     1       6.733   7.025  17.280  0.00  0.00    +0.000 A 
ATOM     24  C   UNL     1       7.602   6.368  18.138  0.00  0.00    +0.000 A 
ATOM     25  C   UNL     1       7.088   5.384  18.976  0.00  0.00    +0.000 A 
ATOM     26  C   UNL     1       5.731   5.114  19.001  0.00  0.00    +0.000 A 
ATOM     27  N   UNL     1       5.358   3.919  19.433  0.00  0.00    +0.000 NA
ATOM     28  C   UNL     1       4.071   3.613  19.265  0.00  0.00    +0.000 A 
ATOM     29  C   UNL     1       3.687   2.579  18.420  0.00  0.00    +0.000 A 
ATOM     30  C   UNL     1       2.337   2.344  18.139  0.00  0.00    +0.000 A 
ATOM     31  C   UNL     1       1.382   2.998  18.902  0.00  0.00    +0.000 A 
ATOM     32  C   UNL     1       1.786   4.088  19.658  0.00  0.00    +0.000 A 
ATOM     33  C   UNL     1       3.094   4.549  19.432  0.00  0.00    +0.000 A 
ENDBRANCH  18  20
ENDBRANCH   5  18
TORSDOF 5
ENDMDL
MODEL 4
REMARK VINA RESULT:      -9.4      0.703      1.189
REMARK  Name = 
REMARK  5 active torsions:
REMARK  status: ('A' for Active; 'I' for Inactive)
REMARK    1  A    between atoms: S_2  and  N_4
REMARK    2  A    between atoms: S_2  and  C_26
REMARK    3  A    between atoms: N_4  and  C_5
REMARK    4  A    between atoms: C_9  and  N_10
REMARK    5  A    between atoms: N_10  and  C_11
REMARK                            x       y       z     vdW  Elec       q    Type
REMARK                         _______ _______ _______ _____ _____    ______ ____
ROOT
ATOM      1  C   UNL     1       1.298   9.340  20.277  0.00  0.00    +0.000 A 
ATOM      2  C   UNL     1       0.928   9.620  18.967  0.00  0.00    +0.000 A 
ATOM      3  C   UNL     1       1.398   8.810  17.923  0.00  0.00    +0.000 A 
ATOM      4  C   UNL     1       2.209   7.716  18.203  0.00  0.00    +0.000 A 
ATOM      5  C   UNL     1       2.455   7.335  19.523  0.00  0.00    +0.000 A 
ATOM      6  C   UNL     1       2.038   8.190  20.558  0.00  0.00    +0.000 A 
ENDROOT
BRANCH   1   7
ATOM      7  N   UNL     1       0.960  10.232  21.328  0.00  0.00    +0.000 N 
ATOM      8  H   UNL     1       1.011  11.233  21.146  0.00  0.00    +0.000 HD
BRANCH   7  10
ATOM      9  O   UNL     1      -0.880   8.650  21.892  0.00  0.00    +0.000 OA
ATOM     10  S   UNL     1      -0.244   9.826  22.431  0.00  0.00    +0.000 S 
ATOM     11  O   UNL     1       0.298   9.845  23.775  0.00  0.00    +0.000 OA
BRANCH  10  12
ATOM     12  C   UNL     1      -1.370  11.184  22.253  0.00  0.00    +0.000 A 
ATOM     13  C   UNL     1      -1.499  11.805  21.010  0.00  0.00    +0.000 A 
ATOM     14  C   UNL     1      -2.365  12.888  20.880  0.00  0.00    +0.000 A 
ATOM     15  C   UNL     1      -3.100  13.337  21.980  0.00  0.00    +0.000 A 
ATOM     16  C   UNL     1      -2.980  12.698  23.216  0.00  0.00    +0.000 A 
ATOM     17  C   UNL     1      -2.118  11.612  23.354  0.00  0.00    +0.000 A 
ENDBRANCH  10  12
ENDBRANCH   7  10
ENDBRANCH   1   7
BRANCH   5  18
ATOM     18  N   UNL     1       3.098   6.116  19.843  0.00  0.00    +0.000 N 
ATOM     19  H   UNL     1       2.780   5.768  20.748  0.00  0.00    +0.000 HD
BRANCH  18  20
ATOM     20  C   UNL     1       3.542   5.013  19.056  0.00  0.00    +0.000 A 
ATOM     21  C   UNL     1       4.243   5.099  17.785  0.00  0.00    +0.000 A 
ATOM     22  C   UNL     1       4.405   6.215  16.931  0.00  0.00    +0.000 A 
ATOM     23  C   UNL     1       5.234   6.171  15.810  0.00  0.00    +0.000 A 
ATOM     24  C   UNL     1       5.911   5.000  15.504  0.00  0.00    +0.000 A 
ATOM     25  C   UNL     1       5.601   3.848  16.221  0.00  0.00    +0.000 A 
ATOM     26  C   UNL     1       4.686   3.886  17.259  0.00  0.00    +0.000 A 
ATOM     27  N   UNL     1       4.095   2.748  17.587  0.00  0.00    +0.000 NA
ATOM     28  C   UNL     1       3.083   2.845  18.450  0.00  0.00    +0.000 A 
ATOM     29  C   UNL     1       1.786   2.517  18.070  0.00  0.00    +0.000 A 
ATOM     30  C   UNL     1       0.707   2.745  18.930  0.00  0.00    +0.000 A 
ATOM     31  C   UNL     1       0.974   3.071  20.252  0.00  0.00    +0.000 A 
ATOM     32  C   UNL     1       2.258   3.487  20.573  0.00  0.00    +0.000 A 
ATOM     33  C   UNL     1       3.123   3.724  19.491  0.00  0.00    +0.000 A 
ENDBRANCH  18  20
ENDBRANCH   5  18
TORSDOF 5
ENDMDL
MODEL 5
REMARK VINA RESULT:      -9.3      2.663      3.408
REMARK  Name = 
REMARK  5 active torsions:
REMARK  status: ('A' for Active; 'I' for Inactive)
REMARK    1  A    between atoms: S_2  and  N_4
REMARK    2  A    between atoms: S_2  and  C_26
REMARK    3  A    between atoms: N_4  and  C_5
REMARK    4  A    between atoms: C_9  and  N_10
REMARK    5  A    between atoms: N_10  and  C_11
REMARK                            x       y       z     vdW  Elec       q    Type
REMARK                         _______ _______ _______ _____ _____    ______ ____
ROOT
ATOM      1  C   UNL     1       0.892  10.084  19.052  0.00  0.00    +0.000 A 
ATOM      2  C   UNL     1       0.868  10.051  20.442  0.00  0.00    +0.000 A 
ATOM      3  C   UNL     1       1.275   8.892  21.118  0.00  0.00    +0.000 A 
ATOM      4  C   UNL     1       1.727   7.790  20.399  0.00  0.00    +0.000 A 
ATOM      5  C   UNL     1       1.905   7.870  19.017  0.00  0.00    +0.000 A 
ATOM      6  C   UNL     1       1.431   9.009  18.343  0.00  0.00    +0.000 A 
ENDROOT
BRANCH   1   7
ATOM      7  N   UNL     1       0.342  11.187  18.347  0.00  0.00    +0.000 N 
ATOM      8  H   UNL     1       0.432  11.203  17.333  0.00  0.00    +0.000 HD
BRANCH   7  10
ATOM      9  O   UNL     1      -1.365  11.299  20.159  0.00  0.00    +0.000 OA
ATOM     10  S   UNL     1      -1.067  11.924  18.895  0.00  0.00    +0.000 S 
ATOM     11  O   UNL     1      -0.944  13.363  18.771  0.00  0.00    +0.000 OA
BRANCH  10  12
ATOM     12  C   UNL     1      -2.257  11.352  17.711  0.00  0.00    +0.000 A 
ATOM     13  C   UNL     1      -3.584  11.772  17.819  0.00  0.00    +0.000 A 
ATOM     14  C   UNL     1      -4.520  11.300  16.903  0.00  0.00    +0.000 A 
ATOM     15  C   UNL     1      -4.131  10.425  15.885  0.00  0.00    +0.000 A 
ATOM     16  C   UNL     1      -2.798  10.023  15.773  0.00  0.00    +0.000 A 
ATOM     17  C   UNL     1      -1.853  10.494  16.683  0.00  0.00    +0.000 A 
ENDBRANCH  10  12
ENDBRANCH   7  10
ENDBRANCH   1   7
BRANCH   5  18
ATOM     18  N   UNL     1       2.554   6.848  18.286  0.00  0.00    +0.000 N 
ATOM     19  H   UNL     1       2.615   7.095  17.297  0.00  0.00    +0.000 HD
BRANCH  18  20
ATOM     20  C   UNL     1       3.613   5.946  18.601  0.00  0.00    +0.000 A 
ATOM     21  C   UNL     1       5.021   6.146  18.302  0.00  0.00    +0.000 A 
ATOM     22  C   UNL     1       5.622   7.089  17.435  0.00  0.00    +0.000 A 
ATOM     23  C   UNL     1       7.006   7.249  17.368  0.00  0.00    +0.000 A 
ATOM     24  C   UNL     1       7.828   6.456  18.155  0.00  0.00    +0.000 A 
ATOM     25  C   UNL     1       7.255   5.398  18.854  0.00  0.00    +0.000 A 
ATOM     26  C   UNL     1       5.888   5.183  18.817  0.00  0.00    +0.000 A 
ATOM     27  N   UNL     1       5.460   3.960  19.089  0.00  0.00    +0.000 NA
ATOM     28  C   UNL     1       4.167   3.731  18.857  0.00  0.00    +0.000 A 
ATOM     29  C   UNL     1       3.766   2.825  17.883  0.00  0.00    +0.000 A 
ATOM     30  C   UNL     1       2.416   2.682  17.546  0.00  0.00    +0.000 A 
ATOM     31  C   UNL     1       1.466   3.275  18.365  0.00  0.00    +0.000 A 
ATOM     32  C   UNL     1       1.892   4.246  19.259  0.00  0.00    +0.000 A 
ATOM     33  C   UNL     1       3.222   4.678  19.119  0.00  0.00    +0.000 A 
ENDBRANCH  18  20
ENDBRANCH   5  18
TORSDOF 5
ENDMDL
MODEL 6
REMARK VINA RESULT:      -9.2      1.979      2.614
REMARK  Name = 
REMARK  5 active torsions:
REMARK  status: ('A' for Active; 'I' for Inactive)
REMARK    1  A    between atoms: S_2  and  N_4
REMARK    2  A    between atoms: S_2  and  C_26
REMARK    3  A    between atoms: N_4  and  C_5
REMARK    4  A    between atoms: C_9  and  N_10
REMARK    5  A    between atoms: N_10  and  C_11
REMARK                            x       y       z     vdW  Elec       q    Type
REMARK                         _______ _______ _______ _____ _____    ______ ____
ROOT
ATOM      1  C   UNL     1       1.107   9.253  19.489  0.00  0.00    +0.000 A 
ATOM      2  C   UNL     1       0.209   9.163  20.546  0.00  0.00    +0.000 A 
ATOM      3  C   UNL     1       0.236   8.042  21.389  0.00  0.00    +0.000 A 
ATOM      4  C   UNL     1       1.176   7.039  21.180  0.00  0.00    +0.000 A 
ATOM      5  C   UNL     1       2.179   7.194  20.223  0.00  0.00    +0.000 A 
ATOM      6  C   UNL     1       2.102   8.286  19.341  0.00  0.00    +0.000 A 
ENDROOT
BRANCH   1   7
ATOM      7  N   UNL     1       0.996  10.300  18.536  0.00  0.00    +0.000 N 
ATOM      8  H   UNL     1       0.943  10.051  17.550  0.00  0.00    +0.000 HD
BRANCH   7  10
ATOM      9  O   UNL     1       0.132  11.776  20.349  0.00  0.00    +0.000 OA
ATOM     10  S   UNL     1       0.136  11.697  18.910  0.00  0.00    +0.000 S 
ATOM     11  O   UNL     1       0.611  12.795  18.092  0.00  0.00    +0.000 OA
BRANCH  10  12
ATOM     12  C   UNL     1      -1.501  11.264  18.383  0.00  0.00    +0.000 A 
ATOM     13  C   UNL     1      -2.590  11.983  18.878  0.00  0.00    +0.000 A 
ATOM     14  C   UNL     1      -3.875  11.623  18.482  0.00  0.00    +0.000 A 
ATOM     15  C   UNL     1      -4.067  10.562  17.594  0.00  0.00    +0.000 A 
ATOM     16  C   UNL     1      -2.972   9.859  17.088  0.00  0.00    +0.000 A 
ATOM     17  C   UNL     1      -1.682  10.215  17.476  0.00  0.00    +0.000 A 
ENDBRANCH  10  12
ENDBRANCH   7  10
ENDBRANCH   1   7
BRANCH   5  18
ATOM     18  N   UNL     1       3.267   6.295  20.125  0.00  0.00    +0.000 N 
ATOM     19  H   UNL     1       3.620   6.055  21.052  0.00  0.00    +0.000 HD
BRANCH  18  20
ATOM     20  C   UNL     1       3.574   5.232  19.226  0.00  0.00    +0.000 A 
ATOM     21  C   UNL     1       4.153   5.376  17.900  0.00  0.00    +0.000 A 
ATOM     22  C   UNL     1       4.291   6.542  17.111  0.00  0.00    +0.000 A 
ATOM     23  C   UNL     1       5.006   6.540  15.913  0.00  0.00    +0.000 A 
ATOM     24  C   UNL     1       5.587   5.364  15.463  0.00  0.00    +0.000 A 
ATOM     25  C   UNL     1       5.286   4.179  16.129  0.00  0.00    +0.000 A 
ATOM     26  C   UNL     1       4.479   4.185  17.253  0.00  0.00    +0.000 A 
ATOM     27  N   UNL     1       3.861   3.055  17.561  0.00  0.00    +0.000 NA
ATOM     28  C   UNL     1       2.944   3.137  18.525  0.00  0.00    +0.000 A 
ATOM     29  C   UNL     1       1.601   2.898  18.255  0.00  0.00    +0.000 A 
ATOM     30  C   UNL     1       0.623   3.113  19.231  0.00  0.00    +0.000 A 
ATOM     31  C   UNL     1       1.033   3.330  20.538  0.00  0.00    +0.000 A 
ATOM     32  C   UNL     1       2.362   3.662  20.758  0.00  0.00    +0.000 A 
ATOM     33  C   UNL     1       3.130   3.936  19.613  0.00  0.00    +0.000 A 
ENDBRANCH  18  20
ENDBRANCH   5  18
TORSDOF 5
ENDMDL
MODEL 7
REMARK VINA RESULT:      -9.1      2.079      2.598
REMARK  Name = 
REMARK  5 active torsions:
REMARK  status: ('A' for Active; 'I' for Inactive)
REMARK    1  A    between atoms: S_2  and  N_4
REMARK    2  A    between atoms: S_2  and  C_26
REMARK    3  A    between atoms: N_4  and  C_5
REMARK    4  A    between atoms: C_9  and  N_10
REMARK    5  A    between atoms: N_10  and  C_11
REMARK                            x       y       z     vdW  Elec       q    Type
REMARK                         _______ _______ _______ _____ _____    ______ ____
ROOT
ATOM      1  C   UNL     1       1.143  10.013  19.557  0.00  0.00    +0.000 A 
ATOM      2  C   UNL     1       0.988   9.847  20.928  0.00  0.00    +0.000 A 
ATOM      3  C   UNL     1       1.177   8.581  21.501  0.00  0.00    +0.000 A 
ATOM      4  C   UNL     1       1.545   7.504  20.702  0.00  0.00    +0.000 A 
ATOM      5  C   UNL     1       1.857   7.694  19.356  0.00  0.00    +0.000 A 
ATOM      6  C   UNL     1       1.599   8.949  18.777  0.00  0.00    +0.000 A 
ENDROOT
BRANCH   1   7
ATOM      7  N   UNL     1       0.809  11.246  18.937  0.00  0.00    +0.000 N 
ATOM      8  H   UNL     1       1.314  11.514  18.094  0.00  0.00    +0.000 HD
BRANCH   7  10
ATOM      9  O   UNL     1      -0.828  12.871  17.992  0.00  0.00    +0.000 OA
ATOM     10  S   UNL     1      -0.780  11.800  18.956  0.00  0.00    +0.000 S 
ATOM     11  O   UNL     1      -1.690  10.674  18.883  0.00  0.00    +0.000 OA
BRANCH  10  12
ATOM     12  C   UNL     1      -0.892  12.517  20.574  0.00  0.00    +0.000 A 
ATOM     13  C   UNL     1      -1.881  12.070  21.452  0.00  0.00    +0.000 A 
ATOM     14  C   UNL     1      -1.982  12.653  22.712  0.00  0.00    +0.000 A 
ATOM     15  C   UNL     1      -1.098  13.667  23.091  0.00  0.00    +0.000 A 
ATOM     16  C   UNL     1      -0.101  14.097  22.214  0.00  0.00    +0.000 A 
ATOM     17  C   UNL     1       0.011  13.516  20.953  0.00  0.00    +0.000 A 
ENDBRANCH  10  12
ENDBRANCH   7  10
ENDBRANCH   1   7
BRANCH   5  18
ATOM     18  N   UNL     1       2.431   6.669  18.568  0.00  0.00    +0.000 N 
ATOM     19  H   UNL     1       2.377   6.902  17.576  0.00  0.00    +0.000 HD
BRANCH  18  20
ATOM     20  C   UNL     1       3.530   5.783  18.773  0.00  0.00    +0.000 A 
ATOM     21  C   UNL     1       4.902   6.014  18.352  0.00  0.00    +0.000 A 
ATOM     22  C   UNL     1       5.406   6.982  17.452  0.00  0.00    +0.000 A 
ATOM     23  C   UNL     1       6.776   7.170  17.264  0.00  0.00    +0.000 A 
ATOM     24  C   UNL     1       7.678   6.381  17.961  0.00  0.00    +0.000 A 
ATOM     25  C   UNL     1       7.189   5.301  18.690  0.00  0.00    +0.000 A 
ATOM     26  C   UNL     1       5.829   5.061  18.771  0.00  0.00    +0.000 A 
ATOM     27  N   UNL     1       5.448   3.826  19.059  0.00  0.00    +0.000 NA
ATOM     28  C   UNL     1       4.144   3.575  18.940  0.00  0.00    +0.000 A 
ATOM     29  C   UNL     1       3.674   2.676  17.990  0.00  0.00    +0.000 A 
ATOM     30  C   UNL     1       2.302   2.513  17.773  0.00  0.00    +0.000 A 
ATOM     31  C   UNL     1       1.419   3.075  18.683  0.00  0.00    +0.000 A 
ATOM     32  C   UNL     1       1.906   4.040  19.552  0.00  0.00    +0.000 A 
ATOM     33  C   UNL     1       3.210   4.500  19.301  0.00  0.00    +0.000 A 
ENDBRANCH  18  20
ENDBRANCH   5  18
TORSDOF 5
ENDMDL
MODEL 8
REMARK VINA RESULT:      -9.1      2.866      9.916
REMARK  Name = 
REMARK  5 active torsions:
REMARK  status: ('A' for Active; 'I' for Inactive)
REMARK    1  A    between atoms: S_2  and  N_4
REMARK    2  A    between atoms: S_2  and  C_26
REMARK    3  A    between atoms: N_4  and  C_5
REMARK    4  A    between atoms: C_9  and  N_10
REMARK    5  A    between atoms: N_10  and  C_11
REMARK                            x       y       z     vdW  Elec       q    Type
REMARK                         _______ _______ _______ _____ _____    ______ ____
ROOT
ATOM      1  C   UNL     1      -0.318  10.552  19.110  0.00  0.00    +0.000 A 
ATOM      2  C   UNL     1      -0.593   9.884  17.923  0.00  0.00    +0.000 A 
ATOM      3  C   UNL     1      -1.832  10.071  17.291  0.00  0.00    +0.000 A 
ATOM      4  C   UNL     1      -2.768  10.941  17.839  0.00  0.00    +0.000 A 
ATOM      5  C   UNL     1      -2.440  11.733  18.940  0.00  0.00    +0.000 A 
ATOM      6  C   UNL     1      -1.225  11.490  19.605  0.00  0.00    +0.000 A 
ENDROOT
BRANCH   1   7
ATOM      7  N   UNL     1       0.863  10.262  19.843  0.00  0.00    +0.000 N 
ATOM      8  H   UNL     1       1.484  11.034  20.080  0.00  0.00    +0.000 HD
BRANCH   7  10
ATOM      9  O   UNL     1       1.735   9.499  22.050  0.00  0.00    +0.000 OA
ATOM     10  S   UNL     1       0.865   9.038  20.998  0.00  0.00    +0.000 S 
ATOM     11  O   UNL     1      -0.497   8.623  21.269  0.00  0.00    +0.000 OA
BRANCH  10  12
ATOM     12  C   UNL     1       1.696   7.731  20.136  0.00  0.00    +0.000 A 
ATOM     13  C   UNL     1       2.307   8.001  18.911  0.00  0.00    +0.000 A 
ATOM     14  C   UNL     1       2.938   6.966  18.225  0.00  0.00    +0.000 A 
ATOM     15  C   UNL     1       2.964   5.677  18.765  0.00  0.00    +0.000 A 
ATOM     16  C   UNL     1       2.366   5.418  20.000  0.00  0.00    +0.000 A 
ATOM     17  C   UNL     1       1.737   6.449  20.695  0.00  0.00    +0.000 A 
ENDBRANCH  10  12
ENDBRANCH   7  10
ENDBRANCH   1   7
BRANCH   5  18
ATOM     18  N   UNL     1      -3.286  12.772  19.393  0.00  0.00    +0.000 N 
ATOM     19  H   UNL     1      -3.458  13.449  18.649  0.00  0.00    +0.000 HD
BRANCH  18  20
ATOM     20  C   UNL     1      -4.380  12.808  20.308  0.00  0.00    +0.000 A 
ATOM     21  C   UNL     1      -4.287  12.700  21.755  0.00  0.00    +0.000 A 
ATOM     22  C   UNL     1      -3.192  12.284  22.547  0.00  0.00    +0.000 A 
ATOM     23  C   UNL     1      -3.214  12.375  23.939  0.00  0.00    +0.000 A 
ATOM     24  C   UNL     1      -4.341  12.872  24.576  0.00  0.00    +0.000 A 
ATOM     25  C   UNL     1      -5.487  13.093  23.818  0.00  0.00    +0.000 A 
ATOM     26  C   UNL     1      -5.481  12.885  22.450  0.00  0.00    +0.000 A 
ATOM     27  N   UNL     1      -6.648  12.660  21.866  0.00  0.00    +0.000 NA
ATOM     28  C   UNL     1      -6.596  12.272  20.592  0.00  0.00    +0.000 A 
ATOM     29  C   UNL     1      -7.032  11.008  20.212  0.00  0.00    +0.000 A 
ATOM     30  C   UNL     1      -6.855  10.550  18.902  0.00  0.00    +0.000 A 
ATOM     31  C   UNL     1      -6.465  11.462  17.933  0.00  0.00    +0.000 A 
ATOM     32  C   UNL     1      -5.944  12.677  18.353  0.00  0.00    +0.000 A 
ATOM     33  C   UNL     1      -5.681  12.797  19.729  0.00  0.00    +0.000 A 
ENDBRANCH  18  20
ENDBRANCH   5  18
TORSDOF 5
ENDMDL
MODEL 9
REMARK VINA RESULT:      -9.0      2.522      4.490
REMARK  Name = 
REMARK  5 active torsions:
REMARK  status: ('A' for Active; 'I' for Inactive)
REMARK    1  A    between atoms: S_2  and  N_4
REMARK    2  A    between atoms: S_2  and  C_26
REMARK    3  A    between atoms: N_4  and  C_5
REMARK    4  A    between atoms: C_9  and  N_10
REMARK    5  A    between atoms: N_10  and  C_11
REMARK                            x       y       z     vdW  Elec       q    Type
REMARK                         _______ _______ _______ _____ _____    ______ ____
ROOT
ATOM      1  C   UNL     1       0.644  10.004  19.422  0.00  0.00    +0.000 A 
ATOM      2  C   UNL     1       0.229  10.159  20.740  0.00  0.00    +0.000 A 
ATOM      3  C   UNL     1       0.572   9.192  21.695  0.00  0.00    +0.000 A 
ATOM      4  C   UNL     1       1.347   8.096  21.329  0.00  0.00    +0.000 A 
ATOM      5  C   UNL     1       1.898   8.015  20.050  0.00  0.00    +0.000 A 
ATOM      6  C   UNL     1       1.494   8.951  19.083  0.00  0.00    +0.000 A 
ENDROOT
BRANCH   1   7
ATOM      7  N   UNL     1       0.181  10.888  18.412  0.00  0.00    +0.000 N 
ATOM      8  H   UNL     1       0.239  10.584  17.442  0.00  0.00    +0.000 HD
BRANCH   7  10
ATOM      9  O   UNL     1      -1.589  11.562  20.032  0.00  0.00    +0.000 OA
ATOM     10  S   UNL     1      -1.132  11.898  18.707  0.00  0.00    +0.000 S 
ATOM     11  O   UNL     1      -0.791  13.260  18.347  0.00  0.00    +0.000 OA
BRANCH  10  12
ATOM     12  C   UNL     1      -2.326  11.286  17.548  0.00  0.00    +0.000 A 
ATOM     13  C   UNL     1      -1.931  10.349  16.591  0.00  0.00    +0.000 A 
ATOM     14  C   UNL     1      -2.865   9.890  15.667  0.00  0.00    +0.000 A 
ATOM     15  C   UNL     1      -4.181  10.356  15.705  0.00  0.00    +0.000 A 
ATOM     16  C   UNL     1      -4.574  11.280  16.676  0.00  0.00    +0.000 A 
ATOM     17  C   UNL     1      -3.647  11.742  17.608  0.00  0.00    +0.000 A 
ENDBRANCH  10  12
ENDBRANCH   7  10
ENDBRANCH   1   7
BRANCH   5  18
ATOM     18  N   UNL     1       2.854   7.029  19.708  0.00  0.00    +0.000 N 
ATOM     19  H   UNL     1       3.497   6.866  20.483  0.00  0.00    +0.000 HD
BRANCH  18  20
ATOM     20  C   UNL     1       2.794   5.852  18.905  0.00  0.00    +0.000 A 
ATOM     21  C   UNL     1       2.194   4.585  19.291  0.00  0.00    +0.000 A 
ATOM     22  C   UNL     1       1.793   4.144  20.573  0.00  0.00    +0.000 A 
ATOM     23  C   UNL     1       1.095   2.950  20.756  0.00  0.00    +0.000 A 
ATOM     24  C   UNL     1       0.795   2.155  19.659  0.00  0.00    +0.000 A 
ATOM     25  C   UNL     1       1.359   2.483  18.430  0.00  0.00    +0.000 A 
ATOM     26  C   UNL     1       2.147   3.613  18.292  0.00  0.00    +0.000 A 
ATOM     27  N   UNL     1       3.005   3.634  17.284  0.00  0.00    +0.000 NA
ATOM     28  C   UNL     1       3.882   4.638  17.286  0.00  0.00    +0.000 A 
ATOM     29  C   UNL     1       5.243   4.397  17.433  0.00  0.00    +0.000 A 
ATOM     30  C   UNL     1       6.149   5.453  17.570  0.00  0.00    +0.000 A 
ATOM     31  C   UNL     1       5.704   6.741  17.311  0.00  0.00    +0.000 A 
ATOM     32  C   UNL     1       4.335   6.960  17.268  0.00  0.00    +0.000 A 
ATOM     33  C   UNL     1       3.522   5.891  17.681  0.00  0.00    +0.000 A 
ENDBRANCH  18  20
ENDBRANCH   5  18
TORSDOF 5
ENDMDL
