MODEL 1
REMARK VINA RESULT:      -8.3      0.000      0.000
REMARK  Name = 
REMARK  6 active torsions:
REMARK  status: ('A' for Active; 'I' for Inactive)
REMARK    1  A    between atoms: C_2  and  O_3
REMARK    2  A    between atoms: C_2  and  C_4
REMARK    3  A    between atoms: C_7  and  N_8
REMARK    4  A    between atoms: C_9  and  C_11
REMARK    5  A    between atoms: C_18  and  O_19
REMARK    6  A    between atoms: O_19  and  C_20
REMARK                            x       y       z     vdW  Elec       q    Type
REMARK                         _______ _______ _______ _____ _____    ______ ____
ROOT
ATOM      1  C   UNL     1       1.874   8.067  19.451  0.00  0.00    +0.000 A 
ATOM      2  C   UNL     1       1.171   9.281  19.277  0.00  0.00    +0.000 A 
ATOM      3  C   UNL     1       0.350   9.807  20.275  0.00  0.00    +0.000 A 
ATOM      4 CL   UNL     1      -0.439  11.309  19.962  0.00  0.00    +0.000 Cl
ATOM      5  C   UNL     1       0.206   9.113  21.472  0.00  0.00    +0.000 A 
ATOM      6 CL   UNL     1      -0.767   9.702  22.772  0.00  0.00    +0.000 Cl
ATOM      7  C   UNL     1       0.878   7.900  21.651  0.00  0.00    +0.000 A 
ATOM      8  C   UNL     1       1.704   7.357  20.646  0.00  0.00    +0.000 A 
ENDROOT
BRANCH   1  10
ATOM      9  N   UNL     1       3.501   6.562  18.341  0.00  0.00    +0.000 N 
ATOM     10  C   UNL     1       2.664   7.663  18.258  0.00  0.00    +0.000 C 
ATOM     11  O   UNL     1       2.498   8.362  17.262  0.00  0.00    +0.000 OA
ATOM     12  H   UNL     1       3.452   5.989  19.175  0.00  0.00    +0.000 HD
BRANCH   9  16
ATOM     13  C   UNL     1       5.876   5.072  15.160  0.00  0.00    +0.000 A 
ATOM     14  C   UNL     1       5.165   4.184  15.964  0.00  0.00    +0.000 A 
ATOM     15  C   UNL     1       4.366   4.670  17.001  0.00  0.00    +0.000 A 
ATOM     16  C   UNL     1       4.248   6.042  17.252  0.00  0.00    +0.000 A 
ATOM     17  C   UNL     1       4.906   6.932  16.395  0.00  0.00    +0.000 A 
ATOM     18  C   UNL     1       5.721   6.450  15.358  0.00  0.00    +0.000 A 
BRANCH  13  20
ATOM     19  O   UNL     1       7.770   5.196  13.735  0.00  0.00    +0.000 OA
ATOM     20  C   UNL     1       6.764   4.596  14.070  0.00  0.00    +0.000 C 
BRANCH  20  21
ATOM     21  O   UNL     1       6.385   3.424  13.515  0.00  0.00    +0.000 OA
ATOM     22  H   UNL     1       5.509   3.424  13.090  0.00  0.00    +0.000 HD
ENDBRANCH  20  21
ENDBRANCH  13  20
ENDBRANCH   9  16
ENDBRANCH   1  10
BRANCH   8  23
ATOM     23  O   UNL     1       2.340   6.214  21.059  0.00  0.00    +0.000 OA
BRANCH  23  24
ATOM     24  C   UNL     1       1.885   4.953  20.768  0.00  0.00    +0.000 A 
ATOM     25  C   UNL     1       2.301   3.981  21.687  0.00  0.00    +0.000 A 
ATOM     26  C   UNL     1       2.018   2.636  21.468  0.00  0.00    +0.000 A 
ATOM     27  C   UNL     1       1.306   2.257  20.333  0.00  0.00    +0.000 A 
ATOM     28  C   UNL     1       0.838   3.230  19.448  0.00  0.00    +0.000 A 
ATOM     29  C   UNL     1       1.101   4.584  19.678  0.00  0.00    +0.000 A 
ENDBRANCH  23  24
ENDBRANCH   8  23
TORSDOF 6
ENDMDL
MODEL 2
REMARK VINA RESULT:      -8.1      0.755      1.304
REMARK  Name = 
REMARK  6 active torsions:
REMARK  status: ('A' for Active; 'I' for Inactive)
REMARK    1  A    between atoms: C_2  and  O_3
REMARK    2  A    between atoms: C_2  and  C_4
REMARK    3  A    between atoms: C_7  and  N_8
REMARK    4  A    between atoms: C_9  and  C_11
REMARK    5  A    between atoms: C_18  and  O_19
REMARK    6  A    between atoms: O_19  and  C_20
REMARK                            x       y       z     vdW  Elec       q    Type
REMARK                         _______ _______ _______ _____ _____    ______ ____
ROOT
ATOM      1  C   UNL     1       2.075   7.789  19.393  0.00  0.00    +0.000 A 
ATOM      2  C   UNL     1       1.397   9.022  19.250  0.00  0.00    +0.000 A 
ATOM      3  C   UNL     1       0.531   9.503  20.232  0.00  0.00    +0.000 A 
ATOM      4 CL   UNL     1      -0.223  11.032  19.963  0.00  0.00    +0.000 Cl
ATOM      5  C   UNL     1       0.314   8.746  21.379  0.00  0.00    +0.000 A 
ATOM      6 CL   UNL     1      -0.719   9.276  22.657  0.00  0.00    +0.000 Cl
ATOM      7  C   UNL     1       0.961   7.515  21.525  0.00  0.00    +0.000 A 
ATOM      8  C   UNL     1       1.834   7.017  20.536  0.00  0.00    +0.000 A 
ENDROOT
BRANCH   1  10
ATOM      9  N   UNL     1       3.910   6.479  18.363  0.00  0.00    +0.000 N 
ATOM     10  C   UNL     1       2.924   7.440  18.222  0.00  0.00    +0.000 C 
ATOM     11  O   UNL     1       2.664   8.053  17.190  0.00  0.00    +0.000 OA
ATOM     12  H   UNL     1       3.940   5.950  19.227  0.00  0.00    +0.000 HD
BRANCH   9  16
ATOM     13  C   UNL     1       6.232   5.123  15.084  0.00  0.00    +0.000 A 
ATOM     14  C   UNL     1       6.652   6.232  15.814  0.00  0.00    +0.000 A 
ATOM     15  C   UNL     1       5.902   6.672  16.907  0.00  0.00    +0.000 A 
ATOM     16  C   UNL     1       4.731   6.015  17.303  0.00  0.00    +0.000 A 
ATOM     17  C   UNL     1       4.354   4.857  16.611  0.00  0.00    +0.000 A 
ATOM     18  C   UNL     1       5.097   4.417  15.503  0.00  0.00    +0.000 A 
BRANCH  13  20
ATOM     19  O   UNL     1       6.630   3.672  13.249  0.00  0.00    +0.000 OA
ATOM     20  C   UNL     1       6.981   4.643  13.896  0.00  0.00    +0.000 C 
BRANCH  20  21
ATOM     21  O   UNL     1       8.052   5.399  13.571  0.00  0.00    +0.000 OA
ATOM     22  H   UNL     1       8.129   5.638  12.631  0.00  0.00    +0.000 HD
ENDBRANCH  20  21
ENDBRANCH  13  20
ENDBRANCH   9  16
ENDBRANCH   1  10
BRANCH   8  23
ATOM     23  O   UNL     1       2.433   5.843  20.916  0.00  0.00    +0.000 OA
BRANCH  23  24
ATOM     24  C   UNL     1       2.098   4.622  20.389  0.00  0.00    +0.000 A 
ATOM     25  C   UNL     1       3.204   3.820  20.083  0.00  0.00    +0.000 A 
ATOM     26  C   UNL     1       3.035   2.599  19.436  0.00  0.00    +0.000 A 
ATOM     27  C   UNL     1       1.754   2.169  19.102  0.00  0.00    +0.000 A 
ATOM     28  C   UNL     1       0.645   2.938  19.461  0.00  0.00    +0.000 A 
ATOM     29  C   UNL     1       0.812   4.154  20.132  0.00  0.00    +0.000 A 
ENDBRANCH  23  24
ENDBRANCH   8  23
TORSDOF 6
ENDMDL
MODEL 3
REMARK VINA RESULT:      -8.1      3.636      7.383
REMARK  Name = 
REMARK  6 active torsions:
REMARK  status: ('A' for Active; 'I' for Inactive)
REMARK    1  A    between atoms: C_2  and  O_3
REMARK    2  A    between atoms: C_2  and  C_4
REMARK    3  A    between atoms: C_7  and  N_8
REMARK    4  A    between atoms: C_9  and  C_11
REMARK    5  A    between atoms: C_18  and  O_19
REMARK    6  A    between atoms: O_19  and  C_20
REMARK                            x       y       z     vdW  Elec       q    Type
REMARK                         _______ _______ _______ _____ _____    ______ ____
ROOT
ATOM      1  C   UNL     1       3.596   6.913  17.805  0.00  0.00    +0.000 A 
ATOM      2  C   UNL     1       4.898   7.447  17.676  0.00  0.00    +0.000 A 
ATOM      3  C   UNL     1       5.981   6.661  17.281  0.00  0.00    +0.000 A 
ATOM      4 CL   UNL     1       7.521   7.425  17.131  0.00  0.00    +0.000 Cl
ATOM      5  C   UNL     1       5.780   5.309  17.018  0.00  0.00    +0.000 A 
ATOM      6 CL   UNL     1       7.056   4.268  16.497  0.00  0.00    +0.000 Cl
ATOM      7  C   UNL     1       4.501   4.762  17.162  0.00  0.00    +0.000 A 
ATOM      8  C   UNL     1       3.402   5.547  17.567  0.00  0.00    +0.000 A 
ENDROOT
BRANCH   1  10
ATOM      9  N   UNL     1       2.150   7.859  19.582  0.00  0.00    +0.000 N 
ATOM     10  C   UNL     1       2.591   7.906  18.270  0.00  0.00    +0.000 C 
ATOM     11  O   UNL     1       2.228   8.717  17.422  0.00  0.00    +0.000 OA
ATOM     12  H   UNL     1       2.621   7.229  20.220  0.00  0.00    +0.000 HD
BRANCH   9  16
ATOM     13  C   UNL     1      -0.425  10.677  21.429  0.00  0.00    +0.000 A 
ATOM     14  C   UNL     1       0.082  10.936  20.157  0.00  0.00    +0.000 A 
ATOM     15  C   UNL     1       0.914  10.002  19.536  0.00  0.00    +0.000 A 
ATOM     16  C   UNL     1       1.250   8.794  20.157  0.00  0.00    +0.000 A 
ATOM     17  C   UNL     1       0.680   8.508  21.403  0.00  0.00    +0.000 A 
ATOM     18  C   UNL     1      -0.148   9.447  22.039  0.00  0.00    +0.000 A 
BRANCH  13  20
ATOM     19  O   UNL     1      -1.172  11.885  23.331  0.00  0.00    +0.000 OA
ATOM     20  C   UNL     1      -1.285  11.657  22.139  0.00  0.00    +0.000 C 
BRANCH  20  21
ATOM     21  O   UNL     1      -2.168  12.300  21.345  0.00  0.00    +0.000 OA
ATOM     22  H   UNL     1      -2.273  11.934  20.450  0.00  0.00    +0.000 HD
ENDBRANCH  20  21
ENDBRANCH  13  20
ENDBRANCH   9  16
ENDBRANCH   1  10
BRANCH   8  23
ATOM     23  O   UNL     1       2.227   4.839  17.555  0.00  0.00    +0.000 OA
BRANCH  23  24
ATOM     24  C   UNL     1       1.838   4.009  18.574  0.00  0.00    +0.000 A 
ATOM     25  C   UNL     1       1.809   4.634  19.827  0.00  0.00    +0.000 A 
ATOM     26  C   UNL     1       1.546   3.897  20.978  0.00  0.00    +0.000 A 
ATOM     27  C   UNL     1       1.297   2.531  20.879  0.00  0.00    +0.000 A 
ATOM     28  C   UNL     1       1.265   1.918  19.626  0.00  0.00    +0.000 A 
ATOM     29  C   UNL     1       1.506   2.661  18.466  0.00  0.00    +0.000 A 
ENDBRANCH  23  24
ENDBRANCH   8  23
TORSDOF 6
ENDMDL
MODEL 4
REMARK VINA RESULT:      -8.0      3.791      7.251
REMARK  Name = 
REMARK  6 active torsions:
REMARK  status: ('A' for Active; 'I' for Inactive)
REMARK    1  A    between atoms: C_2  and  O_3
REMARK    2  A    between atoms: C_2  and  C_4
REMARK    3  A    between atoms: C_7  and  N_8
REMARK    4  A    between atoms: C_9  and  C_11
REMARK    5  A    between atoms: C_18  and  O_19
REMARK    6  A    between atoms: O_19  and  C_20
REMARK                            x       y       z     vdW  Elec       q    Type
REMARK                         _______ _______ _______ _____ _____    ______ ____
ROOT
ATOM      1  C   UNL     1       3.526   6.923  17.908  0.00  0.00    +0.000 A 
ATOM      2  C   UNL     1       4.834   7.429  17.729  0.00  0.00    +0.000 A 
ATOM      3  C   UNL     1       5.872   6.632  17.245  0.00  0.00    +0.000 A 
ATOM      4 CL   UNL     1       7.422   7.361  17.042  0.00  0.00    +0.000 Cl
ATOM      5  C   UNL     1       5.620   5.297  16.942  0.00  0.00    +0.000 A 
ATOM      6 CL   UNL     1       6.836   4.245  16.313  0.00  0.00    +0.000 Cl
ATOM      7  C   UNL     1       4.335   4.777  17.135  0.00  0.00    +0.000 A 
ATOM      8  C   UNL     1       3.282   5.573  17.629  0.00  0.00    +0.000 A 
ENDROOT
BRANCH   1  10
ATOM      9  N   UNL     1       2.151   8.972  17.668  0.00  0.00    +0.000 N 
ATOM     10  C   UNL     1       2.576   7.923  18.466  0.00  0.00    +0.000 C 
ATOM     11  O   UNL     1       2.231   7.722  19.628  0.00  0.00    +0.000 OA
ATOM     12  H   UNL     1       2.402   8.955  16.686  0.00  0.00    +0.000 HD
BRANCH   9  16
ATOM     13  C   UNL     1      -0.760  11.763  18.979  0.00  0.00    +0.000 A 
ATOM     14  C   UNL     1       0.592  12.085  19.066  0.00  0.00    +0.000 A 
ATOM     15  C   UNL     1       1.555  11.178  18.618  0.00  0.00    +0.000 A 
ATOM     16  C   UNL     1       1.196   9.943  18.066  0.00  0.00    +0.000 A 
ATOM     17  C   UNL     1      -0.166   9.656  17.913  0.00  0.00    +0.000 A 
ATOM     18  C   UNL     1      -1.139  10.557  18.374  0.00  0.00    +0.000 A 
BRANCH  13  20
ATOM     19  O   UNL     1      -2.874  12.283  19.924  0.00  0.00    +0.000 OA
ATOM     20  C   UNL     1      -1.814  12.683  19.475  0.00  0.00    +0.000 C 
BRANCH  20  21
ATOM     21  O   UNL     1      -1.479  13.990  19.426  0.00  0.00    +0.000 OA
ATOM     22  H   UNL     1      -1.659  14.439  18.581  0.00  0.00    +0.000 HD
ENDBRANCH  20  21
ENDBRANCH  13  20
ENDBRANCH   9  16
ENDBRANCH   1  10
BRANCH   8  23
ATOM     23  O   UNL     1       2.089   4.898  17.654  0.00  0.00    +0.000 OA
BRANCH  23  24
ATOM     24  C   UNL     1       1.743   4.017  18.646  0.00  0.00    +0.000 A 
ATOM     25  C   UNL     1       1.725   4.590  19.924  0.00  0.00    +0.000 A 
ATOM     26  C   UNL     1       1.505   3.801  21.050  0.00  0.00    +0.000 A 
ATOM     27  C   UNL     1       1.291   2.433  20.900  0.00  0.00    +0.000 A 
ATOM     28  C   UNL     1       1.247   1.870  19.624  0.00  0.00    +0.000 A 
ATOM     29  C   UNL     1       1.444   2.666  18.490  0.00  0.00    +0.000 A 
ENDBRANCH  23  24
ENDBRANCH   8  23
TORSDOF 6
ENDMDL
MODEL 5
REMARK VINA RESULT:      -7.9      0.560      1.333
REMARK  Name = 
REMARK  6 active torsions:
REMARK  status: ('A' for Active; 'I' for Inactive)
REMARK    1  A    between atoms: C_2  and  O_3
REMARK    2  A    between atoms: C_2  and  C_4
REMARK    3  A    between atoms: C_7  and  N_8
REMARK    4  A    between atoms: C_9  and  C_11
REMARK    5  A    between atoms: C_18  and  O_19
REMARK    6  A    between atoms: O_19  and  C_20
REMARK                            x       y       z     vdW  Elec       q    Type
REMARK                         _______ _______ _______ _____ _____    ______ ____
ROOT
ATOM      1  C   UNL     1       2.128   7.957  19.282  0.00  0.00    +0.000 A 
ATOM      2  C   UNL     1       1.407   9.157  19.081  0.00  0.00    +0.000 A 
ATOM      3  C   UNL     1       0.519   9.651  20.037  0.00  0.00    +0.000 A 
ATOM      4 CL   UNL     1      -0.287  11.138  19.696  0.00  0.00    +0.000 Cl
ATOM      5  C   UNL     1       0.325   8.940  21.217  0.00  0.00    +0.000 A 
ATOM      6 CL   UNL     1      -0.733   9.490  22.466  0.00  0.00    +0.000 Cl
ATOM      7  C   UNL     1       1.015   7.741  21.420  0.00  0.00    +0.000 A 
ATOM      8  C   UNL     1       1.909   7.229  20.458  0.00  0.00    +0.000 A 
ENDROOT
BRANCH   1  10
ATOM      9  N   UNL     1       3.981   6.631  18.306  0.00  0.00    +0.000 N 
ATOM     10  C   UNL     1       2.993   7.586  18.130  0.00  0.00    +0.000 C 
ATOM     11  O   UNL     1       2.746   8.176  17.082  0.00  0.00    +0.000 OA
ATOM     12  H   UNL     1       4.000   6.121  19.181  0.00  0.00    +0.000 HD
BRANCH   9  16
ATOM     13  C   UNL     1       6.357   5.225  15.087  0.00  0.00    +0.000 A 
ATOM     14  C   UNL     1       6.806   6.294  15.860  0.00  0.00    +0.000 A 
ATOM     15  C   UNL     1       6.037   6.749  16.933  0.00  0.00    +0.000 A 
ATOM     16  C   UNL     1       4.818   6.147  17.267  0.00  0.00    +0.000 A 
ATOM     17  C   UNL     1       4.408   5.027  16.533  0.00  0.00    +0.000 A 
ATOM     18  C   UNL     1       5.170   4.572  15.445  0.00  0.00    +0.000 A 
BRANCH  13  20
ATOM     19  O   UNL     1       8.091   5.326  13.471  0.00  0.00    +0.000 OA
ATOM     20  C   UNL     1       7.126   4.732  13.918  0.00  0.00    +0.000 C 
BRANCH  20  21
ATOM     21  O   UNL     1       6.692   3.553  13.423  0.00  0.00    +0.000 OA
ATOM     22  H   UNL     1       7.376   2.872  13.295  0.00  0.00    +0.000 HD
ENDBRANCH  20  21
ENDBRANCH  13  20
ENDBRANCH   9  16
ENDBRANCH   1  10
BRANCH   8  23
ATOM     23  O   UNL     1       2.548   6.096  20.893  0.00  0.00    +0.000 OA
BRANCH  23  24
ATOM     24  C   UNL     1       2.090   4.829  20.638  0.00  0.00    +0.000 A 
ATOM     25  C   UNL     1       1.703   4.629  19.307  0.00  0.00    +0.000 A 
ATOM     26  C   UNL     1       1.110   3.432  18.916  0.00  0.00    +0.000 A 
ATOM     27  C   UNL     1       0.910   2.424  19.855  0.00  0.00    +0.000 A 
ATOM     28  C   UNL     1       1.350   2.597  21.168  0.00  0.00    +0.000 A 
ATOM     29  C   UNL     1       1.968   3.790  21.558  0.00  0.00    +0.000 A 
ENDBRANCH  23  24
ENDBRANCH   8  23
TORSDOF 6
ENDMDL
MODEL 6
REMARK VINA RESULT:      -7.9      3.780      7.109
REMARK  Name = 
REMARK  6 active torsions:
REMARK  status: ('A' for Active; 'I' for Inactive)
REMARK    1  A    between atoms: C_2  and  O_3
REMARK    2  A    between atoms: C_2  and  C_4
REMARK    3  A    between atoms: C_7  and  N_8
REMARK    4  A    between atoms: C_9  and  C_11
REMARK    5  A    between atoms: C_18  and  O_19
REMARK    6  A    between atoms: O_19  and  C_20
REMARK                            x       y       z     vdW  Elec       q    Type
REMARK                         _______ _______ _______ _____ _____    ______ ____
ROOT
ATOM      1  C   UNL     1       3.874   6.620  17.917  0.00  0.00    +0.000 A 
ATOM      2  C   UNL     1       5.077   7.323  17.677  0.00  0.00    +0.000 A 
ATOM      3  C   UNL     1       6.236   6.674  17.248  0.00  0.00    +0.000 A 
ATOM      4 CL   UNL     1       7.640   7.636  16.961  0.00  0.00    +0.000 Cl
ATOM      5  C   UNL     1       6.215   5.295  17.063  0.00  0.00    +0.000 A 
ATOM      6 CL   UNL     1       7.593   4.414  16.508  0.00  0.00    +0.000 Cl
ATOM      7  C   UNL     1       5.038   4.584  17.317  0.00  0.00    +0.000 A 
ATOM      8  C   UNL     1       3.864   5.229  17.756  0.00  0.00    +0.000 A 
ENDROOT
BRANCH   1  10
ATOM      9  N   UNL     1       2.449   8.636  17.695  0.00  0.00    +0.000 N 
ATOM     10  C   UNL     1       2.767   7.488  18.401  0.00  0.00    +0.000 C 
ATOM     11  O   UNL     1       2.205   7.095  19.420  0.00  0.00    +0.000 OA
ATOM     12  H   UNL     1       2.897   8.783  16.798  0.00  0.00    +0.000 HD
BRANCH   9  16
ATOM     13  C   UNL     1      -0.705  11.338  18.553  0.00  0.00    +0.000 A 
ATOM     14  C   UNL     1      -0.993  10.098  17.987  0.00  0.00    +0.000 A 
ATOM     15  C   UNL     1       0.039   9.197  17.720  0.00  0.00    +0.000 A 
ATOM     16  C   UNL     1       1.372   9.501  18.020  0.00  0.00    +0.000 A 
ATOM     17  C   UNL     1       1.648  10.717  18.656  0.00  0.00    +0.000 A 
ATOM     18  C   UNL     1       0.616  11.634  18.915  0.00  0.00    +0.000 A 
BRANCH  13  20
ATOM     19  O   UNL     1      -2.942  12.033  18.933  0.00  0.00    +0.000 OA
ATOM     20  C   UNL     1      -1.767  12.338  18.822  0.00  0.00    +0.000 C 
BRANCH  20  21
ATOM     21  O   UNL     1      -1.316  13.602  18.973  0.00  0.00    +0.000 OA
ATOM     22  H   UNL     1      -0.478  13.807  18.522  0.00  0.00    +0.000 HD
ENDBRANCH  20  21
ENDBRANCH  13  20
ENDBRANCH   9  16
ENDBRANCH   1  10
BRANCH   8  23
ATOM     23  O   UNL     1       2.803   4.365  17.855  0.00  0.00    +0.000 OA
BRANCH  23  24
ATOM     24  C   UNL     1       2.456   3.729  19.020  0.00  0.00    +0.000 A 
ATOM     25  C   UNL     1       1.076   3.705  19.257  0.00  0.00    +0.000 A 
ATOM     26  C   UNL     1       0.573   3.197  20.451  0.00  0.00    +0.000 A 
ATOM     27  C   UNL     1       1.449   2.701  21.412  0.00  0.00    +0.000 A 
ATOM     28  C   UNL     1       2.821   2.668  21.153  0.00  0.00    +0.000 A 
ATOM     29  C   UNL     1       3.326   3.156  19.943  0.00  0.00    +0.000 A 
ENDBRANCH  23  24
ENDBRANCH   8  23
TORSDOF 6
ENDMDL
MODEL 7
REMARK VINA RESULT:      -7.9      3.764      7.141
REMARK  Name = 
REMARK  6 active torsions:
REMARK  status: ('A' for Active; 'I' for Inactive)
REMARK    1  A    between atoms: C_2  and  O_3
REMARK    2  A    between atoms: C_2  and  C_4
REMARK    3  A    between atoms: C_7  and  N_8
REMARK    4  A    between atoms: C_9  and  C_11
REMARK    5  A    between atoms: C_18  and  O_19
REMARK    6  A    between atoms: O_19  and  C_20
REMARK                            x       y       z     vdW  Elec       q    Type
REMARK                         _______ _______ _______ _____ _____    ______ ____
ROOT
ATOM      1  C   UNL     1       3.809   6.688  17.945  0.00  0.00    +0.000 A 
ATOM      2  C   UNL     1       5.016   7.382  17.700  0.00  0.00    +0.000 A 
ATOM      3  C   UNL     1       6.169   6.725  17.269  0.00  0.00    +0.000 A 
ATOM      4 CL   UNL     1       7.578   7.677  16.976  0.00  0.00    +0.000 Cl
ATOM      5  C   UNL     1       6.138   5.346  17.087  0.00  0.00    +0.000 A 
ATOM      6 CL   UNL     1       7.509   4.455  16.531  0.00  0.00    +0.000 Cl
ATOM      7  C   UNL     1       4.957   4.643  17.346  0.00  0.00    +0.000 A 
ATOM      8  C   UNL     1       3.789   5.296  17.788  0.00  0.00    +0.000 A 
ENDROOT
BRANCH   1  10
ATOM      9  N   UNL     1       2.334   8.662  17.674  0.00  0.00    +0.000 N 
ATOM     10  C   UNL     1       2.709   7.564  18.430  0.00  0.00    +0.000 C 
ATOM     11  O   UNL     1       2.204   7.223  19.497  0.00  0.00    +0.000 OA
ATOM     12  H   UNL     1       2.736   8.762  16.749  0.00  0.00    +0.000 HD
BRANCH   9  16
ATOM     13  C   UNL     1      -0.964  11.111  18.725  0.00  0.00    +0.000 A 
ATOM     14  C   UNL     1       0.306  11.420  19.207  0.00  0.00    +0.000 A 
ATOM     15  C   UNL     1       1.399  10.629  18.849  0.00  0.00    +0.000 A 
ATOM     16  C   UNL     1       1.257   9.526  17.999  0.00  0.00    +0.000 A 
ATOM     17  C   UNL     1      -0.008   9.264  17.459  0.00  0.00    +0.000 A 
ATOM     18  C   UNL     1      -1.114  10.047  17.826  0.00  0.00    +0.000 A 
BRANCH  13  20
ATOM     19  O   UNL     1      -2.246  12.480  20.180  0.00  0.00    +0.000 OA
ATOM     20  C   UNL     1      -2.158  11.904  19.109  0.00  0.00    +0.000 C 
BRANCH  20  21
ATOM     21  O   UNL     1      -3.113  11.968  18.157  0.00  0.00    +0.000 OA
ATOM     22  H   UNL     1      -3.282  12.853  17.789  0.00  0.00    +0.000 HD
ENDBRANCH  20  21
ENDBRANCH  13  20
ENDBRANCH   9  16
ENDBRANCH   1  10
BRANCH   8  23
ATOM     23  O   UNL     1       2.723   4.440  17.892  0.00  0.00    +0.000 OA
BRANCH  23  24
ATOM     24  C   UNL     1       2.401   3.775  19.047  0.00  0.00    +0.000 A 
ATOM     25  C   UNL     1       1.022   3.649  19.257  0.00  0.00    +0.000 A 
ATOM     26  C   UNL     1       0.535   3.101  20.440  0.00  0.00    +0.000 A 
ATOM     27  C   UNL     1       1.427   2.665  21.416  0.00  0.00    +0.000 A 
ATOM     28  C   UNL     1       2.802   2.734  21.184  0.00  0.00    +0.000 A 
ATOM     29  C   UNL     1       3.293   3.262  19.986  0.00  0.00    +0.000 A 
ENDBRANCH  23  24
ENDBRANCH   8  23
TORSDOF 6
ENDMDL
MODEL 8
REMARK VINA RESULT:      -7.9      3.765      7.495
REMARK  Name = 
REMARK  6 active torsions:
REMARK  status: ('A' for Active; 'I' for Inactive)
REMARK    1  A    between atoms: C_2  and  O_3
REMARK    2  A    between atoms: C_2  and  C_4
REMARK    3  A    between atoms: C_7  and  N_8
REMARK    4  A    between atoms: C_9  and  C_11
REMARK    5  A    between atoms: C_18  and  O_19
REMARK    6  A    between atoms: O_19  and  C_20
REMARK                            x       y       z     vdW  Elec       q    Type
REMARK                         _______ _______ _______ _____ _____    ______ ____
ROOT
ATOM      1  C   UNL     1       2.592   6.000  18.773  0.00  0.00    +0.000 A 
ATOM      2  C   UNL     1       1.839   5.052  19.504  0.00  0.00    +0.000 A 
ATOM      3  C   UNL     1       2.039   3.680  19.356  0.00  0.00    +0.000 A 
ATOM      4 CL   UNL     1       1.081   2.616  20.320  0.00  0.00    +0.000 Cl
ATOM      5  C   UNL     1       2.996   3.225  18.454  0.00  0.00    +0.000 A 
ATOM      6 CL   UNL     1       3.330   1.547  18.226  0.00  0.00    +0.000 Cl
ATOM      7  C   UNL     1       3.734   4.150  17.708  0.00  0.00    +0.000 A 
ATOM      8  C   UNL     1       3.534   5.539  17.846  0.00  0.00    +0.000 A 
ENDROOT
BRANCH   1  10
ATOM      9  N   UNL     1       1.962   8.266  17.989  0.00  0.00    +0.000 N 
ATOM     10  C   UNL     1       2.201   7.408  19.050  0.00  0.00    +0.000 C 
ATOM     11  O   UNL     1       2.115   7.701  20.240  0.00  0.00    +0.000 OA
ATOM     12  H   UNL     1       1.936   7.872  17.056  0.00  0.00    +0.000 HD
BRANCH   9  16
ATOM     13  C   UNL     1       0.578  12.232  18.568  0.00  0.00    +0.000 A 
ATOM     14  C   UNL     1       1.933  12.001  18.339  0.00  0.00    +0.000 A 
ATOM     15  C   UNL     1       2.392  10.699  18.128  0.00  0.00    +0.000 A 
ATOM     16  C   UNL     1       1.517   9.606  18.129  0.00  0.00    +0.000 A 
ATOM     17  C   UNL     1       0.148   9.852  18.287  0.00  0.00    +0.000 A 
ATOM     18  C   UNL     1      -0.318  11.157  18.512  0.00  0.00    +0.000 A 
BRANCH  13  20
ATOM     19  O   UNL     1       0.748  14.593  18.741  0.00  0.00    +0.000 OA
ATOM     20  C   UNL     1       0.054  13.595  18.831  0.00  0.00    +0.000 C 
BRANCH  20  21
ATOM     21  O   UNL     1      -1.261  13.637  19.135  0.00  0.00    +0.000 OA
ATOM     22  H   UNL     1      -1.578  14.473  19.518  0.00  0.00    +0.000 HD
ENDBRANCH  20  21
ENDBRANCH  13  20
ENDBRANCH   9  16
ENDBRANCH   1  10
BRANCH   8  23
ATOM     23  O   UNL     1       4.421   6.268  17.094  0.00  0.00    +0.000 OA
BRANCH  23  24
ATOM     24  C   UNL     1       5.706   6.531  17.492  0.00  0.00    +0.000 A 
ATOM     25  C   UNL     1       6.200   5.619  18.434  0.00  0.00    +0.000 A 
ATOM     26  C   UNL     1       7.446   5.815  19.021  0.00  0.00    +0.000 A 
ATOM     27  C   UNL     1       8.212   6.921  18.659  0.00  0.00    +0.000 A 
ATOM     28  C   UNL     1       7.749   7.797  17.676  0.00  0.00    +0.000 A 
ATOM     29  C   UNL     1       6.507   7.588  17.068  0.00  0.00    +0.000 A 
ENDBRANCH  23  24
ENDBRANCH   8  23
TORSDOF 6
ENDMDL
MODEL 9
REMARK VINA RESULT:      -7.9      3.686      7.275
REMARK  Name = 
REMARK  6 active torsions:
REMARK  status: ('A' for Active; 'I' for Inactive)
REMARK    1  A    between atoms: C_2  and  O_3
REMARK    2  A    between atoms: C_2  and  C_4
REMARK    3  A    between atoms: C_7  and  N_8
REMARK    4  A    between atoms: C_9  and  C_11
REMARK    5  A    between atoms: C_18  and  O_19
REMARK    6  A    between atoms: O_19  and  C_20
REMARK                            x       y       z     vdW  Elec       q    Type
REMARK                         _______ _______ _______ _____ _____    ______ ____
ROOT
ATOM      1  C   UNL     1       3.584   7.181  17.719  0.00  0.00    +0.000 A 
ATOM      2  C   UNL     1       4.913   7.638  17.564  0.00  0.00    +0.000 A 
ATOM      3  C   UNL     1       5.977   6.757  17.373  0.00  0.00    +0.000 A 
ATOM      4 CL   UNL     1       7.554   7.428  17.170  0.00  0.00    +0.000 Cl
ATOM      5  C   UNL     1       5.730   5.388  17.346  0.00  0.00    +0.000 A 
ATOM      6 CL   UNL     1       6.981   4.226  17.088  0.00  0.00    +0.000 Cl
ATOM      7  C   UNL     1       4.423   4.920  17.519  0.00  0.00    +0.000 A 
ATOM      8  C   UNL     1       3.342   5.802  17.720  0.00  0.00    +0.000 A 
ENDROOT
BRANCH   1  10
ATOM      9  N   UNL     1       1.862   8.290  19.116  0.00  0.00    +0.000 N 
ATOM     10  C   UNL     1       2.603   8.276  17.946  0.00  0.00    +0.000 C 
ATOM     11  O   UNL     1       2.535   9.110  17.046  0.00  0.00    +0.000 OA
ATOM     12  H   UNL     1       2.103   7.623  19.840  0.00  0.00    +0.000 HD
BRANCH   9  16
ATOM     13  C   UNL     1      -0.991  11.257  20.136  0.00  0.00    +0.000 A 
ATOM     14  C   UNL     1      -0.166  10.725  21.124  0.00  0.00    +0.000 A 
ATOM     15  C   UNL     1       0.789   9.762  20.791  0.00  0.00    +0.000 A 
ATOM     16  C   UNL     1       0.951   9.318  19.474  0.00  0.00    +0.000 A 
ATOM     17  C   UNL     1       0.170   9.909  18.474  0.00  0.00    +0.000 A 
ATOM     18  C   UNL     1      -0.800  10.869  18.803  0.00  0.00    +0.000 A 
BRANCH  13  20
ATOM     19  O   UNL     1      -2.266  12.633  21.589  0.00  0.00    +0.000 OA
ATOM     20  C   UNL     1      -2.041  12.257  20.452  0.00  0.00    +0.000 C 
BRANCH  20  21
ATOM     21  O   UNL     1      -2.690  12.743  19.372  0.00  0.00    +0.000 OA
ATOM     22  H   UNL     1      -3.610  13.022  19.524  0.00  0.00    +0.000 HD
ENDBRANCH  20  21
ENDBRANCH  13  20
ENDBRANCH   9  16
ENDBRANCH   1  10
BRANCH   8  23
ATOM     23  O   UNL     1       2.139   5.145  17.774  0.00  0.00    +0.000 OA
BRANCH  23  24
ATOM     24  C   UNL     1       1.799   4.280  18.781  0.00  0.00    +0.000 A 
ATOM     25  C   UNL     1       1.954   4.821  20.063  0.00  0.00    +0.000 A 
ATOM     26  C   UNL     1       1.759   4.031  21.192  0.00  0.00    +0.000 A 
ATOM     27  C   UNL     1       1.397   2.695  21.044  0.00  0.00    +0.000 A 
ATOM     28  C   UNL     1       1.182   2.169  19.768  0.00  0.00    +0.000 A 
ATOM     29  C   UNL     1       1.354   2.968  18.633  0.00  0.00    +0.000 A 
ENDBRANCH  23  24
ENDBRANCH   8  23
TORSDOF 6
ENDMDL
