MODEL 1
REMARK VINA RESULT:      -7.8      0.000      0.000
REMARK  Name = 
REMARK  6 active torsions:
REMARK  status: ('A' for Active; 'I' for Inactive)
REMARK    1  A    between atoms: C_1  and  C_2
REMARK    2  A    between atoms: C_10  and  C_11
REMARK    3  A    between atoms: N_13  and  C_14
REMARK    4  A    between atoms: C_14  and  C_15
REMARK    5  A    between atoms: C_17  and  C_18
REMARK    6  A    between atoms: C_20  and  C_21
REMARK                            x       y       z     vdW  Elec       q    Type
REMARK                         _______ _______ _______ _____ _____    ______ ____
ROOT
ATOM      1  C   UNL     1       0.135   9.898  20.123  0.00  0.00    +0.000 C 
ATOM      2  O   UNL     1      -0.349   9.835  21.253  0.00  0.00    +0.000 OA
ATOM      3  N   UNL     1      -0.449  10.623  19.107  0.00  0.00    +0.000 N 
ATOM      4  H   UNL     1       0.134  10.820  18.299  0.00  0.00    +0.000 HD
ENDROOT
BRANCH   1  14
ATOM      5  C   UNL     1       4.481   3.599  18.175  0.00  0.00    +0.000 C 
ATOM      6  C   UNL     1       3.683   4.736  18.741  0.00  0.00    +0.000 A 
ATOM      7  C   UNL     1       3.004   4.601  19.955  0.00  0.00    +0.000 A 
ATOM      8  C   UNL     1       2.240   5.657  20.457  0.00  0.00    +0.000 A 
ATOM      9  C   UNL     1       2.146   6.854  19.749  0.00  0.00    +0.000 A 
ATOM     10  C   UNL     1       2.816   7.008  18.533  0.00  0.00    +0.000 A 
ATOM     11  C   UNL     1       3.594   5.948  18.042  0.00  0.00    +0.000 A 
ATOM     12  C   UNL     1       2.725   8.293  17.768  0.00  0.00    +0.000 C 
ATOM     13  C   UNL     1       1.470   9.048  18.171  0.00  0.00    +0.000 C 
ATOM     14  C   UNL     1       1.383   9.105  19.693  0.00  0.00    +0.000 C 
ATOM     15  O   UNL     1       1.330   7.805  20.297  0.00  0.00    +0.000 OA
ENDBRANCH   1  14
BRANCH   3  16
ATOM     16  C   UNL     1      -1.613  11.454  19.320  0.00  0.00    +0.000 C 
BRANCH  16  17
ATOM     17  C   UNL     1      -2.640  11.321  18.220  0.00  0.00    +0.000 A 
ATOM     18  C   UNL     1      -2.294  10.751  17.008  0.00  0.00    +0.000 A 
ATOM     19  C   UNL     1      -3.272  10.705  16.036  0.00  0.00    +0.000 A 
ATOM     20  C   UNL     1      -2.986  10.151  14.675  0.00  0.00    +0.000 C 
ATOM     21  N   UNL     1      -4.521  11.169  16.252  0.00  0.00    +0.000 NA
ATOM     22  C   UNL     1      -4.782  11.681  17.468  0.00  0.00    +0.000 A 
ATOM     23  C   UNL     1      -6.168  12.184  17.726  0.00  0.00    +0.000 C 
ATOM     24  N   UNL     1      -3.889  11.778  18.471  0.00  0.00    +0.000 NA
ENDBRANCH  16  17
ENDBRANCH   3  16
TORSDOF 3
ENDMDL
MODEL 2
REMARK VINA RESULT:      -7.8      8.250      9.987
REMARK  Name = 
REMARK  6 active torsions:
REMARK  status: ('A' for Active; 'I' for Inactive)
REMARK    1  A    between atoms: C_1  and  C_2
REMARK    2  A    between atoms: C_10  and  C_11
REMARK    3  A    between atoms: N_13  and  C_14
REMARK    4  A    between atoms: C_14  and  C_15
REMARK    5  A    between atoms: C_17  and  C_18
REMARK    6  A    between atoms: C_20  and  C_21
REMARK                            x       y       z     vdW  Elec       q    Type
REMARK                         _______ _______ _______ _____ _____    ______ ____
ROOT
ATOM      1  C   UNL     1       7.680   7.148  17.916  0.00  0.00    +0.000 C 
ATOM      2  O   UNL     1       8.074   6.485  18.874  0.00  0.00    +0.000 OA
ATOM      3  N   UNL     1       7.957   8.491  17.780  0.00  0.00    +0.000 N 
ATOM      4  H   UNL     1       7.811   8.893  16.859  0.00  0.00    +0.000 HD
ENDROOT
BRANCH   1  14
ATOM      5  C   UNL     1       5.487   2.623  11.826  0.00  0.00    +0.000 C 
ATOM      6  C   UNL     1       6.003   3.598  12.843  0.00  0.00    +0.000 A 
ATOM      7  C   UNL     1       7.200   4.288  12.633  0.00  0.00    +0.000 A 
ATOM      8  C   UNL     1       7.684   5.170  13.600  0.00  0.00    +0.000 A 
ATOM      9  C   UNL     1       6.978   5.369  14.786  0.00  0.00    +0.000 A 
ATOM     10  C   UNL     1       5.780   4.689  15.015  0.00  0.00    +0.000 A 
ATOM     11  C   UNL     1       5.291   3.815  14.031  0.00  0.00    +0.000 A 
ATOM     12  C   UNL     1       5.012   4.901  16.284  0.00  0.00    +0.000 C 
ATOM     13  C   UNL     1       5.938   5.420  17.369  0.00  0.00    +0.000 C 
ATOM     14  C   UNL     1       6.759   6.582  16.818  0.00  0.00    +0.000 C 
ATOM     15  O   UNL     1       7.564   6.210  15.691  0.00  0.00    +0.000 OA
ENDBRANCH   1  14
BRANCH   3  16
ATOM     16  C   UNL     1       8.825   9.197  18.696  0.00  0.00    +0.000 C 
BRANCH  16  17
ATOM     17  C   UNL     1       9.147  10.600  18.237  0.00  0.00    +0.000 A 
ATOM     18  C   UNL     1      10.462  10.992  18.061  0.00  0.00    +0.000 A 
ATOM     19  C   UNL     1      10.679  12.302  17.685  0.00  0.00    +0.000 A 
ATOM     20  C   UNL     1      12.066  12.839  17.514  0.00  0.00    +0.000 C 
ATOM     21  N   UNL     1       9.664  13.165  17.470  0.00  0.00    +0.000 NA
ATOM     22  C   UNL     1       8.415  12.695  17.636  0.00  0.00    +0.000 A 
ATOM     23  C   UNL     1       7.280  13.638  17.386  0.00  0.00    +0.000 C 
ATOM     24  N   UNL     1       8.108  11.439  18.012  0.00  0.00    +0.000 NA
ENDBRANCH  16  17
ENDBRANCH   3  16
TORSDOF 3
ENDMDL
MODEL 3
REMARK VINA RESULT:      -7.8      4.201      8.442
REMARK  Name = 
REMARK  6 active torsions:
REMARK  status: ('A' for Active; 'I' for Inactive)
REMARK    1  A    between atoms: C_1  and  C_2
REMARK    2  A    between atoms: C_10  and  C_11
REMARK    3  A    between atoms: N_13  and  C_14
REMARK    4  A    between atoms: C_14  and  C_15
REMARK    5  A    between atoms: C_17  and  C_18
REMARK    6  A    between atoms: C_20  and  C_21
REMARK                            x       y       z     vdW  Elec       q    Type
REMARK                         _______ _______ _______ _____ _____    ______ ____
ROOT
ATOM      1  C   UNL     1       2.710   6.136  19.151  0.00  0.00    +0.000 C 
ATOM      2  O   UNL     1       3.432   5.756  20.072  0.00  0.00    +0.000 OA
ATOM      3  N   UNL     1       2.828   5.648  17.868  0.00  0.00    +0.000 N 
ATOM      4  H   UNL     1       2.048   5.826  17.242  0.00  0.00    +0.000 HD
ENDROOT
BRANCH   1  14
ATOM      5  C   UNL     1      -0.857  12.420  22.338  0.00  0.00    +0.000 C 
ATOM      6  C   UNL     1      -0.274  11.116  21.880  0.00  0.00    +0.000 A 
ATOM      7  C   UNL     1      -0.056  10.070  22.782  0.00  0.00    +0.000 A 
ATOM      8  C   UNL     1       0.514   8.873  22.349  0.00  0.00    +0.000 A 
ATOM      9  C   UNL     1       0.875   8.710  21.012  0.00  0.00    +0.000 A 
ATOM     10  C   UNL     1       0.667   9.743  20.095  0.00  0.00    +0.000 A 
ATOM     11  C   UNL     1       0.079  10.939  20.535  0.00  0.00    +0.000 A 
ATOM     12  C   UNL     1       1.047   9.574  18.656  0.00  0.00    +0.000 C 
ATOM     13  C   UNL     1       2.105   8.493  18.522  0.00  0.00    +0.000 C 
ATOM     14  C   UNL     1       1.666   7.258  19.303  0.00  0.00    +0.000 C 
ATOM     15  O   UNL     1       1.477   7.522  20.700  0.00  0.00    +0.000 OA
ENDBRANCH   1  14
BRANCH   3  16
ATOM     16  C   UNL     1       3.734   4.573  17.530  0.00  0.00    +0.000 C 
BRANCH  16  17
ATOM     17  C   UNL     1       5.008   5.061  16.880  0.00  0.00    +0.000 A 
ATOM     18  C   UNL     1       5.368   4.608  15.624  0.00  0.00    +0.000 A 
ATOM     19  C   UNL     1       6.567   5.063  15.115  0.00  0.00    +0.000 A 
ATOM     20  C   UNL     1       7.070   4.596  13.784  0.00  0.00    +0.000 C 
ATOM     21  N   UNL     1       7.351   5.929  15.790  0.00  0.00    +0.000 NA
ATOM     22  C   UNL     1       6.913   6.342  16.993  0.00  0.00    +0.000 A 
ATOM     23  C   UNL     1       7.767   7.315  17.745  0.00  0.00    +0.000 C 
ATOM     24  N   UNL     1       5.766   5.943  17.573  0.00  0.00    +0.000 NA
ENDBRANCH  16  17
ENDBRANCH   3  16
TORSDOF 3
ENDMDL
MODEL 4
REMARK VINA RESULT:      -7.7      7.465      9.779
REMARK  Name = 
REMARK  6 active torsions:
REMARK  status: ('A' for Active; 'I' for Inactive)
REMARK    1  A    between atoms: C_1  and  C_2
REMARK    2  A    between atoms: C_10  and  C_11
REMARK    3  A    between atoms: N_13  and  C_14
REMARK    4  A    between atoms: C_14  and  C_15
REMARK    5  A    between atoms: C_17  and  C_18
REMARK    6  A    between atoms: C_20  and  C_21
REMARK                            x       y       z     vdW  Elec       q    Type
REMARK                         _______ _______ _______ _____ _____    ______ ____
ROOT
ATOM      1  C   UNL     1       6.493   5.354  15.767  0.00  0.00    +0.000 C 
ATOM      2  O   UNL     1       7.569   5.948  15.704  0.00  0.00    +0.000 OA
ATOM      3  N   UNL     1       5.992   4.614  14.718  0.00  0.00    +0.000 N 
ATOM      4  H   UNL     1       5.239   3.969  14.938  0.00  0.00    +0.000 HD
ENDROOT
BRANCH   1  14
ATOM      5  C   UNL     1       0.983   3.055  20.937  0.00  0.00    +0.000 C 
ATOM      6  C   UNL     1       1.872   3.530  19.827  0.00  0.00    +0.000 A 
ATOM      7  C   UNL     1       1.484   3.402  18.490  0.00  0.00    +0.000 A 
ATOM      8  C   UNL     1       2.333   3.821  17.465  0.00  0.00    +0.000 A 
ATOM      9  C   UNL     1       3.578   4.371  17.766  0.00  0.00    +0.000 A 
ATOM     10  C   UNL     1       3.985   4.508  19.095  0.00  0.00    +0.000 A 
ATOM     11  C   UNL     1       3.120   4.097  20.121  0.00  0.00    +0.000 A 
ATOM     12  C   UNL     1       5.320   5.102  19.427  0.00  0.00    +0.000 C 
ATOM     13  C   UNL     1       6.258   4.968  18.240  0.00  0.00    +0.000 C 
ATOM     14  C   UNL     1       5.546   5.448  16.979  0.00  0.00    +0.000 C 
ATOM     15  O   UNL     1       4.357   4.699  16.691  0.00  0.00    +0.000 OA
ENDBRANCH   1  14
BRANCH   3  16
ATOM     16  C   UNL     1       6.744   4.388  13.504  0.00  0.00    +0.000 C 
BRANCH  16  17
ATOM     17  C   UNL     1       6.003   3.531  12.505  0.00  0.00    +0.000 A 
ATOM     18  C   UNL     1       4.897   4.031  11.843  0.00  0.00    +0.000 A 
ATOM     19  C   UNL     1       4.245   3.174  10.979  0.00  0.00    +0.000 A 
ATOM     20  C   UNL     1       3.009   3.602  10.250  0.00  0.00    +0.000 C 
ATOM     21  N   UNL     1       4.671   1.913  10.761  0.00  0.00    +0.000 NA
ATOM     22  C   UNL     1       5.772   1.515  11.423  0.00  0.00    +0.000 A 
ATOM     23  C   UNL     1       6.265   0.123  11.178  0.00  0.00    +0.000 C 
ATOM     24  N   UNL     1       6.464   2.275  12.293  0.00  0.00    +0.000 NA
ENDBRANCH  16  17
ENDBRANCH   3  16
TORSDOF 3
ENDMDL
MODEL 5
REMARK VINA RESULT:      -7.7      1.328      1.615
REMARK  Name = 
REMARK  6 active torsions:
REMARK  status: ('A' for Active; 'I' for Inactive)
REMARK    1  A    between atoms: C_1  and  C_2
REMARK    2  A    between atoms: C_10  and  C_11
REMARK    3  A    between atoms: N_13  and  C_14
REMARK    4  A    between atoms: C_14  and  C_15
REMARK    5  A    between atoms: C_17  and  C_18
REMARK    6  A    between atoms: C_20  and  C_21
REMARK                            x       y       z     vdW  Elec       q    Type
REMARK                         _______ _______ _______ _____ _____    ______ ____
ROOT
ATOM      1  C   UNL     1       1.011   8.974  20.592  0.00  0.00    +0.000 C 
ATOM      2  O   UNL     1       0.464   8.979  21.695  0.00  0.00    +0.000 OA
ATOM      3  N   UNL     1       0.758   9.931  19.634  0.00  0.00    +0.000 N 
ATOM      4  H   UNL     1       1.422   9.992  18.868  0.00  0.00    +0.000 HD
ENDROOT
BRANCH   1  14
ATOM      5  C   UNL     1       3.213   1.749  18.286  0.00  0.00    +0.000 C 
ATOM      6  C   UNL     1       2.795   3.044  18.916  0.00  0.00    +0.000 A 
ATOM      7  C   UNL     1       2.070   3.061  20.111  0.00  0.00    +0.000 A 
ATOM      8  C   UNL     1       1.663   4.272  20.671  0.00  0.00    +0.000 A 
ATOM      9  C   UNL     1       1.972   5.477  20.042  0.00  0.00    +0.000 A 
ATOM     10  C   UNL     1       2.695   5.482  18.847  0.00  0.00    +0.000 A 
ATOM     11  C   UNL     1       3.115   4.261  18.297  0.00  0.00    +0.000 A 
ATOM     12  C   UNL     1       3.037   6.772  18.167  0.00  0.00    +0.000 C 
ATOM     13  C   UNL     1       2.072   7.860  18.604  0.00  0.00    +0.000 C 
ATOM     14  C   UNL     1       1.959   7.852  20.125  0.00  0.00    +0.000 C 
ATOM     15  O   UNL     1       1.480   6.603  20.642  0.00  0.00    +0.000 OA
ENDBRANCH   1  14
BRANCH   3  16
ATOM     16  C   UNL     1      -0.086  11.077  19.892  0.00  0.00    +0.000 C 
BRANCH  16  17
ATOM     17  C   UNL     1      -1.355  11.069  19.073  0.00  0.00    +0.000 A 
ATOM     18  C   UNL     1      -1.402  10.397  17.865  0.00  0.00    +0.000 A 
ATOM     19  C   UNL     1      -2.581  10.472  17.153  0.00  0.00    +0.000 A 
ATOM     20  C   UNL     1      -2.719   9.821  15.812  0.00  0.00    +0.000 C 
ATOM     21  N   UNL     1      -3.657  11.145  17.613  0.00  0.00    +0.000 NA
ATOM     22  C   UNL     1      -3.537  11.745  18.811  0.00  0.00    +0.000 A 
ATOM     23  C   UNL     1      -4.728  12.481  19.340  0.00  0.00    +0.000 C 
ATOM     24  N   UNL     1      -2.424  11.737  19.569  0.00  0.00    +0.000 NA
ENDBRANCH  16  17
ENDBRANCH   3  16
TORSDOF 3
ENDMDL
MODEL 6
REMARK VINA RESULT:      -7.7      0.631      1.756
REMARK  Name = 
REMARK  6 active torsions:
REMARK  status: ('A' for Active; 'I' for Inactive)
REMARK    1  A    between atoms: C_1  and  C_2
REMARK    2  A    between atoms: C_10  and  C_11
REMARK    3  A    between atoms: N_13  and  C_14
REMARK    4  A    between atoms: C_14  and  C_15
REMARK    5  A    between atoms: C_17  and  C_18
REMARK    6  A    between atoms: C_20  and  C_21
REMARK                            x       y       z     vdW  Elec       q    Type
REMARK                         _______ _______ _______ _____ _____    ______ ____
ROOT
ATOM      1  C   UNL     1       0.310  10.247  20.111  0.00  0.00    +0.000 C 
ATOM      2  O   UNL     1       0.051  10.478  21.291  0.00  0.00    +0.000 OA
ATOM      3  N   UNL     1      -0.460  10.728  19.075  0.00  0.00    +0.000 N 
ATOM      4  H   UNL     1      -0.043  10.701  18.149  0.00  0.00    +0.000 HD
ENDROOT
BRANCH   1  14
ATOM      5  C   UNL     1       3.965   3.489  18.281  0.00  0.00    +0.000 C 
ATOM      6  C   UNL     1       3.302   4.720  18.826  0.00  0.00    +0.000 A 
ATOM      7  C   UNL     1       2.677   4.705  20.076  0.00  0.00    +0.000 A 
ATOM      8  C   UNL     1       2.038   5.848  20.558  0.00  0.00    +0.000 A 
ATOM      9  C   UNL     1       2.016   7.015  19.796  0.00  0.00    +0.000 A 
ATOM     10  C   UNL     1       2.635   7.050  18.544  0.00  0.00    +0.000 A 
ATOM     11  C   UNL     1       3.288   5.901  18.072  0.00  0.00    +0.000 A 
ATOM     12  C   UNL     1       2.622   8.302  17.721  0.00  0.00    +0.000 C 
ATOM     13  C   UNL     1       1.462   9.188  18.143  0.00  0.00    +0.000 C 
ATOM     14  C   UNL     1       1.458   9.322  19.663  0.00  0.00    +0.000 C 
ATOM     15  O   UNL     1       1.319   8.062  20.333  0.00  0.00    +0.000 OA
ENDBRANCH   1  14
BRANCH   3  16
ATOM     16  C   UNL     1      -1.567  11.633  19.291  0.00  0.00    +0.000 C 
BRANCH  16  17
ATOM     17  C   UNL     1      -2.666  11.473  18.267  0.00  0.00    +0.000 A 
ATOM     18  C   UNL     1      -3.972  11.793  18.590  0.00  0.00    +0.000 A 
ATOM     19  C   UNL     1      -4.928  11.577  17.618  0.00  0.00    +0.000 A 
ATOM     20  C   UNL     1      -6.377  11.845  17.882  0.00  0.00    +0.000 C 
ATOM     21  N   UNL     1      -4.613  11.101  16.395  0.00  0.00    +0.000 NA
ATOM     22  C   UNL     1      -3.315  10.843  16.153  0.00  0.00    +0.000 A 
ATOM     23  C   UNL     1      -2.951  10.329  14.795  0.00  0.00    +0.000 C 
ATOM     24  N   UNL     1      -2.318  11.010  17.042  0.00  0.00    +0.000 NA
ENDBRANCH  16  17
ENDBRANCH   3  16
TORSDOF 3
ENDMDL
MODEL 7
REMARK VINA RESULT:      -7.6      4.184      8.519
REMARK  Name = 
REMARK  6 active torsions:
REMARK  status: ('A' for Active; 'I' for Inactive)
REMARK    1  A    between atoms: C_1  and  C_2
REMARK    2  A    between atoms: C_10  and  C_11
REMARK    3  A    between atoms: N_13  and  C_14
REMARK    4  A    between atoms: C_14  and  C_15
REMARK    5  A    between atoms: C_17  and  C_18
REMARK    6  A    between atoms: C_20  and  C_21
REMARK                            x       y       z     vdW  Elec       q    Type
REMARK                         _______ _______ _______ _____ _____    ______ ____
ROOT
ATOM      1  C   UNL     1       2.585   6.176  19.279  0.00  0.00    +0.000 C 
ATOM      2  O   UNL     1       3.237   5.732  20.223  0.00  0.00    +0.000 OA
ATOM      3  N   UNL     1       2.774   5.749  17.982  0.00  0.00    +0.000 N 
ATOM      4  H   UNL     1       2.041   5.979  17.318  0.00  0.00    +0.000 HD
ENDROOT
BRANCH   1  14
ATOM      5  C   UNL     1      -0.966  12.450  22.503  0.00  0.00    +0.000 C 
ATOM      6  C   UNL     1      -0.394  11.147  22.030  0.00  0.00    +0.000 A 
ATOM      7  C   UNL     1      -0.239  10.070  22.909  0.00  0.00    +0.000 A 
ATOM      8  C   UNL     1       0.322   8.873  22.464  0.00  0.00    +0.000 A 
ATOM      9  C   UNL     1       0.735   8.739  21.139  0.00  0.00    +0.000 A 
ATOM     10  C   UNL     1       0.589   9.803  20.246  0.00  0.00    +0.000 A 
ATOM     11  C   UNL     1       0.010  11.000  20.696  0.00  0.00    +0.000 A 
ATOM     12  C   UNL     1       1.024   9.667  18.818  0.00  0.00    +0.000 C 
ATOM     13  C   UNL     1       2.062   8.565  18.696  0.00  0.00    +0.000 C 
ATOM     14  C   UNL     1       1.562   7.319  19.422  0.00  0.00    +0.000 C 
ATOM     15  O   UNL     1       1.321   7.546  20.817  0.00  0.00    +0.000 OA
ENDBRANCH   1  14
BRANCH   3  16
ATOM     16  C   UNL     1       3.673   4.667  17.649  0.00  0.00    +0.000 C 
BRANCH  16  17
ATOM     17  C   UNL     1       4.970   5.147  17.040  0.00  0.00    +0.000 A 
ATOM     18  C   UNL     1       5.741   6.089  17.695  0.00  0.00    +0.000 A 
ATOM     19  C   UNL     1       6.889   6.512  17.056  0.00  0.00    +0.000 A 
ATOM     20  C   UNL     1       7.768   7.564  17.658  0.00  0.00    +0.000 C 
ATOM     21  N   UNL     1       7.267   6.019  15.858  0.00  0.00    +0.000 NA
ATOM     22  C   UNL     1       6.474   5.085  15.303  0.00  0.00    +0.000 A 
ATOM     23  C   UNL     1       6.891   4.519  13.981  0.00  0.00    +0.000 C 
ATOM     24  N   UNL     1       5.333   4.621  15.845  0.00  0.00    +0.000 NA
ENDBRANCH  16  17
ENDBRANCH   3  16
TORSDOF 3
ENDMDL
MODEL 8
REMARK VINA RESULT:      -7.6      2.889      5.015
REMARK  Name = 
REMARK  6 active torsions:
REMARK  status: ('A' for Active; 'I' for Inactive)
REMARK    1  A    between atoms: C_1  and  C_2
REMARK    2  A    between atoms: C_10  and  C_11
REMARK    3  A    between atoms: N_13  and  C_14
REMARK    4  A    between atoms: C_14  and  C_15
REMARK    5  A    between atoms: C_17  and  C_18
REMARK    6  A    between atoms: C_20  and  C_21
REMARK                            x       y       z     vdW  Elec       q    Type
REMARK                         _______ _______ _______ _____ _____    ______ ____
ROOT
ATOM      1  C   UNL     1       2.048   5.970  20.246  0.00  0.00    +0.000 C 
ATOM      2  O   UNL     1       1.785   5.275  21.227  0.00  0.00    +0.000 OA
ATOM      3  N   UNL     1       1.923   7.343  20.256  0.00  0.00    +0.000 N 
ATOM      4  H   UNL     1       2.388   7.845  19.505  0.00  0.00    +0.000 HD
ENDROOT
BRANCH   1  14
ATOM      5  C   UNL     1       6.668   4.390  14.040  0.00  0.00    +0.000 C 
ATOM      6  C   UNL     1       5.764   4.876  15.134  0.00  0.00    +0.000 A 
ATOM      7  C   UNL     1       5.693   6.235  15.455  0.00  0.00    +0.000 A 
ATOM      8  C   UNL     1       4.870   6.671  16.494  0.00  0.00    +0.000 A 
ATOM      9  C   UNL     1       4.113   5.755  17.223  0.00  0.00    +0.000 A 
ATOM     10  C   UNL     1       4.171   4.393  16.918  0.00  0.00    +0.000 A 
ATOM     11  C   UNL     1       4.989   3.963  15.862  0.00  0.00    +0.000 A 
ATOM     12  C   UNL     1       3.357   3.402  17.693  0.00  0.00    +0.000 C 
ATOM     13  C   UNL     1       3.002   3.974  19.054  0.00  0.00    +0.000 C 
ATOM     14  C   UNL     1       2.448   5.385  18.879  0.00  0.00    +0.000 C 
ATOM     15  O   UNL     1       3.383   6.276  18.255  0.00  0.00    +0.000 OA
ENDBRANCH   1  14
BRANCH   3  16
ATOM     16  C   UNL     1       1.581   8.079  21.452  0.00  0.00    +0.000 C 
BRANCH  16  17
ATOM     17  C   UNL     1       0.647   9.236  21.184  0.00  0.00    +0.000 A 
ATOM     18  C   UNL     1       0.156   9.993  22.232  0.00  0.00    +0.000 A 
ATOM     19  C   UNL     1      -0.727  11.004  21.912  0.00  0.00    +0.000 A 
ATOM     20  C   UNL     1      -1.353  11.851  22.977  0.00  0.00    +0.000 C 
ATOM     21  N   UNL     1      -1.085  11.270  20.639  0.00  0.00    +0.000 NA
ATOM     22  C   UNL     1      -0.539  10.504  19.677  0.00  0.00    +0.000 A 
ATOM     23  C   UNL     1      -0.915  10.798  18.258  0.00  0.00    +0.000 C 
ATOM     24  N   UNL     1       0.320   9.490  19.895  0.00  0.00    +0.000 NA
ENDBRANCH  16  17
ENDBRANCH   3  16
TORSDOF 3
ENDMDL
MODEL 9
REMARK VINA RESULT:      -7.6      4.888      9.087
REMARK  Name = 
REMARK  6 active torsions:
REMARK  status: ('A' for Active; 'I' for Inactive)
REMARK    1  A    between atoms: C_1  and  C_2
REMARK    2  A    between atoms: C_10  and  C_11
REMARK    3  A    between atoms: N_13  and  C_14
REMARK    4  A    between atoms: C_14  and  C_15
REMARK    5  A    between atoms: C_17  and  C_18
REMARK    6  A    between atoms: C_20  and  C_21
REMARK                            x       y       z     vdW  Elec       q    Type
REMARK                         _______ _______ _______ _____ _____    ______ ____
ROOT
ATOM      1  C   UNL     1       4.500   5.706  18.087  0.00  0.00    +0.000 C 
ATOM      2  O   UNL     1       5.218   5.460  19.056  0.00  0.00    +0.000 OA
ATOM      3  N   UNL     1       4.818   5.301  16.808  0.00  0.00    +0.000 N 
ATOM      4  H   UNL     1       4.067   5.327  16.125  0.00  0.00    +0.000 HD
ENDROOT
BRANCH   1  14
ATOM      5  C   UNL     1      -0.654  10.842  21.156  0.00  0.00    +0.000 C 
ATOM      6  C   UNL     1       0.243   9.728  20.703  0.00  0.00    +0.000 A 
ATOM      7  C   UNL     1       0.592   8.690  21.571  0.00  0.00    +0.000 A 
ATOM      8  C   UNL     1       1.451   7.675  21.146  0.00  0.00    +0.000 A 
ATOM      9  C   UNL     1       1.971   7.690  19.853  0.00  0.00    +0.000 A 
ATOM     10  C   UNL     1       1.634   8.719  18.971  0.00  0.00    +0.000 A 
ATOM     11  C   UNL     1       0.758   9.728  19.399  0.00  0.00    +0.000 A 
ATOM     12  C   UNL     1       2.184   8.740  17.577  0.00  0.00    +0.000 C 
ATOM     13  C   UNL     1       3.461   7.921  17.511  0.00  0.00    +0.000 C 
ATOM     14  C   UNL     1       3.226   6.568  18.175  0.00  0.00    +0.000 C 
ATOM     15  O   UNL     1       2.846   6.682  19.553  0.00  0.00    +0.000 OA
ENDBRANCH   1  14
BRANCH   3  16
ATOM     16  C   UNL     1       5.962   4.463  16.525  0.00  0.00    +0.000 C 
BRANCH  16  17
ATOM     17  C   UNL     1       6.319   4.432  15.057  0.00  0.00    +0.000 A 
ATOM     18  C   UNL     1       5.610   3.630  14.183  0.00  0.00    +0.000 A 
ATOM     19  C   UNL     1       6.024   3.620  12.867  0.00  0.00    +0.000 A 
ATOM     20  C   UNL     1       5.353   2.748  11.850  0.00  0.00    +0.000 C 
ATOM     21  N   UNL     1       7.056   4.374  12.433  0.00  0.00    +0.000 NA
ATOM     22  C   UNL     1       7.673   5.148  13.343  0.00  0.00    +0.000 A 
ATOM     23  C   UNL     1       8.809   6.001  12.871  0.00  0.00    +0.000 C 
ATOM     24  N   UNL     1       7.347   5.213  14.647  0.00  0.00    +0.000 NA
ENDBRANCH  16  17
ENDBRANCH   3  16
TORSDOF 3
ENDMDL
