MODEL 1
REMARK VINA RESULT:      -7.8      0.000      0.000
REMARK  Name = 
REMARK  2 active torsions:
REMARK  status: ('A' for Active; 'I' for Inactive)
REMARK    1  A    between atoms: N_3  and  C_4
REMARK    2  A    between atoms: N_16  and  C_17
REMARK                            x       y       z     vdW  Elec       q    Type
REMARK                         _______ _______ _______ _____ _____    ______ ____
ROOT
ATOM      1  O   UNL     1       0.200   9.655  23.833  0.00  0.00    +0.000 OA
ATOM      2  C   UNL     1       0.299   9.841  22.622  0.00  0.00    +0.000 C 
ATOM      3  N   UNL     1      -0.226  10.890  21.912  0.00  0.00    +0.000 N 
ATOM      4  N   UNL     1       0.961   8.893  21.878  0.00  0.00    +0.000 N 
ATOM      5  C   UNL     1       1.306   8.855  20.538  0.00  0.00    +0.000 A 
ATOM      6  N   UNL     1       1.040   9.833  19.725  0.00  0.00    +0.000 NA
ATOM      7  C   UNL     1       1.429   9.642  18.426  0.00  0.00    +0.000 A 
ATOM      8  C   UNL     1       1.967   8.518  17.944  0.00  0.00    +0.000 A 
ATOM      9  N   UNL     1       2.233   7.435  18.762  0.00  0.00    +0.000 N 
ATOM     10  C   UNL     1       1.986   7.543  20.133  0.00  0.00    +0.000 A 
ATOM     11  O   UNL     1       2.171   6.708  21.014  0.00  0.00    +0.000 OA
ATOM     12  H   UNL     1      -0.145  10.807  20.902  0.00  0.00    +0.000 HD
ATOM     13  H   UNL     1       1.245   8.088  22.429  0.00  0.00    +0.000 HD
ENDROOT
BRANCH   3  14
ATOM     14  C   UNL     1      -0.989  11.957  22.422  0.00  0.00    +0.000 A 
ATOM     15  C   UNL     1      -0.548  13.284  22.405  0.00  0.00    +0.000 A 
ATOM     16  C   UNL     1      -1.326  14.298  22.970  0.00  0.00    +0.000 A 
ATOM     17  C   UNL     1      -2.546  13.981  23.551  0.00  0.00    +0.000 A 
ATOM     18  F   UNL     1      -3.278  14.950  24.115  0.00  0.00    +0.000 F 
ATOM     19  C   UNL     1      -3.013  12.673  23.555  0.00  0.00    +0.000 A 
ATOM     20  C   UNL     1      -2.241  11.661  22.976  0.00  0.00    +0.000 A 
ENDBRANCH   3  14
BRANCH   9  21
ATOM     21  C   UNL     1       2.691   6.196  18.227  0.00  0.00    +0.000 A 
ATOM     22  C   UNL     1       4.034   6.073  17.834  0.00  0.00    +0.000 A 
ATOM     23  C   UNL     1       4.501   4.884  17.276  0.00  0.00    +0.000 A 
ATOM     24  C   UNL     1       3.636   3.804  17.148  0.00  0.00    +0.000 A 
ATOM     25  F   UNL     1       4.088   2.658  16.627  0.00  0.00    +0.000 F 
ATOM     26  C   UNL     1       2.306   3.901  17.545  0.00  0.00    +0.000 A 
ATOM     27  C   UNL     1       1.827   5.106  18.067  0.00  0.00    +0.000 A 
ENDBRANCH   9  21
TORSDOF 2
ENDMDL
MODEL 2
REMARK VINA RESULT:      -7.7      0.274      1.001
REMARK  Name = 
REMARK  2 active torsions:
REMARK  status: ('A' for Active; 'I' for Inactive)
REMARK    1  A    between atoms: N_3  and  C_4
REMARK    2  A    between atoms: N_16  and  C_17
REMARK                            x       y       z     vdW  Elec       q    Type
REMARK                         _______ _______ _______ _____ _____    ______ ____
ROOT
ATOM      1  O   UNL     1       0.250   9.647  23.779  0.00  0.00    +0.000 OA
ATOM      2  C   UNL     1       0.351   9.797  22.563  0.00  0.00    +0.000 C 
ATOM      3  N   UNL     1      -0.164  10.829  21.823  0.00  0.00    +0.000 N 
ATOM      4  N   UNL     1       1.006   8.822  21.848  0.00  0.00    +0.000 N 
ATOM      5  C   UNL     1       1.351   8.742  20.510  0.00  0.00    +0.000 A 
ATOM      6  N   UNL     1       1.094   9.698  19.669  0.00  0.00    +0.000 NA
ATOM      7  C   UNL     1       1.482   9.467  18.376  0.00  0.00    +0.000 A 
ATOM      8  C   UNL     1       2.011   8.324  17.927  0.00  0.00    +0.000 A 
ATOM      9  N   UNL     1       2.268   7.263  18.776  0.00  0.00    +0.000 N 
ATOM     10  C   UNL     1       2.021   7.413  20.144  0.00  0.00    +0.000 A 
ATOM     11  O   UNL     1       2.199   6.603  21.048  0.00  0.00    +0.000 OA
ATOM     12  H   UNL     1      -0.084  10.715  20.815  0.00  0.00    +0.000 HD
ATOM     13  H   UNL     1       1.283   8.030  22.422  0.00  0.00    +0.000 HD
ENDROOT
BRANCH   3  14
ATOM     14  C   UNL     1      -0.919  11.916  22.301  0.00  0.00    +0.000 A 
ATOM     15  C   UNL     1      -2.173  11.766  22.901  0.00  0.00    +0.000 A 
ATOM     16  C   UNL     1      -2.902  12.885  23.313  0.00  0.00    +0.000 A 
ATOM     17  C   UNL     1      -2.371  14.154  23.125  0.00  0.00    +0.000 A 
ATOM     18  F   UNL     1      -3.082  15.227  23.496  0.00  0.00    +0.000 F 
ATOM     19  C   UNL     1      -1.116  14.323  22.554  0.00  0.00    +0.000 A 
ATOM     20  C   UNL     1      -0.381  13.202  22.156  0.00  0.00    +0.000 A 
ENDBRANCH   3  14
BRANCH   9  21
ATOM     21  C   UNL     1       2.716   6.005  18.278  0.00  0.00    +0.000 A 
ATOM     22  C   UNL     1       4.081   5.827  17.994  0.00  0.00    +0.000 A 
ATOM     23  C   UNL     1       4.541   4.618  17.473  0.00  0.00    +0.000 A 
ATOM     24  C   UNL     1       3.645   3.575  17.275  0.00  0.00    +0.000 A 
ATOM     25  F   UNL     1       4.090   2.410  16.790  0.00  0.00    +0.000 F 
ATOM     26  C   UNL     1       2.293   3.727  17.564  0.00  0.00    +0.000 A 
ATOM     27  C   UNL     1       1.823   4.951  18.047  0.00  0.00    +0.000 A 
ENDBRANCH   9  21
TORSDOF 2
ENDMDL
MODEL 3
REMARK VINA RESULT:      -7.7      1.602      9.415
REMARK  Name = 
REMARK  2 active torsions:
REMARK  status: ('A' for Active; 'I' for Inactive)
REMARK    1  A    between atoms: N_3  and  C_4
REMARK    2  A    between atoms: N_16  and  C_17
REMARK                            x       y       z     vdW  Elec       q    Type
REMARK                         _______ _______ _______ _____ _____    ______ ____
ROOT
ATOM      1  O   UNL     1       3.511   5.325  20.074  0.00  0.00    +0.000 OA
ATOM      2  C   UNL     1       3.088   6.271  19.412  0.00  0.00    +0.000 C 
ATOM      3  N   UNL     1       3.329   6.509  18.084  0.00  0.00    +0.000 N 
ATOM      4  N   UNL     1       2.331   7.220  20.058  0.00  0.00    +0.000 N 
ATOM      5  C   UNL     1       1.655   8.331  19.585  0.00  0.00    +0.000 A 
ATOM      6  N   UNL     1       1.626   8.641  18.324  0.00  0.00    +0.000 NA
ATOM      7  C   UNL     1       0.930   9.778  18.012  0.00  0.00    +0.000 A 
ATOM      8  C   UNL     1       0.374  10.606  18.902  0.00  0.00    +0.000 A 
ATOM      9  N   UNL     1       0.412  10.339  20.259  0.00  0.00    +0.000 N 
ATOM     10  C   UNL     1       0.997   9.149  20.701  0.00  0.00    +0.000 A 
ATOM     11  O   UNL     1       1.110   8.732  21.850  0.00  0.00    +0.000 OA
ATOM     12  H   UNL     1       2.996   7.407  17.743  0.00  0.00    +0.000 HD
ATOM     13  H   UNL     1       2.262   7.055  21.058  0.00  0.00    +0.000 HD
ENDROOT
BRANCH   3  14
ATOM     14  C   UNL     1       4.113   5.728  17.215  0.00  0.00    +0.000 A 
ATOM     15  C   UNL     1       4.037   4.332  17.168  0.00  0.00    +0.000 A 
ATOM     16  C   UNL     1       4.876   3.604  16.320  0.00  0.00    +0.000 A 
ATOM     17  C   UNL     1       5.789   4.275  15.519  0.00  0.00    +0.000 A 
ATOM     18  F   UNL     1       6.610   3.574  14.727  0.00  0.00    +0.000 F 
ATOM     19  C   UNL     1       5.862   5.662  15.532  0.00  0.00    +0.000 A 
ATOM     20  C   UNL     1       5.012   6.391  16.369  0.00  0.00    +0.000 A 
ENDBRANCH   3  14
BRANCH   9  21
ATOM     21  C   UNL     1      -0.071  11.281  21.214  0.00  0.00    +0.000 A 
ATOM     22  C   UNL     1      -0.987  10.857  22.191  0.00  0.00    +0.000 A 
ATOM     23  C   UNL     1      -1.502  11.764  23.116  0.00  0.00    +0.000 A 
ATOM     24  C   UNL     1      -1.071  13.085  23.090  0.00  0.00    +0.000 A 
ATOM     25  F   UNL     1      -1.554  13.952  23.988  0.00  0.00    +0.000 F 
ATOM     26  C   UNL     1      -0.154  13.520  22.139  0.00  0.00    +0.000 A 
ATOM     27  C   UNL     1       0.332  12.622  21.186  0.00  0.00    +0.000 A 
ENDBRANCH   9  21
TORSDOF 2
ENDMDL
MODEL 4
REMARK VINA RESULT:      -7.7      1.653      9.356
REMARK  Name = 
REMARK  2 active torsions:
REMARK  status: ('A' for Active; 'I' for Inactive)
REMARK    1  A    between atoms: N_3  and  C_4
REMARK    2  A    between atoms: N_16  and  C_17
REMARK                            x       y       z     vdW  Elec       q    Type
REMARK                         _______ _______ _______ _____ _____    ______ ____
ROOT
ATOM      1  O   UNL     1       3.719   5.220  19.965  0.00  0.00    +0.000 OA
ATOM      2  C   UNL     1       3.274   6.164  19.316  0.00  0.00    +0.000 C 
ATOM      3  N   UNL     1       3.526   6.438  17.997  0.00  0.00    +0.000 N 
ATOM      4  N   UNL     1       2.476   7.073  19.970  0.00  0.00    +0.000 N 
ATOM      5  C   UNL     1       1.769   8.171  19.509  0.00  0.00    +0.000 A 
ATOM      6  N   UNL     1       1.748   8.506  18.255  0.00  0.00    +0.000 NA
ATOM      7  C   UNL     1       1.018   9.625  17.955  0.00  0.00    +0.000 A 
ATOM      8  C   UNL     1       0.421  10.415  18.854  0.00  0.00    +0.000 A 
ATOM      9  N   UNL     1       0.449  10.121  20.206  0.00  0.00    +0.000 N 
ATOM     10  C   UNL     1       1.067   8.943  20.632  0.00  0.00    +0.000 A 
ATOM     11  O   UNL     1       1.178   8.505  21.773  0.00  0.00    +0.000 OA
ATOM     12  H   UNL     1       3.168   7.332  17.670  0.00  0.00    +0.000 HD
ATOM     13  H   UNL     1       2.397   6.885  20.965  0.00  0.00    +0.000 HD
ENDROOT
BRANCH   3  14
ATOM     14  C   UNL     1       4.349   5.703  17.124  0.00  0.00    +0.000 A 
ATOM     15  C   UNL     1       5.342   6.295  16.336  0.00  0.00    +0.000 A 
ATOM     16  C   UNL     1       6.098   5.524  15.449  0.00  0.00    +0.000 A 
ATOM     17  C   UNL     1       5.859   4.160  15.355  0.00  0.00    +0.000 A 
ATOM     18  F   UNL     1       6.566   3.426  14.485  0.00  0.00    +0.000 F 
ATOM     19  C   UNL     1       4.896   3.549  16.147  0.00  0.00    +0.000 A 
ATOM     20  C   UNL     1       4.150   4.318  17.045  0.00  0.00    +0.000 A 
ENDBRANCH   3  14
BRANCH   9  21
ATOM     21  C   UNL     1      -0.081  11.026  21.172  0.00  0.00    +0.000 A 
ATOM     22  C   UNL     1       0.228  12.393  21.072  0.00  0.00    +0.000 A 
ATOM     23  C   UNL     1      -0.249  13.295  22.022  0.00  0.00    +0.000 A 
ATOM     24  C   UNL     1      -1.066  12.838  23.047  0.00  0.00    +0.000 A 
ATOM     25  F   UNL     1      -1.536  13.707  23.950  0.00  0.00    +0.000 F 
ATOM     26  C   UNL     1      -1.396  11.490  23.154  0.00  0.00    +0.000 A 
ATOM     27  C   UNL     1      -0.885  10.579  22.227  0.00  0.00    +0.000 A 
ENDBRANCH   9  21
TORSDOF 2
ENDMDL
MODEL 5
REMARK VINA RESULT:      -7.7      1.560      9.342
REMARK  Name = 
REMARK  2 active torsions:
REMARK  status: ('A' for Active; 'I' for Inactive)
REMARK    1  A    between atoms: N_3  and  C_4
REMARK    2  A    between atoms: N_16  and  C_17
REMARK                            x       y       z     vdW  Elec       q    Type
REMARK                         _______ _______ _______ _____ _____    ______ ____
ROOT
ATOM      1  O   UNL     1       3.279   5.456  20.235  0.00  0.00    +0.000 OA
ATOM      2  C   UNL     1       2.895   6.411  19.564  0.00  0.00    +0.000 C 
ATOM      3  N   UNL     1       3.168   6.639  18.240  0.00  0.00    +0.000 N 
ATOM      4  N   UNL     1       2.152   7.382  20.193  0.00  0.00    +0.000 N 
ATOM      5  C   UNL     1       1.516   8.510  19.705  0.00  0.00    +0.000 A 
ATOM      6  N   UNL     1       1.520   8.817  18.443  0.00  0.00    +0.000 NA
ATOM      7  C   UNL     1       0.861   9.973  18.115  0.00  0.00    +0.000 A 
ATOM      8  C   UNL     1       0.311  10.817  18.993  0.00  0.00    +0.000 A 
ATOM      9  N   UNL     1       0.315  10.553  20.351  0.00  0.00    +0.000 N 
ATOM     10  C   UNL     1       0.858   9.348  20.806  0.00  0.00    +0.000 A 
ATOM     11  O   UNL     1       0.938   8.930  21.958  0.00  0.00    +0.000 OA
ATOM     12  H   UNL     1       2.867   7.546  17.891  0.00  0.00    +0.000 HD
ATOM     13  H   UNL     1       2.059   7.221  21.192  0.00  0.00    +0.000 HD
ENDROOT
BRANCH   3  14
ATOM     14  C   UNL     1       3.948   5.836  17.388  0.00  0.00    +0.000 A 
ATOM     15  C   UNL     1       3.788   4.449  17.291  0.00  0.00    +0.000 A 
ATOM     16  C   UNL     1       4.623   3.693  16.465  0.00  0.00    +0.000 A 
ATOM     17  C   UNL     1       5.618   4.328  15.735  0.00  0.00    +0.000 A 
ATOM     18  F   UNL     1       6.436   3.599  14.964  0.00  0.00    +0.000 F 
ATOM     19  C   UNL     1       5.778   5.707  15.797  0.00  0.00    +0.000 A 
ATOM     20  C   UNL     1       4.931   6.464  16.612  0.00  0.00    +0.000 A 
ENDBRANCH   3  14
BRANCH   9  21
ATOM     21  C   UNL     1      -0.161  11.509  21.294  0.00  0.00    +0.000 A 
ATOM     22  C   UNL     1       0.343  12.821  21.254  0.00  0.00    +0.000 A 
ATOM     23  C   UNL     1      -0.080  13.768  22.185  0.00  0.00    +0.000 A 
ATOM     24  C   UNL     1      -1.036  13.417  23.130  0.00  0.00    +0.000 A 
ATOM     25  F   UNL     1      -1.453  14.331  24.014  0.00  0.00    +0.000 F 
ATOM     26  C   UNL     1      -1.558  12.128  23.176  0.00  0.00    +0.000 A 
ATOM     27  C   UNL     1      -1.104  11.166  22.270  0.00  0.00    +0.000 A 
ENDBRANCH   9  21
TORSDOF 2
ENDMDL
MODEL 6
REMARK VINA RESULT:      -7.6      1.522      9.443
REMARK  Name = 
REMARK  2 active torsions:
REMARK  status: ('A' for Active; 'I' for Inactive)
REMARK    1  A    between atoms: N_3  and  C_4
REMARK    2  A    between atoms: N_16  and  C_17
REMARK                            x       y       z     vdW  Elec       q    Type
REMARK                         _______ _______ _______ _____ _____    ______ ____
ROOT
ATOM      1  O   UNL     1       2.080   9.579  17.313  0.00  0.00    +0.000 OA
ATOM      2  C   UNL     1       1.806   9.209  18.452  0.00  0.00    +0.000 C 
ATOM      3  N   UNL     1       2.050   7.972  18.989  0.00  0.00    +0.000 N 
ATOM      4  N   UNL     1       1.150  10.094  19.275  0.00  0.00    +0.000 N 
ATOM      5  C   UNL     1       0.787  10.011  20.608  0.00  0.00    +0.000 A 
ATOM      6  N   UNL     1       1.073   8.979  21.342  0.00  0.00    +0.000 NA
ATOM      7  C   UNL     1       0.633   9.036  22.638  0.00  0.00    +0.000 A 
ATOM      8  C   UNL     1      -0.121  10.014  23.149  0.00  0.00    +0.000 A 
ATOM      9  N   UNL     1      -0.485  11.116  22.395  0.00  0.00    +0.000 N 
ATOM     10  C   UNL     1      -0.005  11.233  21.088  0.00  0.00    +0.000 A 
ATOM     11  O   UNL     1      -0.200  12.134  20.278  0.00  0.00    +0.000 OA
ATOM     12  H   UNL     1       1.640   7.815  19.907  0.00  0.00    +0.000 HD
ATOM     13  H   UNL     1       0.902  10.960  18.804  0.00  0.00    +0.000 HD
ENDROOT
BRANCH   3  14
ATOM     14  C   UNL     1       2.652   6.875  18.345  0.00  0.00    +0.000 A 
ATOM     15  C   UNL     1       2.102   5.589  18.359  0.00  0.00    +0.000 A 
ATOM     16  C   UNL     1       2.768   4.526  17.744  0.00  0.00    +0.000 A 
ATOM     17  C   UNL     1       3.984   4.753  17.114  0.00  0.00    +0.000 A 
ATOM     18  F   UNL     1       4.634   3.728  16.548  0.00  0.00    +0.000 F 
ATOM     19  C   UNL     1       4.534   6.028  17.067  0.00  0.00    +0.000 A 
ATOM     20  C   UNL     1       3.860   7.094  17.669  0.00  0.00    +0.000 A 
ENDBRANCH   3  14
BRANCH   9  21
ATOM     21  C   UNL     1      -1.389  12.094  22.902  0.00  0.00    +0.000 A 
ATOM     22  C   UNL     1      -0.934  13.409  23.100  0.00  0.00    +0.000 A 
ATOM     23  C   UNL     1      -1.787  14.379  23.626  0.00  0.00    +0.000 A 
ATOM     24  C   UNL     1      -3.104  14.046  23.915  0.00  0.00    +0.000 A 
ATOM     25  F   UNL     1      -3.927  14.981  24.405  0.00  0.00    +0.000 F 
ATOM     26  C   UNL     1      -3.577  12.753  23.711  0.00  0.00    +0.000 A 
ATOM     27  C   UNL     1      -2.713  11.770  23.223  0.00  0.00    +0.000 A 
ENDBRANCH   9  21
TORSDOF 2
ENDMDL
MODEL 7
REMARK VINA RESULT:      -7.6      1.492      9.327
REMARK  Name = 
REMARK  2 active torsions:
REMARK  status: ('A' for Active; 'I' for Inactive)
REMARK    1  A    between atoms: N_3  and  C_4
REMARK    2  A    between atoms: N_16  and  C_17
REMARK                            x       y       z     vdW  Elec       q    Type
REMARK                         _______ _______ _______ _____ _____    ______ ____
ROOT
ATOM      1  O   UNL     1       3.059   5.435  20.303  0.00  0.00    +0.000 OA
ATOM      2  C   UNL     1       2.773   6.435  19.647  0.00  0.00    +0.000 C 
ATOM      3  N   UNL     1       3.156   6.701  18.358  0.00  0.00    +0.000 N 
ATOM      4  N   UNL     1       2.033   7.417  20.261  0.00  0.00    +0.000 N 
ATOM      5  C   UNL     1       1.491   8.595  19.777  0.00  0.00    +0.000 A 
ATOM      6  N   UNL     1       1.605   8.951  18.533  0.00  0.00    +0.000 NA
ATOM      7  C   UNL     1       1.030  10.152  18.209  0.00  0.00    +0.000 A 
ATOM      8  C   UNL     1       0.457  10.988  19.080  0.00  0.00    +0.000 A 
ATOM      9  N   UNL     1       0.346  10.670  20.422  0.00  0.00    +0.000 N 
ATOM     10  C   UNL     1       0.794   9.422  20.863  0.00  0.00    +0.000 A 
ATOM     11  O   UNL     1       0.766   8.955  21.998  0.00  0.00    +0.000 OA
ATOM     12  H   UNL     1       2.927   7.635  18.027  0.00  0.00    +0.000 HD
ATOM     13  H   UNL     1       1.857   7.222  21.243  0.00  0.00    +0.000 HD
ENDROOT
BRANCH   3  14
ATOM     14  C   UNL     1       3.959   5.893  17.531  0.00  0.00    +0.000 A 
ATOM     15  C   UNL     1       5.014   6.399  16.765  0.00  0.00    +0.000 A 
ATOM     16  C   UNL     1       5.747   5.559  15.923  0.00  0.00    +0.000 A 
ATOM     17  C   UNL     1       5.422   4.211  15.851  0.00  0.00    +0.000 A 
ATOM     18  F   UNL     1       6.108   3.412  15.023  0.00  0.00    +0.000 F 
ATOM     19  C   UNL     1       4.394   3.684  16.622  0.00  0.00    +0.000 A 
ATOM     20  C   UNL     1       3.672   4.522  17.476  0.00  0.00    +0.000 A 
ENDBRANCH   3  14
BRANCH   9  21
ATOM     21  C   UNL     1      -0.153  11.612  21.368  0.00  0.00    +0.000 A 
ATOM     22  C   UNL     1      -1.120  11.199  22.301  0.00  0.00    +0.000 A 
ATOM     23  C   UNL     1      -1.650  12.107  23.216  0.00  0.00    +0.000 A 
ATOM     24  C   UNL     1      -1.186  13.417  23.226  0.00  0.00    +0.000 A 
ATOM     25  F   UNL     1      -1.684  14.285  24.114  0.00  0.00    +0.000 F 
ATOM     26  C   UNL     1      -0.218  13.840  22.320  0.00  0.00    +0.000 A 
ATOM     27  C   UNL     1       0.284  12.942  21.375  0.00  0.00    +0.000 A 
ENDBRANCH   9  21
TORSDOF 2
ENDMDL
MODEL 8
REMARK VINA RESULT:      -7.6      1.460      9.476
REMARK  Name = 
REMARK  2 active torsions:
REMARK  status: ('A' for Active; 'I' for Inactive)
REMARK    1  A    between atoms: N_3  and  C_4
REMARK    2  A    between atoms: N_16  and  C_17
REMARK                            x       y       z     vdW  Elec       q    Type
REMARK                         _______ _______ _______ _____ _____    ______ ____
ROOT
ATOM      1  O   UNL     1       2.066   9.293  17.196  0.00  0.00    +0.000 OA
ATOM      2  C   UNL     1       1.820   8.970  18.356  0.00  0.00    +0.000 C 
ATOM      3  N   UNL     1       2.072   7.753  18.934  0.00  0.00    +0.000 N 
ATOM      4  N   UNL     1       1.191   9.890  19.160  0.00  0.00    +0.000 N 
ATOM      5  C   UNL     1       0.862   9.861  20.505  0.00  0.00    +0.000 A 
ATOM      6  N   UNL     1       1.163   8.855  21.270  0.00  0.00    +0.000 NA
ATOM      7  C   UNL     1       0.757   8.965  22.574  0.00  0.00    +0.000 A 
ATOM      8  C   UNL     1       0.022   9.967  23.067  0.00  0.00    +0.000 A 
ATOM      9  N   UNL     1      -0.356  11.041  22.281  0.00  0.00    +0.000 N 
ATOM     10  C   UNL     1       0.091  11.105  20.958  0.00  0.00    +0.000 A 
ATOM     11  O   UNL     1      -0.121  11.975  20.119  0.00  0.00    +0.000 OA
ATOM     12  H   UNL     1       1.685   7.633  19.867  0.00  0.00    +0.000 HD
ATOM     13  H   UNL     1       0.936  10.739  18.663  0.00  0.00    +0.000 HD
ENDROOT
BRANCH   3  14
ATOM     14  C   UNL     1       2.651   6.628  18.317  0.00  0.00    +0.000 A 
ATOM     15  C   UNL     1       1.991   5.400  18.201  0.00  0.00    +0.000 A 
ATOM     16  C   UNL     1       2.632   4.302  17.622  0.00  0.00    +0.000 A 
ATOM     17  C   UNL     1       3.934   4.436  17.159  0.00  0.00    +0.000 A 
ATOM     18  F   UNL     1       4.556   3.375  16.629  0.00  0.00    +0.000 F 
ATOM     19  C   UNL     1       4.597   5.653  17.242  0.00  0.00    +0.000 A 
ATOM     20  C   UNL     1       3.949   6.756  17.807  0.00  0.00    +0.000 A 
ENDBRANCH   3  14
BRANCH   9  21
ATOM     21  C   UNL     1      -1.241  12.044  22.773  0.00  0.00    +0.000 A 
ATOM     22  C   UNL     1      -2.531  11.675  23.191  0.00  0.00    +0.000 A 
ATOM     23  C   UNL     1      -3.428  12.641  23.645  0.00  0.00    +0.000 A 
ATOM     24  C   UNL     1      -3.024  13.968  23.719  0.00  0.00    +0.000 A 
ATOM     25  F   UNL     1      -3.881  14.892  24.169  0.00  0.00    +0.000 F 
ATOM     26  C   UNL     1      -1.746  14.351  23.323  0.00  0.00    +0.000 A 
ATOM     27  C   UNL     1      -0.859  13.390  22.830  0.00  0.00    +0.000 A 
ENDBRANCH   9  21
TORSDOF 2
ENDMDL
MODEL 9
REMARK VINA RESULT:      -7.5      0.817      1.263
REMARK  Name = 
REMARK  2 active torsions:
REMARK  status: ('A' for Active; 'I' for Inactive)
REMARK    1  A    between atoms: N_3  and  C_4
REMARK    2  A    between atoms: N_16  and  C_17
REMARK                            x       y       z     vdW  Elec       q    Type
REMARK                         _______ _______ _______ _____ _____    ______ ____
ROOT
ATOM      1  O   UNL     1      -0.360  10.107  23.401  0.00  0.00    +0.000 OA
ATOM      2  C   UNL     1      -0.100  10.243  22.207  0.00  0.00    +0.000 C 
ATOM      3  N   UNL     1      -0.496  11.277  21.399  0.00  0.00    +0.000 N 
ATOM      4  N   UNL     1       0.621   9.249  21.589  0.00  0.00    +0.000 N 
ATOM      5  C   UNL     1       1.134   9.150  20.307  0.00  0.00    +0.000 A 
ATOM      6  N   UNL     1       1.006  10.102  19.433  0.00  0.00    +0.000 NA
ATOM      7  C   UNL     1       1.552   9.850  18.202  0.00  0.00    +0.000 A 
ATOM      8  C   UNL     1       2.112   8.693  17.834  0.00  0.00    +0.000 A 
ATOM      9  N   UNL     1       2.237   7.636  18.718  0.00  0.00    +0.000 N 
ATOM     10  C   UNL     1       1.819   7.805  20.040  0.00  0.00    +0.000 A 
ATOM     11  O   UNL     1       1.863   7.000  20.967  0.00  0.00    +0.000 OA
ATOM     12  H   UNL     1      -0.288  11.152  20.411  0.00  0.00    +0.000 HD
ATOM     13  H   UNL     1       0.807   8.459  22.200  0.00  0.00    +0.000 HD
ENDROOT
BRANCH   3  14
ATOM     14  C   UNL     1      -1.284  12.383  21.768  0.00  0.00    +0.000 A 
ATOM     15  C   UNL     1      -0.840  13.373  22.651  0.00  0.00    +0.000 A 
ATOM     16  C   UNL     1      -1.683  14.424  23.021  0.00  0.00    +0.000 A 
ATOM     17  C   UNL     1      -2.970  14.483  22.504  0.00  0.00    +0.000 A 
ATOM     18  F   UNL     1      -3.786  15.476  22.881  0.00  0.00    +0.000 F 
ATOM     19  C   UNL     1      -3.421  13.524  21.606  0.00  0.00    +0.000 A 
ATOM     20  C   UNL     1      -2.572  12.481  21.224  0.00  0.00    +0.000 A 
ENDBRANCH   3  14
BRANCH   9  21
ATOM     21  C   UNL     1       2.719   6.365  18.290  0.00  0.00    +0.000 A 
ATOM     22  C   UNL     1       1.802   5.327  18.058  0.00  0.00    +0.000 A 
ATOM     23  C   UNL     1       2.249   4.064  17.671  0.00  0.00    +0.000 A 
ATOM     24  C   UNL     1       3.608   3.850  17.477  0.00  0.00    +0.000 A 
ATOM     25  F   UNL     1       4.035   2.642  17.092  0.00  0.00    +0.000 F 
ATOM     26  C   UNL     1       4.530   4.871  17.688  0.00  0.00    +0.000 A 
ATOM     27  C   UNL     1       4.088   6.125  18.115  0.00  0.00    +0.000 A 
ENDBRANCH   9  21
TORSDOF 2
ENDMDL
