MODEL 1
REMARK VINA RESULT:      -7.7      0.000      0.000
REMARK  Name = 
REMARK  12 active torsions:
REMARK  status: ('A' for Active; 'I' for Inactive)
REMARK    1  A    between atoms: N_1  and  C_2
REMARK    2  A    between atoms: N_10  and  C_11
REMARK    3  A    between atoms: C_13  and  C_14
REMARK    4  A    between atoms: C_14  and  S_15
REMARK    5  A    between atoms: S_15  and  C_16
REMARK    6  A    between atoms: C_16  and  C_17
REMARK    7  A    between atoms: C_17  and  C_18
REMARK    8  A    between atoms: C_18  and  N_19
REMARK    9  A    between atoms: N_19  and  C_20
REMARK   10  A    between atoms: C_20  and  C_21
REMARK   11  A    between atoms: C_31  and  O_32
REMARK   12  A    between atoms: C_33  and  O_34
REMARK                            x       y       z     vdW  Elec       q    Type
REMARK                         _______ _______ _______ _____ _____    ______ ____
ROOT
ATOM      1  C   UNL     1       4.614   3.391  17.606  0.00  0.00    +0.000 C 
ATOM      2  O   UNL     1       3.421   3.227  16.822  0.00  0.00    +0.000 OA
ATOM      3  C   UNL     1       2.449   2.472  17.587  0.00  0.00    +0.000 C 
ATOM      4  C   UNL     1       3.194   1.941  18.813  0.00  0.00    +0.000 C 
ATOM      5  C   UNL     1       4.306   2.953  19.034  0.00  0.00    +0.000 C 
ENDROOT
BRANCH   1  14
ATOM      6  C   UNL     1       7.435   7.331  17.864  0.00  0.00    +0.000 A 
ATOM      7  N   UNL     1       8.289   6.828  18.789  0.00  0.00    +0.000 NA
ATOM      8  C   UNL     1       8.058   5.589  19.261  0.00  0.00    +0.000 A 
ATOM      9  N   UNL     1       7.062   4.737  18.941  0.00  0.00    +0.000 NA
ATOM     10  C   UNL     1       6.216   5.301  18.058  0.00  0.00    +0.000 A 
ATOM     11  C   UNL     1       6.322   6.560  17.491  0.00  0.00    +0.000 A 
ATOM     12  N   UNL     1       5.276   6.803  16.623  0.00  0.00    +0.000 NA
ATOM     13  C   UNL     1       4.563   5.695  16.647  0.00  0.00    +0.000 A 
ATOM     14  N   UNL     1       5.103   4.752  17.481  0.00  0.00    +0.000 N 
BRANCH   6  15
ATOM     15  N   UNL     1       7.700   8.586  17.329  0.00  0.00    +0.000 N 
ATOM     16  H   UNL     1       7.230   8.742  16.448  0.00  0.00    +0.000 HD
ATOM     17  H   UNL     1       8.672   8.863  17.411  0.00  0.00    +0.000 HD
ENDBRANCH   6  15
ENDBRANCH   1  14
BRANCH   4  18
ATOM     18  O   UNL     1       3.817   0.669  18.529  0.00  0.00    +0.000 OA
ATOM     19  H   UNL     1       3.355  -0.030  19.030  0.00  0.00    +0.000 HD
ENDBRANCH   4  18
BRANCH   5  20
ATOM     20  O   UNL     1       5.443   2.357  19.665  0.00  0.00    +0.000 OA
ATOM     21  H   UNL     1       5.140   2.066  20.552  0.00  0.00    +0.000 HD
ENDBRANCH   5  20
BRANCH   3  22
ATOM     22  C   UNL     1       1.230   3.347  17.927  0.00  0.00    +0.000 C 
BRANCH  22  23
ATOM     23  S   UNL     1       0.709   2.965  19.639  0.00  0.00    +0.000 S 
BRANCH  23  24
ATOM     24  C   UNL     1       1.155   4.512  20.482  0.00  0.00    +0.000 C 
BRANCH  24  25
ATOM     25  C   UNL     1       1.649   5.489  19.417  0.00  0.00    +0.000 C 
BRANCH  25  26
ATOM     26  C   UNL     1       2.903   6.233  19.874  0.00  0.00    +0.000 C 
BRANCH  26  27
ATOM     27  N   UNL     1       2.496   7.495  20.490  0.00  0.00    +0.000 NA
ATOM     28  H   UNL     1       3.311   8.106  20.545  0.00  0.00    +0.000 HD
BRANCH  27  29
ATOM     29  C   UNL     1       1.464   8.175  19.692  0.00  0.00    +0.000 C 
BRANCH  29  30
ATOM     30  C   UNL     1       0.441   8.893  20.606  0.00  0.00    +0.000 C 
ATOM     31  C   UNL     1       0.073  10.282  20.034  0.00  0.00    +0.000 C 
ATOM     32  C   UNL     1      -0.641  11.167  21.035  0.00  0.00    +0.000 A 
ATOM     33  C   UNL     1      -1.106  12.431  20.650  0.00  0.00    +0.000 A 
ATOM     34  C   UNL     1      -1.762  13.248  21.570  0.00  0.00    +0.000 A 
ATOM     35  C   UNL     1      -1.986  12.799  22.870  0.00  0.00    +0.000 A 
ATOM     36  C   UNL     1      -1.511  11.551  23.269  0.00  0.00    +0.000 A 
ATOM     37  C   UNL     1      -0.798  10.747  22.370  0.00  0.00    +0.000 A 
ATOM     38  C   UNL     1      -0.221   9.431  22.828  0.00  0.00    +0.000 C 
ATOM     39  N   UNL     1       0.920   9.018  22.002  0.00  0.00    +0.000 NA
ATOM     40  H   UNL     1       1.229   8.106  22.328  0.00  0.00    +0.000 HD
ENDBRANCH  29  30
ENDBRANCH  27  29
ENDBRANCH  26  27
ENDBRANCH  25  26
ENDBRANCH  24  25
ENDBRANCH  23  24
ENDBRANCH  22  23
ENDBRANCH   3  22
TORSDOF 12
ENDMDL
MODEL 2
REMARK VINA RESULT:      -7.6      3.132      4.309
REMARK  Name = 
REMARK  12 active torsions:
REMARK  status: ('A' for Active; 'I' for Inactive)
REMARK    1  A    between atoms: N_1  and  C_2
REMARK    2  A    between atoms: N_10  and  C_11
REMARK    3  A    between atoms: C_13  and  C_14
REMARK    4  A    between atoms: C_14  and  S_15
REMARK    5  A    between atoms: S_15  and  C_16
REMARK    6  A    between atoms: C_16  and  C_17
REMARK    7  A    between atoms: C_17  and  C_18
REMARK    8  A    between atoms: C_18  and  N_19
REMARK    9  A    between atoms: N_19  and  C_20
REMARK   10  A    between atoms: C_20  and  C_21
REMARK   11  A    between atoms: C_31  and  O_32
REMARK   12  A    between atoms: C_33  and  O_34
REMARK                            x       y       z     vdW  Elec       q    Type
REMARK                         _______ _______ _______ _____ _____    ______ ____
ROOT
ATOM      1  C   UNL     1       4.599   3.967  17.356  0.00  0.00    +0.000 C 
ATOM      2  O   UNL     1       3.427   4.734  17.032  0.00  0.00    +0.000 OA
ATOM      3  C   UNL     1       2.713   5.050  18.252  0.00  0.00    +0.000 C 
ATOM      4  C   UNL     1       3.366   4.214  19.354  0.00  0.00    +0.000 C 
ATOM      5  C   UNL     1       4.792   4.014  18.867  0.00  0.00    +0.000 C 
ENDROOT
BRANCH   1  14
ATOM      6  C   UNL     1       7.527   5.085  13.651  0.00  0.00    +0.000 A 
ATOM      7  N   UNL     1       6.898   4.303  12.739  0.00  0.00    +0.000 NA
ATOM      8  C   UNL     1       5.843   3.572  13.146  0.00  0.00    +0.000 A 
ATOM      9  N   UNL     1       5.296   3.495  14.377  0.00  0.00    +0.000 NA
ATOM     10  C   UNL     1       5.984   4.250  15.253  0.00  0.00    +0.000 A 
ATOM     11  C   UNL     1       7.084   5.046  14.983  0.00  0.00    +0.000 A 
ATOM     12  N   UNL     1       7.529   5.682  16.125  0.00  0.00    +0.000 NA
ATOM     13  C   UNL     1       6.693   5.294  17.066  0.00  0.00    +0.000 A 
ATOM     14  N   UNL     1       5.731   4.446  16.584  0.00  0.00    +0.000 N 
BRANCH   6  15
ATOM     15  N   UNL     1       8.579   5.886  13.225  0.00  0.00    +0.000 N 
ATOM     16  H   UNL     1       8.309   6.852  13.101  0.00  0.00    +0.000 HD
ATOM     17  H   UNL     1       9.154   5.453  12.511  0.00  0.00    +0.000 HD
ENDBRANCH   6  15
ENDBRANCH   1  14
BRANCH   4  18
ATOM     18  O   UNL     1       2.752   2.910  19.446  0.00  0.00    +0.000 OA
ATOM     19  H   UNL     1       1.782   3.013  19.420  0.00  0.00    +0.000 HD
ENDBRANCH   4  18
BRANCH   5  20
ATOM     20  O   UNL     1       5.354   2.799  19.371  0.00  0.00    +0.000 OA
ATOM     21  H   UNL     1       5.685   2.307  18.589  0.00  0.00    +0.000 HD
ENDBRANCH   5  20
BRANCH   3  22
ATOM     22  C   UNL     1       2.741   6.565  18.517  0.00  0.00    +0.000 C 
BRANCH  22  23
ATOM     23  S   UNL     1       2.213   6.855  20.245  0.00  0.00    +0.000 S 
BRANCH  23  24
ATOM     24  C   UNL     1       1.344   8.442  20.072  0.00  0.00    +0.000 C 
BRANCH  24  25
ATOM     25  C   UNL     1       0.509   8.648  21.335  0.00  0.00    +0.000 C 
BRANCH  25  26
ATOM     26  C   UNL     1       0.768  10.017  21.963  0.00  0.00    +0.000 C 
BRANCH  26  27
ATOM     27  N   UNL     1       0.701  11.030  20.910  0.00  0.00    +0.000 NA
ATOM     28  H   UNL     1       0.557  10.560  20.017  0.00  0.00    +0.000 HD
BRANCH  27  29
ATOM     29  C   UNL     1      -0.418  11.960  21.127  0.00  0.00    +0.000 C 
BRANCH  29  30
ATOM     30  C   UNL     1      -1.619  11.603  20.216  0.00  0.00    +0.000 C 
ATOM     31  C   UNL     1      -1.149  10.804  18.977  0.00  0.00    +0.000 C 
ATOM     32  C   UNL     1      -2.200  10.724  17.890  0.00  0.00    +0.000 A 
ATOM     33  C   UNL     1      -1.958   9.974  16.731  0.00  0.00    +0.000 A 
ATOM     34  C   UNL     1      -2.923   9.900  15.727  0.00  0.00    +0.000 A 
ATOM     35  C   UNL     1      -4.147  10.547  15.884  0.00  0.00    +0.000 A 
ATOM     36  C   UNL     1      -4.391  11.311  17.024  0.00  0.00    +0.000 A 
ATOM     37  C   UNL     1      -3.406  11.441  18.011  0.00  0.00    +0.000 A 
ATOM     38  C   UNL     1      -3.648  12.329  19.206  0.00  0.00    +0.000 C 
ATOM     39  N   UNL     1      -2.389  12.797  19.801  0.00  0.00    +0.000 NA
ATOM     40  H   UNL     1      -2.618  13.345  20.626  0.00  0.00    +0.000 HD
ENDBRANCH  29  30
ENDBRANCH  27  29
ENDBRANCH  26  27
ENDBRANCH  25  26
ENDBRANCH  24  25
ENDBRANCH  23  24
ENDBRANCH  22  23
ENDBRANCH   3  22
TORSDOF 12
ENDMDL
MODEL 3
REMARK VINA RESULT:      -7.5      1.212      1.722
REMARK  Name = 
REMARK  12 active torsions:
REMARK  status: ('A' for Active; 'I' for Inactive)
REMARK    1  A    between atoms: N_1  and  C_2
REMARK    2  A    between atoms: N_10  and  C_11
REMARK    3  A    between atoms: C_13  and  C_14
REMARK    4  A    between atoms: C_14  and  S_15
REMARK    5  A    between atoms: S_15  and  C_16
REMARK    6  A    between atoms: C_16  and  C_17
REMARK    7  A    between atoms: C_17  and  C_18
REMARK    8  A    between atoms: C_18  and  N_19
REMARK    9  A    between atoms: N_19  and  C_20
REMARK   10  A    between atoms: C_20  and  C_21
REMARK   11  A    between atoms: C_31  and  O_32
REMARK   12  A    between atoms: C_33  and  O_34
REMARK                            x       y       z     vdW  Elec       q    Type
REMARK                         _______ _______ _______ _____ _____    ______ ____
ROOT
ATOM      1  C   UNL     1       4.487   3.483  17.507  0.00  0.00    +0.000 C 
ATOM      2  O   UNL     1       3.212   3.471  16.843  0.00  0.00    +0.000 OA
ATOM      3  C   UNL     1       2.222   2.885  17.723  0.00  0.00    +0.000 C 
ATOM      4  C   UNL     1       3.000   2.285  18.897  0.00  0.00    +0.000 C 
ATOM      5  C   UNL     1       4.259   3.133  18.974  0.00  0.00    +0.000 C 
ENDROOT
BRANCH   1  14
ATOM      6  C   UNL     1       7.626   7.173  17.783  0.00  0.00    +0.000 A 
ATOM      7  N   UNL     1       8.193   6.784  18.951  0.00  0.00    +0.000 NA
ATOM      8  C   UNL     1       7.721   5.674  19.549  0.00  0.00    +0.000 A 
ATOM      9  N   UNL     1       6.725   4.857  19.146  0.00  0.00    +0.000 NA
ATOM     10  C   UNL     1       6.165   5.313  18.009  0.00  0.00    +0.000 A 
ATOM     11  C   UNL     1       6.539   6.435  17.288  0.00  0.00    +0.000 A 
ATOM     12  N   UNL     1       5.744   6.594  16.171  0.00  0.00    +0.000 NA
ATOM     13  C   UNL     1       4.917   5.568  16.204  0.00  0.00    +0.000 A 
ATOM     14  N   UNL     1       5.147   4.755  17.283  0.00  0.00    +0.000 N 
BRANCH   6  15
ATOM     15  N   UNL     1       8.148   8.283  17.130  0.00  0.00    +0.000 N 
ATOM     16  H   UNL     1       8.624   8.044  16.271  0.00  0.00    +0.000 HD
ATOM     17  H   UNL     1       8.589   8.949  17.755  0.00  0.00    +0.000 HD
ENDBRANCH   6  15
ENDBRANCH   1  14
BRANCH   4  18
ATOM     18  O   UNL     1       3.407   0.930  18.609  0.00  0.00    +0.000 OA
ATOM     19  H   UNL     1       3.376   0.407  19.432  0.00  0.00    +0.000 HD
ENDBRANCH   4  18
BRANCH   5  20
ATOM     20  O   UNL     1       5.356   2.397  19.522  0.00  0.00    +0.000 OA
ATOM     21  H   UNL     1       5.164   1.451  19.348  0.00  0.00    +0.000 HD
ENDBRANCH   5  20
BRANCH   3  22
ATOM     22  C   UNL     1       1.177   3.935  18.137  0.00  0.00    +0.000 C 
BRANCH  22  23
ATOM     23  S   UNL     1       1.267   4.149  19.953  0.00  0.00    +0.000 S 
BRANCH  23  24
ATOM     24  C   UNL     1       1.783   5.888  20.063  0.00  0.00    +0.000 C 
BRANCH  24  25
ATOM     25  C   UNL     1       2.414   6.265  18.723  0.00  0.00    +0.000 C 
BRANCH  25  26
ATOM     26  C   UNL     1       1.728   7.481  18.101  0.00  0.00    +0.000 C 
BRANCH  26  27
ATOM     27  N   UNL     1       1.890   8.618  19.005  0.00  0.00    +0.000 NA
ATOM     28  H   UNL     1       2.785   8.524  19.486  0.00  0.00    +0.000 HD
BRANCH  27  29
ATOM     29  C   UNL     1       1.894   9.894  18.272  0.00  0.00    +0.000 C 
BRANCH  29  30
ATOM     30  C   UNL     1       0.863  10.881  18.873  0.00  0.00    +0.000 C 
ATOM     31  C   UNL     1       0.730  10.673  20.400  0.00  0.00    +0.000 C 
ATOM     32  C   UNL     1      -0.490  11.352  20.987  0.00  0.00    +0.000 A 
ATOM     33  C   UNL     1      -0.716  11.320  22.370  0.00  0.00    +0.000 A 
ATOM     34  C   UNL     1      -1.839  11.942  22.913  0.00  0.00    +0.000 A 
ATOM     35  C   UNL     1      -2.728  12.627  22.086  0.00  0.00    +0.000 A 
ATOM     36  C   UNL     1      -2.523  12.649  20.708  0.00  0.00    +0.000 A 
ATOM     37  C   UNL     1      -1.431  11.976  20.146  0.00  0.00    +0.000 A 
ATOM     38  C   UNL     1      -1.256  11.941  18.648  0.00  0.00    +0.000 C 
ATOM     39  N   UNL     1      -0.462  10.782  18.219  0.00  0.00    +0.000 NA
ATOM     40  H   UNL     1      -0.338  10.844  17.212  0.00  0.00    +0.000 HD
ENDBRANCH  29  30
ENDBRANCH  27  29
ENDBRANCH  26  27
ENDBRANCH  25  26
ENDBRANCH  24  25
ENDBRANCH  23  24
ENDBRANCH  22  23
ENDBRANCH   3  22
TORSDOF 12
ENDMDL
MODEL 4
REMARK VINA RESULT:      -7.5      4.474      8.145
REMARK  Name = 
REMARK  12 active torsions:
REMARK  status: ('A' for Active; 'I' for Inactive)
REMARK    1  A    between atoms: N_1  and  C_2
REMARK    2  A    between atoms: N_10  and  C_11
REMARK    3  A    between atoms: C_13  and  C_14
REMARK    4  A    between atoms: C_14  and  S_15
REMARK    5  A    between atoms: S_15  and  C_16
REMARK    6  A    between atoms: C_16  and  C_17
REMARK    7  A    between atoms: C_17  and  C_18
REMARK    8  A    between atoms: C_18  and  N_19
REMARK    9  A    between atoms: N_19  and  C_20
REMARK   10  A    between atoms: C_20  and  C_21
REMARK   11  A    between atoms: C_31  and  O_32
REMARK   12  A    between atoms: C_33  and  O_34
REMARK                            x       y       z     vdW  Elec       q    Type
REMARK                         _______ _______ _______ _____ _____    ______ ____
ROOT
ATOM      1  C   UNL     1       2.885   5.728  19.530  0.00  0.00    +0.000 C 
ATOM      2  O   UNL     1       4.320   5.673  19.499  0.00  0.00    +0.000 OA
ATOM      3  C   UNL     1       4.737   4.361  19.048  0.00  0.00    +0.000 C 
ATOM      4  C   UNL     1       3.475   3.495  19.040  0.00  0.00    +0.000 C 
ATOM      5  C   UNL     1       2.348   4.491  18.819  0.00  0.00    +0.000 C 
ENDROOT
BRANCH   1  14
ATOM      6  C   UNL     1       1.154  10.245  19.137  0.00  0.00    +0.000 A 
ATOM      7  N   UNL     1       0.647  10.307  20.393  0.00  0.00    +0.000 NA
ATOM      8  C   UNL     1       0.767   9.223  21.182  0.00  0.00    +0.000 A 
ATOM      9  N   UNL     1       1.337   8.033  20.900  0.00  0.00    +0.000 NA
ATOM     10  C   UNL     1       1.780   8.006  19.628  0.00  0.00    +0.000 A 
ATOM     11  C   UNL     1       1.722   9.036  18.704  0.00  0.00    +0.000 A 
ATOM     12  N   UNL     1       2.277   8.653  17.499  0.00  0.00    +0.000 NA
ATOM     13  C   UNL     1       2.686   7.417  17.702  0.00  0.00    +0.000 A 
ATOM     14  N   UNL     1       2.428   6.990  18.978  0.00  0.00    +0.000 N 
BRANCH   6  15
ATOM     15  N   UNL     1       1.086  11.379  18.337  0.00  0.00    +0.000 N 
ATOM     16  H   UNL     1       0.143  11.727  18.232  0.00  0.00    +0.000 HD
ATOM     17  H   UNL     1       1.674  11.329  17.513  0.00  0.00    +0.000 HD
ENDBRANCH   6  15
ENDBRANCH   1  14
BRANCH   4  18
ATOM     18  O   UNL     1       3.263   2.880  20.330  0.00  0.00    +0.000 OA
ATOM     19  H   UNL     1       3.429   1.921  20.255  0.00  0.00    +0.000 HD
ENDBRANCH   4  18
BRANCH   5  20
ATOM     20  O   UNL     1       1.122   4.034  19.397  0.00  0.00    +0.000 OA
ATOM     21  H   UNL     1       1.286   3.959  20.362  0.00  0.00    +0.000 HD
ENDBRANCH   5  20
BRANCH   3  22
ATOM     22  C   UNL     1       5.437   4.456  17.681  0.00  0.00    +0.000 C 
BRANCH  22  23
ATOM     23  S   UNL     1       7.156   5.021  17.955  0.00  0.00    +0.000 S 
BRANCH  23  24
ATOM     24  C   UNL     1       7.257   6.387  16.761  0.00  0.00    +0.000 C 
BRANCH  24  25
ATOM     25  C   UNL     1       7.067   7.690  17.537  0.00  0.00    +0.000 C 
BRANCH  25  26
ATOM     26  C   UNL     1       8.329   8.075  18.307  0.00  0.00    +0.000 C 
BRANCH  26  27
ATOM     27  N   UNL     1       8.622   9.483  18.044  0.00  0.00    +0.000 NA
ATOM     28  H   UNL     1       7.762   9.941  17.740  0.00  0.00    +0.000 HD
BRANCH  27  29
ATOM     29  C   UNL     1       9.105  10.169  19.253  0.00  0.00    +0.000 C 
BRANCH  29  30
ATOM     30  C   UNL     1       9.948  11.414  18.883  0.00  0.00    +0.000 C 
ATOM     31  C   UNL     1       9.073  12.690  18.884  0.00  0.00    +0.000 C 
ATOM     32  C   UNL     1       9.741  13.868  18.206  0.00  0.00    +0.000 A 
ATOM     33  C   UNL     1       9.109  15.118  18.186  0.00  0.00    +0.000 A 
ATOM     34  C   UNL     1       9.721  16.204  17.561  0.00  0.00    +0.000 A 
ATOM     35  C   UNL     1      10.978  16.059  16.978  0.00  0.00    +0.000 A 
ATOM     36  C   UNL     1      11.607  14.816  16.976  0.00  0.00    +0.000 A 
ATOM     37  C   UNL     1      10.975  13.704  17.548  0.00  0.00    +0.000 A 
ATOM     38  C   UNL     1      11.627  12.346  17.476  0.00  0.00    +0.000 C 
ATOM     39  N   UNL     1      10.641  11.262  17.584  0.00  0.00    +0.000 NA
ATOM     40  H   UNL     1      11.146  10.379  17.580  0.00  0.00    +0.000 HD
ENDBRANCH  29  30
ENDBRANCH  27  29
ENDBRANCH  26  27
ENDBRANCH  25  26
ENDBRANCH  24  25
ENDBRANCH  23  24
ENDBRANCH  22  23
ENDBRANCH   3  22
TORSDOF 12
ENDMDL
MODEL 5
REMARK VINA RESULT:      -7.4      4.141      7.578
REMARK  Name = 
REMARK  12 active torsions:
REMARK  status: ('A' for Active; 'I' for Inactive)
REMARK    1  A    between atoms: N_1  and  C_2
REMARK    2  A    between atoms: N_10  and  C_11
REMARK    3  A    between atoms: C_13  and  C_14
REMARK    4  A    between atoms: C_14  and  S_15
REMARK    5  A    between atoms: S_15  and  C_16
REMARK    6  A    between atoms: C_16  and  C_17
REMARK    7  A    between atoms: C_17  and  C_18
REMARK    8  A    between atoms: C_18  and  N_19
REMARK    9  A    between atoms: N_19  and  C_20
REMARK   10  A    between atoms: C_20  and  C_21
REMARK   11  A    between atoms: C_31  and  O_32
REMARK   12  A    between atoms: C_33  and  O_34
REMARK                            x       y       z     vdW  Elec       q    Type
REMARK                         _______ _______ _______ _____ _____    ______ ____
ROOT
ATOM      1  C   UNL     1       3.110   5.890  19.590  0.00  0.00    +0.000 C 
ATOM      2  O   UNL     1       4.471   5.715  19.163  0.00  0.00    +0.000 OA
ATOM      3  C   UNL     1       4.671   4.337  18.762  0.00  0.00    +0.000 C 
ATOM      4  C   UNL     1       3.418   3.580  19.206  0.00  0.00    +0.000 C 
ATOM      5  C   UNL     1       2.328   4.640  19.202  0.00  0.00    +0.000 C 
ENDROOT
BRANCH   1  14
ATOM      6  C   UNL     1       1.054  10.271  19.239  0.00  0.00    +0.000 A 
ATOM      7  N   UNL     1       0.496  10.260  20.475  0.00  0.00    +0.000 NA
ATOM      8  C   UNL     1       0.668   9.167  21.242  0.00  0.00    +0.000 A 
ATOM      9  N   UNL     1       1.338   8.032  20.952  0.00  0.00    +0.000 NA
ATOM     10  C   UNL     1       1.831   8.074  19.700  0.00  0.00    +0.000 A 
ATOM     11  C   UNL     1       1.730   9.122  18.800  0.00  0.00    +0.000 A 
ATOM     12  N   UNL     1       2.359   8.816  17.610  0.00  0.00    +0.000 NA
ATOM     13  C   UNL     1       2.854   7.609  17.799  0.00  0.00    +0.000 A 
ATOM     14  N   UNL     1       2.580   7.129  19.052  0.00  0.00    +0.000 N 
BRANCH   6  15
ATOM     15  N   UNL     1       0.931  11.419  18.467  0.00  0.00    +0.000 N 
ATOM     16  H   UNL     1       0.345  12.120  18.898  0.00  0.00    +0.000 HD
ATOM     17  H   UNL     1       0.805  11.230  17.478  0.00  0.00    +0.000 HD
ENDBRANCH   6  15
ENDBRANCH   1  14
BRANCH   4  18
ATOM     18  O   UNL     1       3.554   3.106  20.564  0.00  0.00    +0.000 OA
ATOM     19  H   UNL     1       4.335   3.528  20.971  0.00  0.00    +0.000 HD
ENDBRANCH   4  18
BRANCH   5  20
ATOM     20  O   UNL     1       1.299   4.340  20.148  0.00  0.00    +0.000 OA
ATOM     21  H   UNL     1       0.491   4.152  19.622  0.00  0.00    +0.000 HD
ENDBRANCH   5  20
BRANCH   3  22
ATOM     22  C   UNL     1       4.952   4.248  17.253  0.00  0.00    +0.000 C 
BRANCH  22  23
ATOM     23  S   UNL     1       6.092   5.607  16.799  0.00  0.00    +0.000 S 
BRANCH  23  24
ATOM     24  C   UNL     1       7.386   5.397  18.058  0.00  0.00    +0.000 C 
BRANCH  24  25
ATOM     25  C   UNL     1       7.874   6.791  18.451  0.00  0.00    +0.000 C 
BRANCH  25  26
ATOM     26  C   UNL     1       7.541   7.827  17.378  0.00  0.00    +0.000 C 
BRANCH  26  27
ATOM     27  N   UNL     1       7.846   9.156  17.906  0.00  0.00    +0.000 NA
ATOM     28  H   UNL     1       7.022   9.507  18.395  0.00  0.00    +0.000 HD
BRANCH  27  29
ATOM     29  C   UNL     1       8.964   9.113  18.860  0.00  0.00    +0.000 C 
BRANCH  29  30
ATOM     30  C   UNL     1       9.594  10.517  19.037  0.00  0.00    +0.000 C 
ATOM     31  C   UNL     1       9.344  11.055  20.465  0.00  0.00    +0.000 C 
ATOM     32  C   UNL     1       9.625  12.538  20.598  0.00  0.00    +0.000 A 
ATOM     33  C   UNL     1       9.516  13.164  21.847  0.00  0.00    +0.000 A 
ATOM     34  C   UNL     1       9.771  14.530  21.972  0.00  0.00    +0.000 A 
ATOM     35  C   UNL     1      10.167  15.272  20.861  0.00  0.00    +0.000 A 
ATOM     36  C   UNL     1      10.260  14.663  19.612  0.00  0.00    +0.000 A 
ATOM     37  C   UNL     1       9.947  13.305  19.463  0.00  0.00    +0.000 A 
ATOM     38  C   UNL     1       9.977  12.669  18.096  0.00  0.00    +0.000 C 
ATOM     39  N   UNL     1       9.111  11.485  18.026  0.00  0.00    +0.000 NA
ATOM     40  H   UNL     1       9.214  11.076  17.101  0.00  0.00    +0.000 HD
ENDBRANCH  29  30
ENDBRANCH  27  29
ENDBRANCH  26  27
ENDBRANCH  25  26
ENDBRANCH  24  25
ENDBRANCH  23  24
ENDBRANCH  22  23
ENDBRANCH   3  22
TORSDOF 12
ENDMDL
MODEL 6
REMARK VINA RESULT:      -7.3      3.021      4.326
REMARK  Name = 
REMARK  12 active torsions:
REMARK  status: ('A' for Active; 'I' for Inactive)
REMARK    1  A    between atoms: N_1  and  C_2
REMARK    2  A    between atoms: N_10  and  C_11
REMARK    3  A    between atoms: C_13  and  C_14
REMARK    4  A    between atoms: C_14  and  S_15
REMARK    5  A    between atoms: S_15  and  C_16
REMARK    6  A    between atoms: C_16  and  C_17
REMARK    7  A    between atoms: C_17  and  C_18
REMARK    8  A    between atoms: C_18  and  N_19
REMARK    9  A    between atoms: N_19  and  C_20
REMARK   10  A    between atoms: C_20  and  C_21
REMARK   11  A    between atoms: C_31  and  O_32
REMARK   12  A    between atoms: C_33  and  O_34
REMARK                            x       y       z     vdW  Elec       q    Type
REMARK                         _______ _______ _______ _____ _____    ______ ____
ROOT
ATOM      1  C   UNL     1       7.313   5.061  17.001  0.00  0.00    +0.000 C 
ATOM      2  O   UNL     1       6.931   4.305  18.162  0.00  0.00    +0.000 OA
ATOM      3  C   UNL     1       6.638   5.216  19.249  0.00  0.00    +0.000 C 
ATOM      4  C   UNL     1       7.107   6.596  18.783  0.00  0.00    +0.000 C 
ATOM      5  C   UNL     1       6.999   6.529  17.269  0.00  0.00    +0.000 C 
ENDROOT
BRANCH   1  14
ATOM      6  C   UNL     1       6.404   3.769  12.413  0.00  0.00    +0.000 A 
ATOM      7  N   UNL     1       7.319   4.598  11.853  0.00  0.00    +0.000 NA
ATOM      8  C   UNL     1       8.035   5.397  12.666  0.00  0.00    +0.000 A 
ATOM      9  N   UNL     1       7.976   5.504  14.009  0.00  0.00    +0.000 NA
ATOM     10  C   UNL     1       7.021   4.697  14.511  0.00  0.00    +0.000 A 
ATOM     11  C   UNL     1       6.208   3.829  13.801  0.00  0.00    +0.000 A 
ATOM     12  N   UNL     1       5.347   3.156  14.645  0.00  0.00    +0.000 NA
ATOM     13  C   UNL     1       5.653   3.594  15.849  0.00  0.00    +0.000 A 
ATOM     14  N   UNL     1       6.672   4.510  15.821  0.00  0.00    +0.000 N 
BRANCH   6  15
ATOM     15  N   UNL     1       5.703   2.899  11.586  0.00  0.00    +0.000 N 
ATOM     16  H   UNL     1       5.605   1.976  11.984  0.00  0.00    +0.000 HD
ATOM     17  H   UNL     1       5.960   2.976  10.608  0.00  0.00    +0.000 HD
ENDBRANCH   6  15
ENDBRANCH   1  14
BRANCH   4  18
ATOM     18  O   UNL     1       8.498   6.807  19.109  0.00  0.00    +0.000 OA
ATOM     19  H   UNL     1       8.640   7.754  19.299  0.00  0.00    +0.000 HD
ENDBRANCH   4  18
BRANCH   5  20
ATOM     20  O   UNL     1       7.940   7.400  16.635  0.00  0.00    +0.000 OA
ATOM     21  H   UNL     1       7.411   8.101  16.198  0.00  0.00    +0.000 HD
ENDBRANCH   5  20
BRANCH   3  22
ATOM     22  C   UNL     1       5.146   5.156  19.618  0.00  0.00    +0.000 C 
BRANCH  22  23
ATOM     23  S   UNL     1       4.543   3.458  19.298  0.00  0.00    +0.000 S 
BRANCH  23  24
ATOM     24  C   UNL     1       2.821   3.794  18.825  0.00  0.00    +0.000 C 
BRANCH  24  25
ATOM     25  C   UNL     1       1.955   3.586  20.068  0.00  0.00    +0.000 C 
BRANCH  25  26
ATOM     26  C   UNL     1       2.112   4.738  21.060  0.00  0.00    +0.000 C 
BRANCH  26  27
ATOM     27  N   UNL     1       1.305   5.865  20.594  0.00  0.00    +0.000 NA
ATOM     28  H   UNL     1       0.890   6.324  21.406  0.00  0.00    +0.000 HD
BRANCH  27  29
ATOM     29  C   UNL     1       2.125   6.854  19.876  0.00  0.00    +0.000 C 
BRANCH  29  30
ATOM     30  C   UNL     1       1.761   8.294  20.311  0.00  0.00    +0.000 C 
ATOM     31  C   UNL     1       0.818   8.277  21.536  0.00  0.00    +0.000 C 
ATOM     32  C   UNL     1       0.155   9.614  21.795  0.00  0.00    +0.000 A 
ATOM     33  C   UNL     1      -0.673   9.784  22.912  0.00  0.00    +0.000 A 
ATOM     34  C   UNL     1      -1.286  11.014  23.152  0.00  0.00    +0.000 A 
ATOM     35  C   UNL     1      -1.052  12.090  22.298  0.00  0.00    +0.000 A 
ATOM     36  C   UNL     1      -0.245  11.926  21.175  0.00  0.00    +0.000 A 
ATOM     37  C   UNL     1       0.327  10.680  20.891  0.00  0.00    +0.000 A 
ATOM     38  C   UNL     1       1.138  10.490  19.633  0.00  0.00    +0.000 C 
ATOM     39  N   UNL     1       1.164   9.084  19.209  0.00  0.00    +0.000 NA
ATOM     40  H   UNL     1       1.764   9.015  18.391  0.00  0.00    +0.000 HD
ENDBRANCH  29  30
ENDBRANCH  27  29
ENDBRANCH  26  27
ENDBRANCH  25  26
ENDBRANCH  24  25
ENDBRANCH  23  24
ENDBRANCH  22  23
ENDBRANCH   3  22
TORSDOF 12
ENDMDL
MODEL 7
REMARK VINA RESULT:      -7.3      4.949      8.079
REMARK  Name = 
REMARK  12 active torsions:
REMARK  status: ('A' for Active; 'I' for Inactive)
REMARK    1  A    between atoms: N_1  and  C_2
REMARK    2  A    between atoms: N_10  and  C_11
REMARK    3  A    between atoms: C_13  and  C_14
REMARK    4  A    between atoms: C_14  and  S_15
REMARK    5  A    between atoms: S_15  and  C_16
REMARK    6  A    between atoms: C_16  and  C_17
REMARK    7  A    between atoms: C_17  and  C_18
REMARK    8  A    between atoms: C_18  and  N_19
REMARK    9  A    between atoms: N_19  and  C_20
REMARK   10  A    between atoms: C_20  and  C_21
REMARK   11  A    between atoms: C_31  and  O_32
REMARK   12  A    between atoms: C_33  and  O_34
REMARK                            x       y       z     vdW  Elec       q    Type
REMARK                         _______ _______ _______ _____ _____    ______ ____
ROOT
ATOM      1  C   UNL     1       3.116   5.593  19.418  0.00  0.00    +0.000 C 
ATOM      2  O   UNL     1       4.553   5.571  19.468  0.00  0.00    +0.000 OA
ATOM      3  C   UNL     1       5.025   4.280  19.012  0.00  0.00    +0.000 C 
ATOM      4  C   UNL     1       3.787   3.386  18.912  0.00  0.00    +0.000 C 
ATOM      5  C   UNL     1       2.651   4.361  18.649  0.00  0.00    +0.000 C 
ENDROOT
BRANCH   1  14
ATOM      6  C   UNL     1       1.287  10.070  19.026  0.00  0.00    +0.000 A 
ATOM      7  N   UNL     1       0.696  10.084  20.247  0.00  0.00    +0.000 NA
ATOM      8  C   UNL     1       0.794   8.982  21.014  0.00  0.00    +0.000 A 
ATOM      9  N   UNL     1       1.415   7.816  20.739  0.00  0.00    +0.000 NA
ATOM     10  C   UNL     1       1.943   7.837  19.501  0.00  0.00    +0.000 A 
ATOM     11  C   UNL     1       1.917   8.890  18.602  0.00  0.00    +0.000 A 
ATOM     12  N   UNL     1       2.562   8.556  17.428  0.00  0.00    +0.000 NA
ATOM     13  C   UNL     1       2.993   7.326  17.626  0.00  0.00    +0.000 A 
ATOM     14  N   UNL     1       2.662   6.857  18.869  0.00  0.00    +0.000 N 
BRANCH   6  15
ATOM     15  N   UNL     1       1.240  11.224  18.254  0.00  0.00    +0.000 N 
ATOM     16  H   UNL     1       0.706  11.105  17.405  0.00  0.00    +0.000 HD
ATOM     17  H   UNL     1       2.129  11.710  18.199  0.00  0.00    +0.000 HD
ENDBRANCH   6  15
ENDBRANCH   1  14
BRANCH   4  18
ATOM     18  O   UNL     1       3.517   2.735  20.173  0.00  0.00    +0.000 OA
ATOM     19  H   UNL     1       4.364   2.517  20.606  0.00  0.00    +0.000 HD
ENDBRANCH   4  18
BRANCH   5  20
ATOM     20  O   UNL     1       1.405   3.863  19.145  0.00  0.00    +0.000 OA
ATOM     21  H   UNL     1       0.954   3.446  18.380  0.00  0.00    +0.000 HD
ENDBRANCH   5  20
BRANCH   3  22
ATOM     22  C   UNL     1       5.800   4.423  17.690  0.00  0.00    +0.000 C 
BRANCH  22  23
ATOM     23  S   UNL     1       7.448   5.125  18.064  0.00  0.00    +0.000 S 
BRANCH  23  24
ATOM     24  C   UNL     1       7.220   6.840  17.505  0.00  0.00    +0.000 C 
BRANCH  24  25
ATOM     25  C   UNL     1       8.166   7.719  18.321  0.00  0.00    +0.000 C 
BRANCH  25  26
ATOM     26  C   UNL     1       8.128   9.173  17.852  0.00  0.00    +0.000 C 
BRANCH  26  27
ATOM     27  N   UNL     1       8.801  10.000  18.853  0.00  0.00    +0.000 NA
ATOM     28  H   UNL     1       9.233   9.386  19.544  0.00  0.00    +0.000 HD
BRANCH  27  29
ATOM     29  C   UNL     1       9.857  10.827  18.247  0.00  0.00    +0.000 C 
BRANCH  29  30
ATOM     30  C   UNL     1       9.518  12.333  18.367  0.00  0.00    +0.000 C 
ATOM     31  C   UNL     1      10.384  13.170  17.396  0.00  0.00    +0.000 C 
ATOM     32  C   UNL     1      10.353  14.653  17.702  0.00  0.00    +0.000 A 
ATOM     33  C   UNL     1      11.029  15.556  16.870  0.00  0.00    +0.000 A 
ATOM     34  C   UNL     1      11.004  16.922  17.150  0.00  0.00    +0.000 A 
ATOM     35  C   UNL     1      10.282  17.399  18.241  0.00  0.00    +0.000 A 
ATOM     36  C   UNL     1       9.622  16.508  19.085  0.00  0.00    +0.000 A 
ATOM     37  C   UNL     1       9.690  15.129  18.848  0.00  0.00    +0.000 A 
ATOM     38  C   UNL     1       9.037  14.166  19.807  0.00  0.00    +0.000 C 
ATOM     39  N   UNL     1       9.659  12.836  19.752  0.00  0.00    +0.000 NA
ATOM     40  H   UNL     1       9.144  12.224  20.380  0.00  0.00    +0.000 HD
ENDBRANCH  29  30
ENDBRANCH  27  29
ENDBRANCH  26  27
ENDBRANCH  25  26
ENDBRANCH  24  25
ENDBRANCH  23  24
ENDBRANCH  22  23
ENDBRANCH   3  22
TORSDOF 12
ENDMDL
MODEL 8
REMARK VINA RESULT:      -7.3      3.501      4.477
REMARK  Name = 
REMARK  12 active torsions:
REMARK  status: ('A' for Active; 'I' for Inactive)
REMARK    1  A    between atoms: N_1  and  C_2
REMARK    2  A    between atoms: N_10  and  C_11
REMARK    3  A    between atoms: C_13  and  C_14
REMARK    4  A    between atoms: C_14  and  S_15
REMARK    5  A    between atoms: S_15  and  C_16
REMARK    6  A    between atoms: C_16  and  C_17
REMARK    7  A    between atoms: C_17  and  C_18
REMARK    8  A    between atoms: C_18  and  N_19
REMARK    9  A    between atoms: N_19  and  C_20
REMARK   10  A    between atoms: C_20  and  C_21
REMARK   11  A    between atoms: C_31  and  O_32
REMARK   12  A    between atoms: C_33  and  O_34
REMARK                            x       y       z     vdW  Elec       q    Type
REMARK                         _______ _______ _______ _____ _____    ______ ____
ROOT
ATOM      1  C   UNL     1       4.414   3.859  17.641  0.00  0.00    +0.000 C 
ATOM      2  O   UNL     1       3.352   4.818  17.509  0.00  0.00    +0.000 OA
ATOM      3  C   UNL     1       2.726   5.017  18.800  0.00  0.00    +0.000 C 
ATOM      4  C   UNL     1       3.289   3.928  19.716  0.00  0.00    +0.000 C 
ATOM      5  C   UNL     1       4.658   3.626  19.129  0.00  0.00    +0.000 C 
ENDROOT
BRANCH   1  14
ATOM      6  C   UNL     1       7.424   4.994  14.008  0.00  0.00    +0.000 A 
ATOM      7  N   UNL     1       6.750   4.308  13.052  0.00  0.00    +0.000 NA
ATOM      8  C   UNL     1       5.648   3.625  13.416  0.00  0.00    +0.000 A 
ATOM      9  N   UNL     1       5.092   3.514  14.640  0.00  0.00    +0.000 NA
ATOM     10  C   UNL     1       5.824   4.171  15.559  0.00  0.00    +0.000 A 
ATOM     11  C   UNL     1       6.975   4.909  15.335  0.00  0.00    +0.000 A 
ATOM     12  N   UNL     1       7.455   5.448  16.512  0.00  0.00    +0.000 NA
ATOM     13  C   UNL     1       6.591   5.062  17.429  0.00  0.00    +0.000 A 
ATOM     14  N   UNL     1       5.578   4.308  16.899  0.00  0.00    +0.000 N 
BRANCH   6  15
ATOM     15  N   UNL     1       8.527   5.749  13.629  0.00  0.00    +0.000 N 
ATOM     16  H   UNL     1       9.076   6.062  14.417  0.00  0.00    +0.000 HD
ATOM     17  H   UNL     1       8.328   6.412  12.888  0.00  0.00    +0.000 HD
ENDBRANCH   6  15
ENDBRANCH   1  14
BRANCH   4  18
ATOM     18  O   UNL     1       2.503   2.720  19.628  0.00  0.00    +0.000 OA
ATOM     19  H   UNL     1       1.661   2.854  20.102  0.00  0.00    +0.000 HD
ENDBRANCH   4  18
BRANCH   5  20
ATOM     20  O   UNL     1       5.060   2.280  19.397  0.00  0.00    +0.000 OA
ATOM     21  H   UNL     1       4.851   2.116  20.342  0.00  0.00    +0.000 HD
ENDBRANCH   5  20
BRANCH   3  22
ATOM     22  C   UNL     1       2.972   6.448  19.306  0.00  0.00    +0.000 C 
BRANCH  22  23
ATOM     23  S   UNL     1       3.422   7.495  17.874  0.00  0.00    +0.000 S 
BRANCH  23  24
ATOM     24  C   UNL     1       1.827   8.296  17.527  0.00  0.00    +0.000 C 
BRANCH  24  25
ATOM     25  C   UNL     1       1.862   9.683  18.168  0.00  0.00    +0.000 C 
BRANCH  25  26
ATOM     26  C   UNL     1       0.549  10.007  18.879  0.00  0.00    +0.000 C 
BRANCH  26  27
ATOM     27  N   UNL     1      -0.327  10.707  17.941  0.00  0.00    +0.000 NA
ATOM     28  H   UNL     1      -1.110  10.095  17.711  0.00  0.00    +0.000 HD
BRANCH  27  29
ATOM     29  C   UNL     1      -0.866  11.944  18.526  0.00  0.00    +0.000 C 
BRANCH  29  30
ATOM     30  C   UNL     1      -2.392  12.049  18.290  0.00  0.00    +0.000 C 
ATOM     31  C   UNL     1      -3.135  12.337  19.616  0.00  0.00    +0.000 C 
ATOM     32  C   UNL     1      -4.630  12.111  19.520  0.00  0.00    +0.000 A 
ATOM     33  C   UNL     1      -5.456  12.397  20.615  0.00  0.00    +0.000 A 
ATOM     34  C   UNL     1      -6.832  12.188  20.530  0.00  0.00    +0.000 A 
ATOM     35  C   UNL     1      -7.397  11.722  19.345  0.00  0.00    +0.000 A 
ATOM     36  C   UNL     1      -6.583  11.417  18.256  0.00  0.00    +0.000 A 
ATOM     37  C   UNL     1      -5.193  11.566  18.350  0.00  0.00    +0.000 A 
ATOM     38  C   UNL     1      -4.311  11.163  17.195  0.00  0.00    +0.000 C 
ATOM     39  N   UNL     1      -2.947  10.842  17.636  0.00  0.00    +0.000 NA
ATOM     40  H   UNL     1      -2.394  10.630  16.811  0.00  0.00    +0.000 HD
ENDBRANCH  29  30
ENDBRANCH  27  29
ENDBRANCH  26  27
ENDBRANCH  25  26
ENDBRANCH  24  25
ENDBRANCH  23  24
ENDBRANCH  22  23
ENDBRANCH   3  22
TORSDOF 12
ENDMDL
MODEL 9
REMARK VINA RESULT:      -7.3      2.090      2.961
REMARK  Name = 
REMARK  12 active torsions:
REMARK  status: ('A' for Active; 'I' for Inactive)
REMARK    1  A    between atoms: N_1  and  C_2
REMARK    2  A    between atoms: N_10  and  C_11
REMARK    3  A    between atoms: C_13  and  C_14
REMARK    4  A    between atoms: C_14  and  S_15
REMARK    5  A    between atoms: S_15  and  C_16
REMARK    6  A    between atoms: C_16  and  C_17
REMARK    7  A    between atoms: C_17  and  C_18
REMARK    8  A    between atoms: C_18  and  N_19
REMARK    9  A    between atoms: N_19  and  C_20
REMARK   10  A    between atoms: C_20  and  C_21
REMARK   11  A    between atoms: C_31  and  O_32
REMARK   12  A    between atoms: C_33  and  O_34
REMARK                            x       y       z     vdW  Elec       q    Type
REMARK                         _______ _______ _______ _____ _____    ______ ____
ROOT
ATOM      1  C   UNL     1       3.736   3.393  18.267  0.00  0.00    +0.000 C 
ATOM      2  O   UNL     1       2.514   4.148  18.250  0.00  0.00    +0.000 OA
ATOM      3  C   UNL     1       1.618   3.627  19.263  0.00  0.00    +0.000 C 
ATOM      4  C   UNL     1       2.247   2.322  19.755  0.00  0.00    +0.000 C 
ATOM      5  C   UNL     1       3.735   2.520  19.518  0.00  0.00    +0.000 C 
ENDROOT
BRANCH   1  14
ATOM      6  C   UNL     1       7.242   6.205  16.437  0.00  0.00    +0.000 A 
ATOM      7  N   UNL     1       7.174   5.706  15.178  0.00  0.00    +0.000 NA
ATOM      8  C   UNL     1       6.293   4.718  14.931  0.00  0.00    +0.000 A 
ATOM      9  N   UNL     1       5.433   4.124  15.783  0.00  0.00    +0.000 NA
ATOM     10  C   UNL     1       5.573   4.621  17.027  0.00  0.00    +0.000 A 
ATOM     11  C   UNL     1       6.434   5.628  17.429  0.00  0.00    +0.000 A 
ATOM     12  N   UNL     1       6.304   5.882  18.780  0.00  0.00    +0.000 NA
ATOM     13  C   UNL     1       5.358   5.056  19.182  0.00  0.00    +0.000 A 
ATOM     14  N   UNL     1       4.871   4.290  18.155  0.00  0.00    +0.000 N 
BRANCH   6  15
ATOM     15  N   UNL     1       8.106   7.264  16.685  0.00  0.00    +0.000 N 
ATOM     16  H   UNL     1       9.002   7.152  16.230  0.00  0.00    +0.000 HD
ATOM     17  H   UNL     1       8.093   7.580  17.648  0.00  0.00    +0.000 HD
ENDBRANCH   6  15
ENDBRANCH   1  14
BRANCH   4  18
ATOM     18  O   UNL     1       1.824   1.205  18.942  0.00  0.00    +0.000 OA
ATOM     19  H   UNL     1       1.583   1.532  18.054  0.00  0.00    +0.000 HD
ENDBRANCH   4  18
BRANCH   5  20
ATOM     20  O   UNL     1       4.404   1.274  19.299  0.00  0.00    +0.000 OA
ATOM     21  H   UNL     1       5.230   1.490  18.815  0.00  0.00    +0.000 HD
ENDBRANCH   5  20
BRANCH   3  22
ATOM     22  C   UNL     1       1.392   4.669  20.372  0.00  0.00    +0.000 C 
BRANCH  22  23
ATOM     23  S   UNL     1       2.141   6.250  19.836  0.00  0.00    +0.000 S 
BRANCH  23  24
ATOM     24  C   UNL     1       1.284   7.418  20.934  0.00  0.00    +0.000 C 
BRANCH  24  25
ATOM     25  C   UNL     1       1.273   8.778  20.237  0.00  0.00    +0.000 C 
BRANCH  25  26
ATOM     26  C   UNL     1       1.866   8.695  18.832  0.00  0.00    +0.000 C 
BRANCH  26  27
ATOM     27  N   UNL     1       1.153   9.638  17.970  0.00  0.00    +0.000 NA
ATOM     28  H   UNL     1       0.169   9.369  17.942  0.00  0.00    +0.000 HD
BRANCH  27  29
ATOM     29  C   UNL     1       1.240  11.012  18.487  0.00  0.00    +0.000 C 
BRANCH  29  30
ATOM     30  C   UNL     1      -0.168  11.643  18.622  0.00  0.00    +0.000 C 
ATOM     31  C   UNL     1      -0.506  11.919  20.106  0.00  0.00    +0.000 C 
ATOM     32  C   UNL     1      -1.975  12.206  20.336  0.00  0.00    +0.000 A 
ATOM     33  C   UNL     1      -2.433  12.548  21.615  0.00  0.00    +0.000 A 
ATOM     34  C   UNL     1      -3.785  12.811  21.831  0.00  0.00    +0.000 A 
ATOM     35  C   UNL     1      -4.685  12.766  20.768  0.00  0.00    +0.000 A 
ATOM     36  C   UNL     1      -4.243  12.410  19.495  0.00  0.00    +0.000 A 
ATOM     37  C   UNL     1      -2.898  12.084  19.280  0.00  0.00    +0.000 A 
ATOM     38  C   UNL     1      -2.442  11.627  17.917  0.00  0.00    +0.000 C 
ATOM     39  N   UNL     1      -1.222  10.812  17.996  0.00  0.00    +0.000 NA
ATOM     40  H   UNL     1      -0.939  10.580  17.047  0.00  0.00    +0.000 HD
ENDBRANCH  29  30
ENDBRANCH  27  29
ENDBRANCH  26  27
ENDBRANCH  25  26
ENDBRANCH  24  25
ENDBRANCH  23  24
ENDBRANCH  22  23
ENDBRANCH   3  22
TORSDOF 12
ENDMDL
