MODEL 1
REMARK VINA RESULT:      -7.6      0.000      0.000
REMARK  Name = 
REMARK  6 active torsions:
REMARK  status: ('A' for Active; 'I' for Inactive)
REMARK    1  A    between atoms: C_1  and  O_2
REMARK    2  A    between atoms: O_2  and  C_3
REMARK    3  A    between atoms: N_5  and  C_6
REMARK    4  A    between atoms: C_13  and  C_14
REMARK    5  A    between atoms: N_16  and  C_17
REMARK    6  A    between atoms: C_20  and  C_21
REMARK                            x       y       z     vdW  Elec       q    Type
REMARK                         _______ _______ _______ _____ _____    ______ ____
ROOT
ATOM      1  C   UNL     1       5.307   4.431  17.929  0.00  0.00    +0.000 A 
ATOM      2  C   UNL     1       6.158   4.045  16.929  0.00  0.00    +0.000 A 
ATOM      3  N   UNL     1       5.722   4.659  15.779  0.00  0.00    +0.000 N 
ATOM      4  N   UNL     1       4.639   5.454  16.006  0.00  0.00    +0.000 NA
ATOM      5  C   UNL     1       4.344   5.266  17.309  0.00  0.00    +0.000 A 
ENDROOT
BRANCH   3   6
ATOM      6  C   UNL     1       6.264   4.509  14.475  0.00  0.00    +0.000 A 
ATOM      7  C   UNL     1       5.693   3.622  13.552  0.00  0.00    +0.000 A 
ATOM      8  C   UNL     1       6.226   3.508  12.268  0.00  0.00    +0.000 A 
ATOM      9  C   UNL     1       7.336   4.266  11.902  0.00  0.00    +0.000 A 
ATOM     10  C   UNL     1       7.913   5.145  12.815  0.00  0.00    +0.000 A 
ATOM     11  C   UNL     1       7.377   5.273  14.095  0.00  0.00    +0.000 A 
ENDBRANCH   3   6
BRANCH   5  12
ATOM     12  C   UNL     1       3.162   5.866  17.947  0.00  0.00    +0.000 C 
ATOM     13  O   UNL     1       2.191   5.181  18.253  0.00  0.00    +0.000 OA
ATOM     14  N   UNL     1       3.255   7.244  18.105  0.00  0.00    +0.000 N 
ATOM     15  H   UNL     1       4.084   7.665  17.696  0.00  0.00    +0.000 HD
BRANCH  14  16
ATOM     16  C   UNL     1       2.280   8.080  18.690  0.00  0.00    +0.000 A 
ATOM     17  C   UNL     1       1.933   7.991  20.040  0.00  0.00    +0.000 A 
ATOM     18  C   UNL     1       0.964   8.827  20.593  0.00  0.00    +0.000 A 
ATOM     19  C   UNL     1       0.318   9.781  19.805  0.00  0.00    +0.000 A 
ATOM     20  C   UNL     1      -0.710  10.685  20.411  0.00  0.00    +0.000 C 
ATOM     21  C   UNL     1       0.658   9.874  18.449  0.00  0.00    +0.000 A 
ATOM     22  C   UNL     1       1.642   9.038  17.897  0.00  0.00    +0.000 A 
ENDBRANCH  14  16
ENDBRANCH   5  12
BRANCH   1  24
ATOM     23  C   UNL     1       4.524   2.890  19.502  0.00  0.00    +0.000 C 
ATOM     24  O   UNL     1       5.323   4.033  19.222  0.00  0.00    +0.000 OA
ENDBRANCH   1  24
TORSDOF 4
ENDMDL
MODEL 2
REMARK VINA RESULT:      -7.5      0.082      1.011
REMARK  Name = 
REMARK  6 active torsions:
REMARK  status: ('A' for Active; 'I' for Inactive)
REMARK    1  A    between atoms: C_1  and  O_2
REMARK    2  A    between atoms: O_2  and  C_3
REMARK    3  A    between atoms: N_5  and  C_6
REMARK    4  A    between atoms: C_13  and  C_14
REMARK    5  A    between atoms: N_16  and  C_17
REMARK    6  A    between atoms: C_20  and  C_21
REMARK                            x       y       z     vdW  Elec       q    Type
REMARK                         _______ _______ _______ _____ _____    ______ ____
ROOT
ATOM      1  C   UNL     1       5.318   4.397  17.970  0.00  0.00    +0.000 A 
ATOM      2  C   UNL     1       6.150   4.017  16.952  0.00  0.00    +0.000 A 
ATOM      3  N   UNL     1       5.712   4.662  15.820  0.00  0.00    +0.000 N 
ATOM      4  N   UNL     1       4.646   5.471  16.076  0.00  0.00    +0.000 NA
ATOM      5  C   UNL     1       4.363   5.262  17.379  0.00  0.00    +0.000 A 
ENDROOT
BRANCH   3   6
ATOM      6  C   UNL     1       6.236   4.528  14.506  0.00  0.00    +0.000 A 
ATOM      7  C   UNL     1       7.359   5.261  14.099  0.00  0.00    +0.000 A 
ATOM      8  C   UNL     1       7.873   5.096  12.812  0.00  0.00    +0.000 A 
ATOM      9  C   UNL     1       7.265   4.212  11.925  0.00  0.00    +0.000 A 
ATOM     10  C   UNL     1       6.144   3.485  12.319  0.00  0.00    +0.000 A 
ATOM     11  C   UNL     1       5.635   3.636  13.608  0.00  0.00    +0.000 A 
ENDBRANCH   3   6
BRANCH   5  12
ATOM     12  C   UNL     1       3.199   5.869  18.042  0.00  0.00    +0.000 C 
ATOM     13  O   UNL     1       2.282   5.177  18.472  0.00  0.00    +0.000 OA
ATOM     14  N   UNL     1       3.241   7.258  18.075  0.00  0.00    +0.000 N 
ATOM     15  H   UNL     1       4.022   7.673  17.576  0.00  0.00    +0.000 HD
BRANCH  14  16
ATOM     16  C   UNL     1       2.270   8.104  18.652  0.00  0.00    +0.000 A 
ATOM     17  C   UNL     1       1.918   8.026  20.002  0.00  0.00    +0.000 A 
ATOM     18  C   UNL     1       0.953   8.872  20.547  0.00  0.00    +0.000 A 
ATOM     19  C   UNL     1       0.316   9.825  19.752  0.00  0.00    +0.000 A 
ATOM     20  C   UNL     1      -0.707  10.740  20.350  0.00  0.00    +0.000 C 
ATOM     21  C   UNL     1       0.661   9.907  18.396  0.00  0.00    +0.000 A 
ATOM     22  C   UNL     1       1.640   9.062  17.852  0.00  0.00    +0.000 A 
ENDBRANCH  14  16
ENDBRANCH   5  12
BRANCH   1  24
ATOM     23  C   UNL     1       4.541   2.826  19.516  0.00  0.00    +0.000 C 
ATOM     24  O   UNL     1       5.342   3.972  19.254  0.00  0.00    +0.000 OA
ENDBRANCH   1  24
TORSDOF 4
ENDMDL
MODEL 3
REMARK VINA RESULT:      -7.5      2.201      3.615
REMARK  Name = 
REMARK  6 active torsions:
REMARK  status: ('A' for Active; 'I' for Inactive)
REMARK    1  A    between atoms: C_1  and  O_2
REMARK    2  A    between atoms: O_2  and  C_3
REMARK    3  A    between atoms: N_5  and  C_6
REMARK    4  A    between atoms: C_13  and  C_14
REMARK    5  A    between atoms: N_16  and  C_17
REMARK    6  A    between atoms: C_20  and  C_21
REMARK                            x       y       z     vdW  Elec       q    Type
REMARK                         _______ _______ _______ _____ _____    ______ ____
ROOT
ATOM      1  C   UNL     1       2.426   5.591  19.832  0.00  0.00    +0.000 A 
ATOM      2  C   UNL     1       3.363   4.807  19.216  0.00  0.00    +0.000 A 
ATOM      3  N   UNL     1       4.080   5.629  18.380  0.00  0.00    +0.000 N 
ATOM      4  N   UNL     1       3.663   6.924  18.457  0.00  0.00    +0.000 NA
ATOM      5  C   UNL     1       2.607   6.892  19.298  0.00  0.00    +0.000 A 
ENDROOT
BRANCH   3   6
ATOM      6  C   UNL     1       5.123   5.244  17.494  0.00  0.00    +0.000 A 
ATOM      7  C   UNL     1       6.403   4.938  17.975  0.00  0.00    +0.000 A 
ATOM      8  C   UNL     1       7.405   4.538  17.091  0.00  0.00    +0.000 A 
ATOM      9  C   UNL     1       7.140   4.452  15.726  0.00  0.00    +0.000 A 
ATOM     10  C   UNL     1       5.872   4.759  15.239  0.00  0.00    +0.000 A 
ATOM     11  C   UNL     1       4.863   5.148  16.120  0.00  0.00    +0.000 A 
ENDBRANCH   3   6
BRANCH   5  12
ATOM     12  C   UNL     1       1.784   8.079  19.579  0.00  0.00    +0.000 C 
ATOM     13  O   UNL     1       1.431   8.832  18.677  0.00  0.00    +0.000 OA
ATOM     14  N   UNL     1       1.514   8.261  20.930  0.00  0.00    +0.000 N 
ATOM     15  H   UNL     1       1.977   7.602  21.550  0.00  0.00    +0.000 HD
BRANCH  14  16
ATOM     16  C   UNL     1       0.745   9.304  21.489  0.00  0.00    +0.000 A 
ATOM     17  C   UNL     1      -0.072   9.114  22.605  0.00  0.00    +0.000 A 
ATOM     18  C   UNL     1      -0.823  10.161  23.137  0.00  0.00    +0.000 A 
ATOM     19  C   UNL     1      -0.771  11.432  22.564  0.00  0.00    +0.000 A 
ATOM     20  C   UNL     1      -1.569  12.554  23.152  0.00  0.00    +0.000 C 
ATOM     21  C   UNL     1       0.044  11.630  21.442  0.00  0.00    +0.000 A 
ATOM     22  C   UNL     1       0.807  10.577  20.915  0.00  0.00    +0.000 A 
ENDBRANCH  14  16
ENDBRANCH   5  12
BRANCH   1  24
ATOM     23  C   UNL     1       1.091   3.831  20.592  0.00  0.00    +0.000 C 
ATOM     24  O   UNL     1       1.468   5.198  20.702  0.00  0.00    +0.000 OA
ENDBRANCH   1  24
TORSDOF 4
ENDMDL
MODEL 4
REMARK VINA RESULT:      -7.5      2.126      3.490
REMARK  Name = 
REMARK  6 active torsions:
REMARK  status: ('A' for Active; 'I' for Inactive)
REMARK    1  A    between atoms: C_1  and  O_2
REMARK    2  A    between atoms: O_2  and  C_3
REMARK    3  A    between atoms: N_5  and  C_6
REMARK    4  A    between atoms: C_13  and  C_14
REMARK    5  A    between atoms: N_16  and  C_17
REMARK    6  A    between atoms: C_20  and  C_21
REMARK                            x       y       z     vdW  Elec       q    Type
REMARK                         _______ _______ _______ _____ _____    ______ ____
ROOT
ATOM      1  C   UNL     1       2.539   5.662  19.766  0.00  0.00    +0.000 A 
ATOM      2  C   UNL     1       3.434   4.863  19.107  0.00  0.00    +0.000 A 
ATOM      3  N   UNL     1       4.060   5.655  18.174  0.00  0.00    +0.000 N 
ATOM      4  N   UNL     1       3.627   6.945  18.228  0.00  0.00    +0.000 NA
ATOM      5  C   UNL     1       2.650   6.938  19.159  0.00  0.00    +0.000 A 
ENDROOT
BRANCH   3   6
ATOM      6  C   UNL     1       5.028   5.242  17.219  0.00  0.00    +0.000 A 
ATOM      7  C   UNL     1       4.823   4.105  16.427  0.00  0.00    +0.000 A 
ATOM      8  C   UNL     1       5.775   3.731  15.478  0.00  0.00    +0.000 A 
ATOM      9  C   UNL     1       6.938   4.483  15.321  0.00  0.00    +0.000 A 
ATOM     10  C   UNL     1       7.152   5.612  16.108  0.00  0.00    +0.000 A 
ATOM     11  C   UNL     1       6.198   5.996  17.049  0.00  0.00    +0.000 A 
ENDBRANCH   3   6
BRANCH   5  12
ATOM     12  C   UNL     1       1.833   8.126  19.456  0.00  0.00    +0.000 C 
ATOM     13  O   UNL     1       1.495   8.900  18.567  0.00  0.00    +0.000 OA
ATOM     14  N   UNL     1       1.549   8.281  20.807  0.00  0.00    +0.000 N 
ATOM     15  H   UNL     1       2.000   7.605  21.418  0.00  0.00    +0.000 HD
BRANCH  14  16
ATOM     16  C   UNL     1       0.783   9.318  21.380  0.00  0.00    +0.000 A 
ATOM     17  C   UNL     1       0.757  10.609  20.849  0.00  0.00    +0.000 A 
ATOM     18  C   UNL     1      -0.006  11.617  21.436  0.00  0.00    +0.000 A 
ATOM     19  C   UNL     1      -0.771  11.354  22.573  0.00  0.00    +0.000 A 
ATOM     20  C   UNL     1      -1.601  12.439  23.187  0.00  0.00    +0.000 C 
ATOM     21  C   UNL     1      -0.749  10.063  23.114  0.00  0.00    +0.000 A 
ATOM     22  C   UNL     1       0.012   9.047  22.515  0.00  0.00    +0.000 A 
ENDBRANCH  14  16
ENDBRANCH   5  12
BRANCH   1  24
ATOM     23  C   UNL     1       1.412   3.900  20.806  0.00  0.00    +0.000 C 
ATOM     24  O   UNL     1       1.669   5.297  20.734  0.00  0.00    +0.000 OA
ENDBRANCH   1  24
TORSDOF 4
ENDMDL
MODEL 5
REMARK VINA RESULT:      -7.4      0.951      1.492
REMARK  Name = 
REMARK  6 active torsions:
REMARK  status: ('A' for Active; 'I' for Inactive)
REMARK    1  A    between atoms: C_1  and  O_2
REMARK    2  A    between atoms: O_2  and  C_3
REMARK    3  A    between atoms: N_5  and  C_6
REMARK    4  A    between atoms: C_13  and  C_14
REMARK    5  A    between atoms: N_16  and  C_17
REMARK    6  A    between atoms: C_20  and  C_21
REMARK                            x       y       z     vdW  Elec       q    Type
REMARK                         _______ _______ _______ _____ _____    ______ ____
ROOT
ATOM      1  C   UNL     1       6.300   4.948  17.902  0.00  0.00    +0.000 A 
ATOM      2  C   UNL     1       6.971   4.531  16.785  0.00  0.00    +0.000 A 
ATOM      3  N   UNL     1       6.187   4.858  15.705  0.00  0.00    +0.000 N 
ATOM      4  N   UNL     1       5.046   5.502  16.081  0.00  0.00    +0.000 NA
ATOM      5  C   UNL     1       5.083   5.501  17.430  0.00  0.00    +0.000 A 
ENDROOT
BRANCH   3   6
ATOM      6  C   UNL     1       6.452   4.569  14.339  0.00  0.00    +0.000 A 
ATOM      7  C   UNL     1       7.507   5.192  13.660  0.00  0.00    +0.000 A 
ATOM      8  C   UNL     1       7.766   4.875  12.326  0.00  0.00    +0.000 A 
ATOM      9  C   UNL     1       6.969   3.945  11.662  0.00  0.00    +0.000 A 
ATOM     10  C   UNL     1       5.915   3.326  12.328  0.00  0.00    +0.000 A 
ATOM     11  C   UNL     1       5.660   3.630  13.664  0.00  0.00    +0.000 A 
ENDBRANCH   3   6
BRANCH   5  12
ATOM     12  C   UNL     1       3.974   6.011  18.251  0.00  0.00    +0.000 C 
ATOM     13  O   UNL     1       3.463   5.319  19.126  0.00  0.00    +0.000 OA
ATOM     14  N   UNL     1       3.563   7.290  17.897  0.00  0.00    +0.000 N 
ATOM     15  H   UNL     1       4.024   7.675  17.077  0.00  0.00    +0.000 HD
BRANCH  14  16
ATOM     16  C   UNL     1       2.532   8.031  18.513  0.00  0.00    +0.000 A 
ATOM     17  C   UNL     1       2.147   7.816  19.838  0.00  0.00    +0.000 A 
ATOM     18  C   UNL     1       1.123   8.560  20.423  0.00  0.00    +0.000 A 
ATOM     19  C   UNL     1       0.458   9.545  19.692  0.00  0.00    +0.000 A 
ATOM     20  C   UNL     1      -0.630  10.351  20.333  0.00  0.00    +0.000 C 
ATOM     21  C   UNL     1       0.836   9.765  18.361  0.00  0.00    +0.000 A 
ATOM     22  C   UNL     1       1.874   9.023  17.779  0.00  0.00    +0.000 A 
ENDBRANCH  14  16
ENDBRANCH   5  12
BRANCH   1  24
ATOM     23  C   UNL     1       7.687   5.685  19.632  0.00  0.00    +0.000 C 
ATOM     24  O   UNL     1       6.673   4.789  19.192  0.00  0.00    +0.000 OA
ENDBRANCH   1  24
TORSDOF 4
ENDMDL
MODEL 6
REMARK VINA RESULT:      -7.4      0.848      1.738
REMARK  Name = 
REMARK  6 active torsions:
REMARK  status: ('A' for Active; 'I' for Inactive)
REMARK    1  A    between atoms: C_1  and  O_2
REMARK    2  A    between atoms: O_2  and  C_3
REMARK    3  A    between atoms: N_5  and  C_6
REMARK    4  A    between atoms: C_13  and  C_14
REMARK    5  A    between atoms: N_16  and  C_17
REMARK    6  A    between atoms: C_20  and  C_21
REMARK                            x       y       z     vdW  Elec       q    Type
REMARK                         _______ _______ _______ _____ _____    ______ ____
ROOT
ATOM      1  C   UNL     1       6.070   5.030  17.936  0.00  0.00    +0.000 A 
ATOM      2  C   UNL     1       6.789   4.601  16.853  0.00  0.00    +0.000 A 
ATOM      3  N   UNL     1       6.051   4.915  15.737  0.00  0.00    +0.000 N 
ATOM      4  N   UNL     1       4.896   5.563  16.057  0.00  0.00    +0.000 NA
ATOM      5  C   UNL     1       4.875   5.578  17.407  0.00  0.00    +0.000 A 
ENDROOT
BRANCH   3   6
ATOM      6  C   UNL     1       6.374   4.610  14.388  0.00  0.00    +0.000 A 
ATOM      7  C   UNL     1       7.465   5.215  13.751  0.00  0.00    +0.000 A 
ATOM      8  C   UNL     1       7.780   4.883  12.433  0.00  0.00    +0.000 A 
ATOM      9  C   UNL     1       7.003   3.956  11.742  0.00  0.00    +0.000 A 
ATOM     10  C   UNL     1       5.913   3.354  12.365  0.00  0.00    +0.000 A 
ATOM     11  C   UNL     1       5.602   3.673  13.686  0.00  0.00    +0.000 A 
ENDBRANCH   3   6
BRANCH   5  12
ATOM     12  C   UNL     1       3.732   6.097  18.174  0.00  0.00    +0.000 C 
ATOM     13  O   UNL     1       3.107   5.376  18.945  0.00  0.00    +0.000 OA
ATOM     14  N   UNL     1       3.432   7.425  17.894  0.00  0.00    +0.000 N 
ATOM     15  H   UNL     1       3.985   7.839  17.148  0.00  0.00    +0.000 HD
BRANCH  14  16
ATOM     16  C   UNL     1       2.398   8.184  18.482  0.00  0.00    +0.000 A 
ATOM     17  C   UNL     1       1.678   9.145  17.769  0.00  0.00    +0.000 A 
ATOM     18  C   UNL     1       0.663   9.884  18.375  0.00  0.00    +0.000 A 
ATOM     19  C   UNL     1       0.339   9.675  19.716  0.00  0.00    +0.000 A 
ATOM     20  C   UNL     1      -0.763  10.462  20.354  0.00  0.00    +0.000 C 
ATOM     21  C   UNL     1       1.059   8.715  20.439  0.00  0.00    +0.000 A 
ATOM     22  C   UNL     1       2.073   7.965  19.824  0.00  0.00    +0.000 A 
ENDBRANCH  14  16
ENDBRANCH   5  12
BRANCH   1  24
ATOM     23  C   UNL     1       7.560   5.582  19.649  0.00  0.00    +0.000 C 
ATOM     24  O   UNL     1       6.388   4.887  19.242  0.00  0.00    +0.000 OA
ENDBRANCH   1  24
TORSDOF 4
ENDMDL
MODEL 7
REMARK VINA RESULT:      -7.4      2.107      3.644
REMARK  Name = 
REMARK  6 active torsions:
REMARK  status: ('A' for Active; 'I' for Inactive)
REMARK    1  A    between atoms: C_1  and  O_2
REMARK    2  A    between atoms: O_2  and  C_3
REMARK    3  A    between atoms: N_5  and  C_6
REMARK    4  A    between atoms: C_13  and  C_14
REMARK    5  A    between atoms: N_16  and  C_17
REMARK    6  A    between atoms: C_20  and  C_21
REMARK                            x       y       z     vdW  Elec       q    Type
REMARK                         _______ _______ _______ _____ _____    ______ ____
ROOT
ATOM      1  C   UNL     1       2.470   5.768  19.668  0.00  0.00    +0.000 A 
ATOM      2  C   UNL     1       3.367   4.980  18.998  0.00  0.00    +0.000 A 
ATOM      3  N   UNL     1       3.993   5.787  18.078  0.00  0.00    +0.000 N 
ATOM      4  N   UNL     1       3.559   7.076  18.151  0.00  0.00    +0.000 NA
ATOM      5  C   UNL     1       2.580   7.053  19.080  0.00  0.00    +0.000 A 
ENDROOT
BRANCH   3   6
ATOM      6  C   UNL     1       4.963   5.391  17.118  0.00  0.00    +0.000 A 
ATOM      7  C   UNL     1       6.116   6.156  16.897  0.00  0.00    +0.000 A 
ATOM      8  C   UNL     1       7.068   5.736  15.967  0.00  0.00    +0.000 A 
ATOM      9  C   UNL     1       6.870   4.561  15.247  0.00  0.00    +0.000 A 
ATOM     10  C   UNL     1       5.724   3.797  15.456  0.00  0.00    +0.000 A 
ATOM     11  C   UNL     1       4.776   4.206  16.393  0.00  0.00    +0.000 A 
ENDBRANCH   3   6
BRANCH   5  12
ATOM     12  C   UNL     1       1.761   8.235  19.395  0.00  0.00    +0.000 C 
ATOM     13  O   UNL     1       1.410   9.014  18.515  0.00  0.00    +0.000 OA
ATOM     14  N   UNL     1       1.491   8.379  20.750  0.00  0.00    +0.000 N 
ATOM     15  H   UNL     1       1.952   7.701  21.351  0.00  0.00    +0.000 HD
BRANCH  14  16
ATOM     16  C   UNL     1       0.726   9.408  21.339  0.00  0.00    +0.000 A 
ATOM     17  C   UNL     1       0.686  10.702  20.815  0.00  0.00    +0.000 A 
ATOM     18  C   UNL     1      -0.075  11.703  21.417  0.00  0.00    +0.000 A 
ATOM     19  C   UNL     1      -0.823  11.430  22.563  0.00  0.00    +0.000 A 
ATOM     20  C   UNL     1      -1.651  12.506  23.194  0.00  0.00    +0.000 C 
ATOM     21  C   UNL     1      -0.786  10.135  23.097  0.00  0.00    +0.000 A 
ATOM     22  C   UNL     1      -0.027   9.127  22.482  0.00  0.00    +0.000 A 
ENDBRANCH  14  16
ENDBRANCH   5  12
BRANCH   1  24
ATOM     23  C   UNL     1       1.848   4.100  21.181  0.00  0.00    +0.000 C 
ATOM     24  O   UNL     1       1.599   5.387  20.628  0.00  0.00    +0.000 OA
ENDBRANCH   1  24
TORSDOF 4
ENDMDL
MODEL 8
REMARK VINA RESULT:      -7.3      4.628      5.275
REMARK  Name = 
REMARK  6 active torsions:
REMARK  status: ('A' for Active; 'I' for Inactive)
REMARK    1  A    between atoms: C_1  and  O_2
REMARK    2  A    between atoms: O_2  and  C_3
REMARK    3  A    between atoms: N_5  and  C_6
REMARK    4  A    between atoms: C_13  and  C_14
REMARK    5  A    between atoms: N_16  and  C_17
REMARK    6  A    between atoms: C_20  and  C_21
REMARK                            x       y       z     vdW  Elec       q    Type
REMARK                         _______ _______ _______ _____ _____    ______ ____
ROOT
ATOM      1  C   UNL     1       5.907   5.709  17.543  0.00  0.00    +0.000 A 
ATOM      2  C   UNL     1       5.558   4.975  16.443  0.00  0.00    +0.000 A 
ATOM      3  N   UNL     1       6.542   5.173  15.504  0.00  0.00    +0.000 N 
ATOM      4  N   UNL     1       7.533   5.983  15.970  0.00  0.00    +0.000 NA
ATOM      5  C   UNL     1       7.115   6.364  17.196  0.00  0.00    +0.000 A 
ENDROOT
BRANCH   3   6
ATOM      6  C   UNL     1       6.576   4.655  14.182  0.00  0.00    +0.000 A 
ATOM      7  C   UNL     1       5.628   3.719  13.748  0.00  0.00    +0.000 A 
ATOM      8  C   UNL     1       5.664   3.241  12.438  0.00  0.00    +0.000 A 
ATOM      9  C   UNL     1       6.650   3.685  11.559  0.00  0.00    +0.000 A 
ATOM     10  C   UNL     1       7.599   4.611  11.984  0.00  0.00    +0.000 A 
ATOM     11  C   UNL     1       7.560   5.101  13.288  0.00  0.00    +0.000 A 
ENDBRANCH   3   6
BRANCH   5  12
ATOM     12  C   UNL     1       7.851   7.340  18.014  0.00  0.00    +0.000 C 
ATOM     13  O   UNL     1       8.420   7.000  19.047  0.00  0.00    +0.000 OA
ATOM     14  N   UNL     1       7.784   8.639  17.525  0.00  0.00    +0.000 N 
ATOM     15  H   UNL     1       7.179   8.759  16.717  0.00  0.00    +0.000 HD
BRANCH  14  16
ATOM     16  C   UNL     1       8.398   9.774  18.096  0.00  0.00    +0.000 A 
ATOM     17  C   UNL     1       9.170   9.700  19.257  0.00  0.00    +0.000 A 
ATOM     18  C   UNL     1       9.765  10.837  19.802  0.00  0.00    +0.000 A 
ATOM     19  C   UNL     1       9.603  12.082  19.193  0.00  0.00    +0.000 A 
ATOM     20  C   UNL     1      10.258  13.295  19.777  0.00  0.00    +0.000 C 
ATOM     21  C   UNL     1       8.827  12.165  18.030  0.00  0.00    +0.000 A 
ATOM     22  C   UNL     1       8.239  11.017  17.476  0.00  0.00    +0.000 A 
ENDBRANCH  14  16
ENDBRANCH   5  12
BRANCH   1  24
ATOM     23  C   UNL     1       4.650   4.648  19.203  0.00  0.00    +0.000 C 
ATOM     24  O   UNL     1       5.208   5.852  18.692  0.00  0.00    +0.000 OA
ENDBRANCH   1  24
TORSDOF 4
ENDMDL
MODEL 9
REMARK VINA RESULT:      -7.3      1.122      1.287
REMARK  Name = 
REMARK  6 active torsions:
REMARK  status: ('A' for Active; 'I' for Inactive)
REMARK    1  A    between atoms: C_1  and  O_2
REMARK    2  A    between atoms: O_2  and  C_3
REMARK    3  A    between atoms: N_5  and  C_6
REMARK    4  A    between atoms: C_13  and  C_14
REMARK    5  A    between atoms: N_16  and  C_17
REMARK    6  A    between atoms: C_20  and  C_21
REMARK                            x       y       z     vdW  Elec       q    Type
REMARK                         _______ _______ _______ _____ _____    ______ ____
ROOT
ATOM      1  C   UNL     1       6.560   4.886  17.815  0.00  0.00    +0.000 A 
ATOM      2  C   UNL     1       7.134   4.422  16.662  0.00  0.00    +0.000 A 
ATOM      3  N   UNL     1       6.289   4.763  15.633  0.00  0.00    +0.000 N 
ATOM      4  N   UNL     1       5.205   5.461  16.075  0.00  0.00    +0.000 NA
ATOM      5  C   UNL     1       5.337   5.482  17.418  0.00  0.00    +0.000 A 
ENDROOT
BRANCH   3   6
ATOM      6  C   UNL     1       6.445   4.438  14.259  0.00  0.00    +0.000 A 
ATOM      7  C   UNL     1       5.609   3.499  13.639  0.00  0.00    +0.000 A 
ATOM      8  C   UNL     1       5.763   3.213  12.282  0.00  0.00    +0.000 A 
ATOM      9  C   UNL     1       6.756   3.852  11.542  0.00  0.00    +0.000 A 
ATOM     10  C   UNL     1       7.594   4.782  12.152  0.00  0.00    +0.000 A 
ATOM     11  C   UNL     1       7.436   5.080  13.504  0.00  0.00    +0.000 A 
ENDBRANCH   3   6
BRANCH   5  12
ATOM     12  C   UNL     1       4.311   6.053  18.304  0.00  0.00    +0.000 C 
ATOM     13  O   UNL     1       4.058   5.544  19.392  0.00  0.00    +0.000 OA
ATOM     14  N   UNL     1       3.659   7.155  17.763  0.00  0.00    +0.000 N 
ATOM     15  H   UNL     1       3.919   7.375  16.805  0.00  0.00    +0.000 HD
BRANCH  14  16
ATOM     16  C   UNL     1       2.641   7.906  18.386  0.00  0.00    +0.000 A 
ATOM     17  C   UNL     1       2.231   7.663  19.699  0.00  0.00    +0.000 A 
ATOM     18  C   UNL     1       1.220   8.418  20.292  0.00  0.00    +0.000 A 
ATOM     19  C   UNL     1       0.595   9.444  19.583  0.00  0.00    +0.000 A 
ATOM     20  C   UNL     1      -0.478  10.261  20.233  0.00  0.00    +0.000 C 
ATOM     21  C   UNL     1       0.999   9.693  18.265  0.00  0.00    +0.000 A 
ATOM     22  C   UNL     1       2.024   8.938  17.674  0.00  0.00    +0.000 A 
ENDBRANCH  14  16
ENDBRANCH   5  12
BRANCH   1  24
ATOM     23  C   UNL     1       7.850   5.791  19.540  0.00  0.00    +0.000 C 
ATOM     24  O   UNL     1       7.017   4.735  19.079  0.00  0.00    +0.000 OA
ENDBRANCH   1  24
TORSDOF 4
ENDMDL
