MODEL 1
REMARK VINA RESULT:      -6.5      0.000      0.000
REMARK  Name = 
REMARK  4 active torsions:
REMARK  status: ('A' for Active; 'I' for Inactive)
REMARK    1  A    between atoms: C_1  and  S_2
REMARK    2  A    between atoms: S_2  and  C_3
REMARK    3  A    between atoms: C_8  and  C_9
REMARK    4  A    between atoms: N_11  and  C_12
REMARK                            x       y       z     vdW  Elec       q    Type
REMARK                         _______ _______ _______ _____ _____    ______ ____
ROOT
ATOM      1  C   UNL     1       2.703   3.618  19.084  0.00  0.00    +0.000 A 
ATOM      2  C   UNL     1       2.148   4.869  19.324  0.00  0.00    +0.000 A 
ATOM      3  C   UNL     1       2.662   5.998  18.677  0.00  0.00    +0.000 A 
ATOM      4  C   UNL     1       3.729   5.885  17.770  0.00  0.00    +0.000 A 
ATOM      5 CL   UNL     1       4.265   7.352  17.031  0.00  0.00    +0.000 Cl
ATOM      6  C   UNL     1       4.302   4.631  17.522  0.00  0.00    +0.000 A 
ATOM      7  C   UNL     1       3.773   3.505  18.188  0.00  0.00    +0.000 A 
ENDROOT
BRANCH   6   8
ATOM      8  C   UNL     1       5.459   4.360  16.611  0.00  0.00    +0.000 C 
ATOM      9  O   UNL     1       6.568   4.172  17.102  0.00  0.00    +0.000 OA
ATOM     10  N   UNL     1       5.229   4.277  15.253  0.00  0.00    +0.000 N 
ATOM     11  H   UNL     1       4.326   4.561  14.892  0.00  0.00    +0.000 HD
BRANCH  10  12
ATOM     12  C   UNL     1       6.292   3.984  14.306  0.00  0.00    +0.000 C 
ATOM     13  C   UNL     1       5.757   3.551  12.946  0.00  0.00    +0.000 C 
ATOM     14  C   UNL     1       6.935   3.750  12.005  0.00  0.00    +0.000 C 
ATOM     15  C   UNL     1       7.731   4.920  12.578  0.00  0.00    +0.000 C 
ATOM     16  C   UNL     1       7.167   5.193  13.974  0.00  0.00    +0.000 C 
ENDBRANCH  10  12
ENDBRANCH   6   8
BRANCH   1  18
ATOM     17  C   UNL     1       1.693   2.828  21.528  0.00  0.00    +0.000 C 
ATOM     18  S   UNL     1       1.971   2.188  19.856  0.00  0.00    +0.000 S 
ENDBRANCH   1  18
TORSDOF 3
ENDMDL
MODEL 2
REMARK VINA RESULT:      -6.2      2.577      6.532
REMARK  Name = 
REMARK  4 active torsions:
REMARK  status: ('A' for Active; 'I' for Inactive)
REMARK    1  A    between atoms: C_1  and  S_2
REMARK    2  A    between atoms: S_2  and  C_3
REMARK    3  A    between atoms: C_8  and  C_9
REMARK    4  A    between atoms: N_11  and  C_12
REMARK                            x       y       z     vdW  Elec       q    Type
REMARK                         _______ _______ _______ _____ _____    ______ ____
ROOT
ATOM      1  C   UNL     1       5.986   4.226  14.470  0.00  0.00    +0.000 A 
ATOM      2  C   UNL     1       7.097   5.060  14.481  0.00  0.00    +0.000 A 
ATOM      3  C   UNL     1       7.572   5.578  15.691  0.00  0.00    +0.000 A 
ATOM      4  C   UNL     1       6.947   5.254  16.907  0.00  0.00    +0.000 A 
ATOM      5 CL   UNL     1       7.633   5.950  18.331  0.00  0.00    +0.000 Cl
ATOM      6  C   UNL     1       5.823   4.418  16.911  0.00  0.00    +0.000 A 
ATOM      7  C   UNL     1       5.357   3.910  15.680  0.00  0.00    +0.000 A 
ENDROOT
BRANCH   6   8
ATOM      8  C   UNL     1       5.035   4.013  18.119  0.00  0.00    +0.000 C 
ATOM      9  O   UNL     1       5.616   3.892  19.192  0.00  0.00    +0.000 OA
ATOM     10  N   UNL     1       3.671   3.841  17.994  0.00  0.00    +0.000 N 
ATOM     11  H   UNL     1       3.263   3.832  17.066  0.00  0.00    +0.000 HD
BRANCH  10  12
ATOM     12  C   UNL     1       2.831   3.482  19.124  0.00  0.00    +0.000 C 
ATOM     13  C   UNL     1       2.233   4.701  19.816  0.00  0.00    +0.000 C 
ATOM     14  C   UNL     1       1.068   4.137  20.616  0.00  0.00    +0.000 C 
ATOM     15  C   UNL     1       0.562   2.935  19.821  0.00  0.00    +0.000 C 
ATOM     16  C   UNL     1       1.604   2.657  18.736  0.00  0.00    +0.000 C 
ENDBRANCH  10  12
ENDBRANCH   6   8
BRANCH   1  18
ATOM     17  C   UNL     1       6.969   3.712  11.943  0.00  0.00    +0.000 C 
ATOM     18  S   UNL     1       5.459   3.512  12.924  0.00  0.00    +0.000 S 
ENDBRANCH   1  18
TORSDOF 3
ENDMDL
MODEL 3
REMARK VINA RESULT:      -6.1      2.721      6.571
REMARK  Name = 
REMARK  4 active torsions:
REMARK  status: ('A' for Active; 'I' for Inactive)
REMARK    1  A    between atoms: C_1  and  S_2
REMARK    2  A    between atoms: S_2  and  C_3
REMARK    3  A    between atoms: C_8  and  C_9
REMARK    4  A    between atoms: N_11  and  C_12
REMARK                            x       y       z     vdW  Elec       q    Type
REMARK                         _______ _______ _______ _____ _____    ______ ____
ROOT
ATOM      1  C   UNL     1       5.813   4.168  14.445  0.00  0.00    +0.000 A 
ATOM      2  C   UNL     1       7.025   4.805  14.681  0.00  0.00    +0.000 A 
ATOM      3  C   UNL     1       7.372   5.190  15.981  0.00  0.00    +0.000 A 
ATOM      4  C   UNL     1       6.513   4.929  17.062  0.00  0.00    +0.000 A 
ATOM      5 CL   UNL     1       7.060   5.448  18.617  0.00  0.00    +0.000 Cl
ATOM      6  C   UNL     1       5.286   4.293  16.839  0.00  0.00    +0.000 A 
ATOM      7  C   UNL     1       4.953   3.916  15.520  0.00  0.00    +0.000 A 
ENDROOT
BRANCH   6   8
ATOM      8  C   UNL     1       4.258   3.979  17.881  0.00  0.00    +0.000 C 
ATOM      9  O   UNL     1       3.659   4.903  18.421  0.00  0.00    +0.000 OA
ATOM     10  N   UNL     1       3.979   2.656  18.160  0.00  0.00    +0.000 N 
ATOM     11  H   UNL     1       4.585   1.938  17.779  0.00  0.00    +0.000 HD
BRANCH  10  12
ATOM     12  C   UNL     1       2.971   2.267  19.133  0.00  0.00    +0.000 C 
ATOM     13  C   UNL     1       3.283   2.786  20.532  0.00  0.00    +0.000 C 
ATOM     14  C   UNL     1       1.951   2.700  21.263  0.00  0.00    +0.000 C 
ATOM     15  C   UNL     1       0.879   2.916  20.197  0.00  0.00    +0.000 C 
ATOM     16  C   UNL     1       1.586   2.843  18.842  0.00  0.00    +0.000 C 
ENDBRANCH  10  12
ENDBRANCH   6   8
BRANCH   1  18
ATOM     17  C   UNL     1       7.052   3.843  12.000  0.00  0.00    +0.000 C 
ATOM     18  S   UNL     1       5.439   3.611  12.794  0.00  0.00    +0.000 S 
ENDBRANCH   1  18
TORSDOF 3
ENDMDL
MODEL 4
REMARK VINA RESULT:      -6.1      2.602      3.183
REMARK  Name = 
REMARK  4 active torsions:
REMARK  status: ('A' for Active; 'I' for Inactive)
REMARK    1  A    between atoms: C_1  and  S_2
REMARK    2  A    between atoms: S_2  and  C_3
REMARK    3  A    between atoms: C_8  and  C_9
REMARK    4  A    between atoms: N_11  and  C_12
REMARK                            x       y       z     vdW  Elec       q    Type
REMARK                         _______ _______ _______ _____ _____    ______ ____
ROOT
ATOM      1  C   UNL     1       2.225   6.646  19.793  0.00  0.00    +0.000 A 
ATOM      2  C   UNL     1       1.630   5.787  20.709  0.00  0.00    +0.000 A 
ATOM      3  C   UNL     1       2.102   4.478  20.850  0.00  0.00    +0.000 A 
ATOM      4  C   UNL     1       3.186   4.017  20.084  0.00  0.00    +0.000 A 
ATOM      5 CL   UNL     1       3.679   2.384  20.357  0.00  0.00    +0.000 Cl
ATOM      6  C   UNL     1       3.793   4.869  19.153  0.00  0.00    +0.000 A 
ATOM      7  C   UNL     1       3.300   6.185  19.022  0.00  0.00    +0.000 A 
ENDROOT
BRANCH   6   8
ATOM      8  C   UNL     1       4.931   4.512  18.246  0.00  0.00    +0.000 C 
ATOM      9  O   UNL     1       5.992   4.150  18.743  0.00  0.00    +0.000 OA
ATOM     10  N   UNL     1       4.728   4.550  16.882  0.00  0.00    +0.000 N 
ATOM     11  H   UNL     1       3.878   4.972  16.525  0.00  0.00    +0.000 HD
BRANCH  10  12
ATOM     12  C   UNL     1       5.770   4.185  15.936  0.00  0.00    +0.000 C 
ATOM     13  C   UNL     1       5.219   3.906  14.542  0.00  0.00    +0.000 C 
ATOM     14  C   UNL     1       6.436   4.014  13.636  0.00  0.00    +0.000 C 
ATOM     15  C   UNL     1       7.355   5.040  14.296  0.00  0.00    +0.000 C 
ATOM     16  C   UNL     1       6.794   5.294  15.696  0.00  0.00    +0.000 C 
ENDBRANCH  10  12
ENDBRANCH   6   8
BRANCH   1  18
ATOM     17  C   UNL     1       1.177   8.610  21.424  0.00  0.00    +0.000 C 
ATOM     18  S   UNL     1       1.659   8.333  19.699  0.00  0.00    +0.000 S 
ENDBRANCH   1  18
TORSDOF 3
ENDMDL
MODEL 5
REMARK VINA RESULT:      -6.0      2.602      6.495
REMARK  Name = 
REMARK  4 active torsions:
REMARK  status: ('A' for Active; 'I' for Inactive)
REMARK    1  A    between atoms: C_1  and  S_2
REMARK    2  A    between atoms: S_2  and  C_3
REMARK    3  A    between atoms: C_8  and  C_9
REMARK    4  A    between atoms: N_11  and  C_12
REMARK                            x       y       z     vdW  Elec       q    Type
REMARK                         _______ _______ _______ _____ _____    ______ ____
ROOT
ATOM      1  C   UNL     1       5.990   4.181  14.500  0.00  0.00    +0.000 A 
ATOM      2  C   UNL     1       7.150   4.890  14.786  0.00  0.00    +0.000 A 
ATOM      3  C   UNL     1       7.386   5.349  16.087  0.00  0.00    +0.000 A 
ATOM      4  C   UNL     1       6.469   5.091  17.119  0.00  0.00    +0.000 A 
ATOM      5 CL   UNL     1       6.880   5.705  18.681  0.00  0.00    +0.000 Cl
ATOM      6  C   UNL     1       5.292   4.382  16.844  0.00  0.00    +0.000 A 
ATOM      7  C   UNL     1       5.071   3.931  15.525  0.00  0.00    +0.000 A 
ENDROOT
BRANCH   6   8
ATOM      8  C   UNL     1       4.211   4.060  17.829  0.00  0.00    +0.000 C 
ATOM      9  O   UNL     1       4.398   3.160  18.642  0.00  0.00    +0.000 OA
ATOM     10  N   UNL     1       3.062   4.824  17.824  0.00  0.00    +0.000 N 
ATOM     11  H   UNL     1       2.906   5.469  17.058  0.00  0.00    +0.000 HD
BRANCH  10  12
ATOM     12  C   UNL     1       1.980   4.598  18.769  0.00  0.00    +0.000 C 
ATOM     13  C   UNL     1       1.374   3.205  18.639  0.00  0.00    +0.000 C 
ATOM     14  C   UNL     1       0.638   2.998  19.954  0.00  0.00    +0.000 C 
ATOM     15  C   UNL     1       1.423   3.789  20.998  0.00  0.00    +0.000 C 
ATOM     16  C   UNL     1       2.423   4.656  20.231  0.00  0.00    +0.000 C 
ENDBRANCH  10  12
ENDBRANCH   6   8
BRANCH   1  18
ATOM     17  C   UNL     1       7.213   4.229  12.026  0.00  0.00    +0.000 C 
ATOM     18  S   UNL     1       5.760   3.533  12.855  0.00  0.00    +0.000 S 
ENDBRANCH   1  18
TORSDOF 3
ENDMDL
MODEL 6
REMARK VINA RESULT:      -5.9      1.653      1.803
REMARK  Name = 
REMARK  4 active torsions:
REMARK  status: ('A' for Active; 'I' for Inactive)
REMARK    1  A    between atoms: C_1  and  S_2
REMARK    2  A    between atoms: S_2  and  C_3
REMARK    3  A    between atoms: C_8  and  C_9
REMARK    4  A    between atoms: N_11  and  C_12
REMARK                            x       y       z     vdW  Elec       q    Type
REMARK                         _______ _______ _______ _____ _____    ______ ____
ROOT
ATOM      1  C   UNL     1       3.210   4.395  18.235  0.00  0.00    +0.000 A 
ATOM      2  C   UNL     1       3.573   4.988  19.438  0.00  0.00    +0.000 A 
ATOM      3  C   UNL     1       4.891   5.414  19.638  0.00  0.00    +0.000 A 
ATOM      4  C   UNL     1       5.857   5.264  18.630  0.00  0.00    +0.000 A 
ATOM      5 CL   UNL     1       7.445   5.837  18.997  0.00  0.00    +0.000 Cl
ATOM      6  C   UNL     1       5.508   4.663  17.413  0.00  0.00    +0.000 A 
ATOM      7  C   UNL     1       4.175   4.236  17.232  0.00  0.00    +0.000 A 
ENDROOT
BRANCH   6   8
ATOM      8  C   UNL     1       6.432   4.406  16.263  0.00  0.00    +0.000 C 
ATOM      9  O   UNL     1       7.635   4.306  16.481  0.00  0.00    +0.000 OA
ATOM     10  N   UNL     1       5.892   4.236  15.005  0.00  0.00    +0.000 N 
ATOM     11  H   UNL     1       4.912   4.449  14.860  0.00  0.00    +0.000 HD
BRANCH  10  12
ATOM     12  C   UNL     1       6.717   3.949  13.842  0.00  0.00    +0.000 C 
ATOM     13  C   UNL     1       5.908   3.391  12.678  0.00  0.00    +0.000 C 
ATOM     14  C   UNL     1       6.807   3.603  11.469  0.00  0.00    +0.000 C 
ATOM     15  C   UNL     1       7.620   4.859  11.772  0.00  0.00    +0.000 C 
ATOM     16  C   UNL     1       7.386   5.188  13.248  0.00  0.00    +0.000 C 
ENDBRANCH  10  12
ENDBRANCH   6   8
BRANCH   1  18
ATOM     17  C   UNL     1       1.498   2.280  18.694  0.00  0.00    +0.000 C 
ATOM     18  S   UNL     1       1.506   3.944  17.976  0.00  0.00    +0.000 S 
ENDBRANCH   1  18
TORSDOF 3
ENDMDL
MODEL 7
REMARK VINA RESULT:      -5.9      2.168      2.894
REMARK  Name = 
REMARK  4 active torsions:
REMARK  status: ('A' for Active; 'I' for Inactive)
REMARK    1  A    between atoms: C_1  and  S_2
REMARK    2  A    between atoms: S_2  and  C_3
REMARK    3  A    between atoms: C_8  and  C_9
REMARK    4  A    between atoms: N_11  and  C_12
REMARK                            x       y       z     vdW  Elec       q    Type
REMARK                         _______ _______ _______ _____ _____    ______ ____
ROOT
ATOM      1  C   UNL     1       2.541   6.151  19.158  0.00  0.00    +0.000 A 
ATOM      2  C   UNL     1       1.854   5.135  19.812  0.00  0.00    +0.000 A 
ATOM      3  C   UNL     1       2.249   3.803  19.643  0.00  0.00    +0.000 A 
ATOM      4  C   UNL     1       3.346   3.475  18.828  0.00  0.00    +0.000 A 
ATOM      5 CL   UNL     1       3.737   1.796  18.708  0.00  0.00    +0.000 Cl
ATOM      6  C   UNL     1       4.044   4.488  18.159  0.00  0.00    +0.000 A 
ATOM      7  C   UNL     1       3.628   5.825  18.339  0.00  0.00    +0.000 A 
ENDROOT
BRANCH   6   8
ATOM      8  C   UNL     1       5.207   4.290  17.236  0.00  0.00    +0.000 C 
ATOM      9  O   UNL     1       6.334   4.201  17.713  0.00  0.00    +0.000 OA
ATOM     10  N   UNL     1       4.965   4.161  15.883  0.00  0.00    +0.000 N 
ATOM     11  H   UNL     1       4.036   4.365  15.531  0.00  0.00    +0.000 HD
BRANCH  10  12
ATOM     12  C   UNL     1       6.034   3.933  14.925  0.00  0.00    +0.000 C 
ATOM     13  C   UNL     1       5.509   3.665  13.520  0.00  0.00    +0.000 C 
ATOM     14  C   UNL     1       6.710   3.922  12.622  0.00  0.00    +0.000 C 
ATOM     15  C   UNL     1       7.533   4.997  13.327  0.00  0.00    +0.000 C 
ATOM     16  C   UNL     1       6.953   5.140  14.736  0.00  0.00    +0.000 C 
ENDBRANCH  10  12
ENDBRANCH   6   8
BRANCH   1  18
ATOM     17  C   UNL     1       2.193   8.520  17.787  0.00  0.00    +0.000 C 
ATOM     18  S   UNL     1       2.071   7.843  19.463  0.00  0.00    +0.000 S 
ENDBRANCH   1  18
TORSDOF 3
ENDMDL
MODEL 8
REMARK VINA RESULT:      -5.9      3.617      4.722
REMARK  Name = 
REMARK  4 active torsions:
REMARK  status: ('A' for Active; 'I' for Inactive)
REMARK    1  A    between atoms: C_1  and  S_2
REMARK    2  A    between atoms: S_2  and  C_3
REMARK    3  A    between atoms: C_8  and  C_9
REMARK    4  A    between atoms: N_11  and  C_12
REMARK                            x       y       z     vdW  Elec       q    Type
REMARK                         _______ _______ _______ _____ _____    ______ ____
ROOT
ATOM      1  C   UNL     1       1.517   9.124  19.214  0.00  0.00    +0.000 A 
ATOM      2  C   UNL     1       1.121   8.850  20.517  0.00  0.00    +0.000 A 
ATOM      3  C   UNL     1       1.329   7.576  21.058  0.00  0.00    +0.000 A 
ATOM      4  C   UNL     1       1.949   6.566  20.304  0.00  0.00    +0.000 A 
ATOM      5 CL   UNL     1       2.154   5.040  21.088  0.00  0.00    +0.000 Cl
ATOM      6  C   UNL     1       2.348   6.825  18.987  0.00  0.00    +0.000 A 
ATOM      7  C   UNL     1       2.126   8.115  18.458  0.00  0.00    +0.000 A 
ENDROOT
BRANCH   6   8
ATOM      8  C   UNL     1       2.988   5.844  18.054  0.00  0.00    +0.000 C 
ATOM      9  O   UNL     1       2.323   4.902  17.637  0.00  0.00    +0.000 OA
ATOM     10  N   UNL     1       4.290   6.065  17.651  0.00  0.00    +0.000 N 
ATOM     11  H   UNL     1       4.831   6.783  18.118  0.00  0.00    +0.000 HD
BRANCH  10  12
ATOM     12  C   UNL     1       4.972   5.178  16.721  0.00  0.00    +0.000 C 
ATOM     13  C   UNL     1       5.311   5.867  15.404  0.00  0.00    +0.000 C 
ATOM     14  C   UNL     1       6.387   4.982  14.792  0.00  0.00    +0.000 C 
ATOM     15  C   UNL     1       7.144   4.375  15.971  0.00  0.00    +0.000 C 
ATOM     16  C   UNL     1       6.329   4.690  17.226  0.00  0.00    +0.000 C 
ENDBRANCH  10  12
ENDBRANCH   6   8
BRANCH   1  18
ATOM     17  C   UNL     1      -0.279  11.216  19.314  0.00  0.00    +0.000 C 
ATOM     18  S   UNL     1       1.320  10.779  18.583  0.00  0.00    +0.000 S 
ENDBRANCH   1  18
TORSDOF 3
ENDMDL
MODEL 9
REMARK VINA RESULT:      -5.9      3.506      6.835
REMARK  Name = 
REMARK  4 active torsions:
REMARK  status: ('A' for Active; 'I' for Inactive)
REMARK    1  A    between atoms: C_1  and  S_2
REMARK    2  A    between atoms: S_2  and  C_3
REMARK    3  A    between atoms: C_8  and  C_9
REMARK    4  A    between atoms: N_11  and  C_12
REMARK                            x       y       z     vdW  Elec       q    Type
REMARK                         _______ _______ _______ _____ _____    ______ ____
ROOT
ATOM      1  C   UNL     1       2.216   3.726  18.273  0.00  0.00    +0.000 A 
ATOM      2  C   UNL     1       3.319   3.425  17.484  0.00  0.00    +0.000 A 
ATOM      3  C   UNL     1       4.186   4.445  17.074  0.00  0.00    +0.000 A 
ATOM      4  C   UNL     1       3.965   5.776  17.463  0.00  0.00    +0.000 A 
ATOM      5 CL   UNL     1       5.110   6.940  16.898  0.00  0.00    +0.000 Cl
ATOM      6  C   UNL     1       2.854   6.096  18.254  0.00  0.00    +0.000 A 
ATOM      7  C   UNL     1       1.989   5.054  18.653  0.00  0.00    +0.000 A 
ENDROOT
BRANCH   6   8
ATOM      8  C   UNL     1       2.471   7.468  18.717  0.00  0.00    +0.000 C 
ATOM      9  O   UNL     1       2.620   8.415  17.952  0.00  0.00    +0.000 OA
ATOM     10  N   UNL     1       1.913   7.612  19.971  0.00  0.00    +0.000 N 
ATOM     11  H   UNL     1       1.926   6.822  20.606  0.00  0.00    +0.000 HD
BRANCH  10  12
ATOM     12  C   UNL     1       1.484   8.904  20.482  0.00  0.00    +0.000 C 
ATOM     13  C   UNL     1       0.166   9.364  19.869  0.00  0.00    +0.000 C 
ATOM     14  C   UNL     1      -0.334  10.433  20.828  0.00  0.00    +0.000 C 
ATOM     15  C   UNL     1       0.183  10.028  22.206  0.00  0.00    +0.000 C 
ATOM     16  C   UNL     1       1.195   8.903  21.983  0.00  0.00    +0.000 C 
ENDBRANCH  10  12
ENDBRANCH   6   8
BRANCH   1  18
ATOM     17  C   UNL     1       1.217   2.709  20.636  0.00  0.00    +0.000 C 
ATOM     18  S   UNL     1       1.182   2.395  18.852  0.00  0.00    +0.000 S 
ENDBRANCH   1  18
TORSDOF 3
ENDMDL
