MODEL 1
REMARK VINA RESULT:      -7.7      0.000      0.000
REMARK  Name = 
REMARK  6 active torsions:
REMARK  status: ('A' for Active; 'I' for Inactive)
REMARK    1  A    between atoms: C_5  and  C_6
REMARK    2  A    between atoms: C_8  and  C_9
REMARK    3  A    between atoms: C_9  and  N_10
REMARK    4  A    between atoms: N_10  and  C_11
REMARK    5  A    between atoms: N_14  and  C_15
REMARK    6  A    between atoms: C_15  and  C_16
REMARK                            x       y       z     vdW  Elec       q    Type
REMARK                         _______ _______ _______ _____ _____    ______ ____
ROOT
ATOM      1  C   UNL     1       7.953   8.674  17.826  0.00  0.00    +0.000 C 
ENDROOT
BRANCH   1   4
ATOM      2  C   UNL     1       9.446  11.860  18.340  0.00  0.00    +0.000 A 
ATOM      3  N   UNL     1       8.742  11.039  17.590  0.00  0.00    +0.000 NA
ATOM      4  C   UNL     1       8.677   9.872  18.323  0.00  0.00    +0.000 A 
ATOM      5  C   UNL     1       9.361  10.044  19.505  0.00  0.00    +0.000 A 
ATOM      6  O   UNL     1       9.870  11.304  19.524  0.00  0.00    +0.000 OA
BRANCH   2  11
ATOM      7 CL   UNL     1      11.240  17.484  17.308  0.00  0.00    +0.000 Cl
ATOM      8  C   UNL     1      10.707  15.876  17.603  0.00  0.00    +0.000 A 
ATOM      9  C   UNL     1      11.318  14.815  16.945  0.00  0.00    +0.000 A 
ATOM     10  C   UNL     1      10.892  13.507  17.196  0.00  0.00    +0.000 A 
ATOM     11  C   UNL     1       9.852  13.242  18.109  0.00  0.00    +0.000 A 
ATOM     12  C   UNL     1       9.243  14.332  18.756  0.00  0.00    +0.000 A 
ATOM     13 CL   UNL     1       7.977  14.150  19.922  0.00  0.00    +0.000 Cl
ATOM     14  C   UNL     1       9.673  15.642  18.504  0.00  0.00    +0.000 A 
ENDBRANCH   2  11
ENDBRANCH   1   4
BRANCH   1  15
ATOM     15  N   UNL     1       8.304   7.540  18.679  0.00  0.00    +0.000 NA
ATOM     16  H   UNL     1       7.995   7.761  19.631  0.00  0.00    +0.000 HD
BRANCH  15  17
ATOM     17  C   UNL     1       7.680   6.287  18.234  0.00  0.00    +0.000 C 
ATOM     18  C   UNL     1       6.629   6.570  17.161  0.00  0.00    +0.000 C 
ATOM     19  C   UNL     1       5.322   6.559  17.934  0.00  0.00    +0.000 C 
ATOM     20  N   UNL     1       5.469   5.466  18.912  0.00  0.00    +0.000 NA
ATOM     21  C   UNL     1       6.875   5.572  19.349  0.00  0.00    +0.000 C 
BRANCH  20  22
ATOM     22  C   UNL     1       5.152   4.160  18.315  0.00  0.00    +0.000 C 
BRANCH  22  23
ATOM     23  C   UNL     1       3.724   3.713  18.549  0.00  0.00    +0.000 A 
ATOM     24  C   UNL     1       2.695   4.091  17.675  0.00  0.00    +0.000 A 
ATOM     25  C   UNL     1       1.389   3.640  17.881  0.00  0.00    +0.000 A 
ATOM     26  C   UNL     1       1.098   2.808  18.962  0.00  0.00    +0.000 A 
ATOM     27  C   UNL     1       2.110   2.434  19.843  0.00  0.00    +0.000 A 
ATOM     28  C   UNL     1       3.416   2.883  19.639  0.00  0.00    +0.000 A 
ENDBRANCH  22  23
ENDBRANCH  20  22
ENDBRANCH  15  17
ENDBRANCH   1  15
TORSDOF 6
ENDMDL
MODEL 2
REMARK VINA RESULT:      -7.6      1.048      1.459
REMARK  Name = 
REMARK  6 active torsions:
REMARK  status: ('A' for Active; 'I' for Inactive)
REMARK    1  A    between atoms: C_5  and  C_6
REMARK    2  A    between atoms: C_8  and  C_9
REMARK    3  A    between atoms: C_9  and  N_10
REMARK    4  A    between atoms: N_10  and  C_11
REMARK    5  A    between atoms: N_14  and  C_15
REMARK    6  A    between atoms: C_15  and  C_16
REMARK                            x       y       z     vdW  Elec       q    Type
REMARK                         _______ _______ _______ _____ _____    ______ ____
ROOT
ATOM      1  C   UNL     1       8.078   8.731  17.678  0.00  0.00    +0.000 C 
ENDROOT
BRANCH   1   4
ATOM      2  C   UNL     1       9.082  12.048  18.470  0.00  0.00    +0.000 A 
ATOM      3  N   UNL     1       8.470  11.204  17.667  0.00  0.00    +0.000 NA
ATOM      4  C   UNL     1       8.634   9.974  18.271  0.00  0.00    +0.000 A 
ATOM      5  C   UNL     1       9.355  10.135  19.432  0.00  0.00    +0.000 A 
ATOM      6  O   UNL     1       9.661  11.452  19.566  0.00  0.00    +0.000 OA
BRANCH   2  11
ATOM      7 CL   UNL     1       9.637  18.006  18.146  0.00  0.00    +0.000 Cl
ATOM      8  C   UNL     1       9.496  16.295  18.242  0.00  0.00    +0.000 A 
ATOM      9  C   UNL     1       8.474  15.728  18.994  0.00  0.00    +0.000 A 
ATOM     10  C   UNL     1       8.354  14.337  19.059  0.00  0.00    +0.000 A 
ATOM     11  C   UNL     1       9.252  13.494  18.374  0.00  0.00    +0.000 A 
ATOM     12  C   UNL     1      10.283  14.091  17.628  0.00  0.00    +0.000 A 
ATOM     13 CL   UNL     1      11.436  13.178  16.713  0.00  0.00    +0.000 Cl
ATOM     14  C   UNL     1      10.401  15.486  17.561  0.00  0.00    +0.000 A 
ENDBRANCH   2  11
ENDBRANCH   1   4
BRANCH   1  15
ATOM     15  N   UNL     1       8.282   7.639  18.629  0.00  0.00    +0.000 NA
ATOM     16  H   UNL     1       7.870   7.924  19.522  0.00  0.00    +0.000 HD
BRANCH  15  17
ATOM     17  C   UNL     1       7.672   6.380  18.180  0.00  0.00    +0.000 C 
ATOM     18  C   UNL     1       6.581   6.659  17.146  0.00  0.00    +0.000 C 
ATOM     19  C   UNL     1       5.301   6.605  17.960  0.00  0.00    +0.000 C 
ATOM     20  N   UNL     1       5.502   5.499  18.912  0.00  0.00    +0.000 NA
ATOM     21  C   UNL     1       6.919   5.628  19.307  0.00  0.00    +0.000 C 
BRANCH  20  22
ATOM     22  C   UNL     1       5.195   4.197  18.301  0.00  0.00    +0.000 C 
BRANCH  22  23
ATOM     23  C   UNL     1       3.787   3.711  18.578  0.00  0.00    +0.000 A 
ATOM     24  C   UNL     1       2.741   3.974  17.682  0.00  0.00    +0.000 A 
ATOM     25  C   UNL     1       1.455   3.487  17.929  0.00  0.00    +0.000 A 
ATOM     26  C   UNL     1       1.202   2.734  19.076  0.00  0.00    +0.000 A 
ATOM     27  C   UNL     1       2.230   2.474  19.979  0.00  0.00    +0.000 A 
ATOM     28  C   UNL     1       3.516   2.959  19.732  0.00  0.00    +0.000 A 
ENDBRANCH  22  23
ENDBRANCH  20  22
ENDBRANCH  15  17
ENDBRANCH   1  15
TORSDOF 6
ENDMDL
MODEL 3
REMARK VINA RESULT:      -7.6      1.845      2.561
REMARK  Name = 
REMARK  6 active torsions:
REMARK  status: ('A' for Active; 'I' for Inactive)
REMARK    1  A    between atoms: C_5  and  C_6
REMARK    2  A    between atoms: C_8  and  C_9
REMARK    3  A    between atoms: C_9  and  N_10
REMARK    4  A    between atoms: N_10  and  C_11
REMARK    5  A    between atoms: N_14  and  C_15
REMARK    6  A    between atoms: C_15  and  C_16
REMARK                            x       y       z     vdW  Elec       q    Type
REMARK                         _______ _______ _______ _____ _____    ______ ____
ROOT
ATOM      1  C   UNL     1       7.816   6.353  18.573  0.00  0.00    +0.000 C 
ENDROOT
BRANCH   1   4
ATOM      2  C   UNL     1       8.772   9.777  18.496  0.00  0.00    +0.000 A 
ATOM      3  N   UNL     1       8.878   8.576  19.024  0.00  0.00    +0.000 NA
ATOM      4  C   UNL     1       7.999   7.801  18.295  0.00  0.00    +0.000 A 
ATOM      5  C   UNL     1       7.388   8.586  17.344  0.00  0.00    +0.000 A 
ATOM      6  O   UNL     1       7.861   9.854  17.469  0.00  0.00    +0.000 OA
BRANCH   2  11
ATOM      7 CL   UNL     1      11.635  14.821  20.002  0.00  0.00    +0.000 Cl
ATOM      8  C   UNL     1      10.814  13.379  19.552  0.00  0.00    +0.000 A 
ATOM      9  C   UNL     1      11.200  12.164  20.107  0.00  0.00    +0.000 A 
ATOM     10  C   UNL     1      10.521  10.995  19.749  0.00  0.00    +0.000 A 
ATOM     11  C   UNL     1       9.450  11.024  18.834  0.00  0.00    +0.000 A 
ATOM     12  C   UNL     1       9.085  12.263  18.280  0.00  0.00    +0.000 A 
ATOM     13 CL   UNL     1       7.770  12.449  17.169  0.00  0.00    +0.000 Cl
ATOM     14  C   UNL     1       9.764  13.435  18.641  0.00  0.00    +0.000 A 
ENDBRANCH   2  11
ENDBRANCH   1   4
BRANCH   1  15
ATOM     15  N   UNL     1       7.858   5.634  17.301  0.00  0.00    +0.000 NA
ATOM     16  H   UNL     1       8.687   5.033  17.312  0.00  0.00    +0.000 HD
BRANCH  15  17
ATOM     17  C   UNL     1       6.656   4.820  17.075  0.00  0.00    +0.000 C 
ATOM     18  C   UNL     1       5.898   5.322  15.847  0.00  0.00    +0.000 C 
ATOM     19  C   UNL     1       4.799   6.186  16.440  0.00  0.00    +0.000 C 
ATOM     20  N   UNL     1       4.360   5.466  17.648  0.00  0.00    +0.000 NA
ATOM     21  C   UNL     1       5.613   4.936  18.217  0.00  0.00    +0.000 C 
BRANCH  20  22
ATOM     22  C   UNL     1       3.387   4.411  17.325  0.00  0.00    +0.000 C 
BRANCH  22  23
ATOM     23  C   UNL     1       2.531   3.989  18.502  0.00  0.00    +0.000 A 
ATOM     24  C   UNL     1       2.164   2.648  18.685  0.00  0.00    +0.000 A 
ATOM     25  C   UNL     1       1.407   2.266  19.795  0.00  0.00    +0.000 A 
ATOM     26  C   UNL     1       1.008   3.219  20.732  0.00  0.00    +0.000 A 
ATOM     27  C   UNL     1       1.359   4.556  20.555  0.00  0.00    +0.000 A 
ATOM     28  C   UNL     1       2.116   4.940  19.447  0.00  0.00    +0.000 A 
ENDBRANCH  22  23
ENDBRANCH  20  22
ENDBRANCH  15  17
ENDBRANCH   1  15
TORSDOF 6
ENDMDL
MODEL 4
REMARK VINA RESULT:      -7.5      8.393     10.975
REMARK  Name = 
REMARK  6 active torsions:
REMARK  status: ('A' for Active; 'I' for Inactive)
REMARK    1  A    between atoms: C_5  and  C_6
REMARK    2  A    between atoms: C_8  and  C_9
REMARK    3  A    between atoms: C_9  and  N_10
REMARK    4  A    between atoms: N_10  and  C_11
REMARK    5  A    between atoms: N_14  and  C_15
REMARK    6  A    between atoms: C_15  and  C_16
REMARK                            x       y       z     vdW  Elec       q    Type
REMARK                         _______ _______ _______ _____ _____    ______ ____
ROOT
ATOM      1  C   UNL     1       0.362  10.722  18.916  0.00  0.00    +0.000 C 
ENDROOT
BRANCH   1   4
ATOM      2  C   UNL     1       2.368   7.813  18.520  0.00  0.00    +0.000 A 
ATOM      3  N   UNL     1       1.790   8.878  18.005  0.00  0.00    +0.000 NA
ATOM      4  C   UNL     1       1.144   9.468  19.071  0.00  0.00    +0.000 A 
ATOM      5  C   UNL     1       1.362   8.717  20.203  0.00  0.00    +0.000 A 
ATOM      6  O   UNL     1       2.130   7.648  19.864  0.00  0.00    +0.000 OA
BRANCH   2  11
ATOM      7 CL   UNL     1       5.855   3.721  15.874  0.00  0.00    +0.000 Cl
ATOM      8  C   UNL     1       4.853   4.884  16.648  0.00  0.00    +0.000 A 
ATOM      9  C   UNL     1       5.183   6.232  16.580  0.00  0.00    +0.000 A 
ATOM     10  C   UNL     1       4.360   7.178  17.200  0.00  0.00    +0.000 A 
ATOM     11  C   UNL     1       3.196   6.789  17.893  0.00  0.00    +0.000 A 
ATOM     12  C   UNL     1       2.889   5.418  17.956  0.00  0.00    +0.000 A 
ATOM     13 CL   UNL     1       1.477   4.803  18.747  0.00  0.00    +0.000 Cl
ATOM     14  C   UNL     1       3.714   4.472  17.333  0.00  0.00    +0.000 A 
ENDBRANCH   2  11
ENDBRANCH   1   4
BRANCH   1  15
ATOM     15  N   UNL     1      -0.445  10.612  17.702  0.00  0.00    +0.000 NA
ATOM     16  H   UNL     1       0.019   9.943  17.082  0.00  0.00    +0.000 HD
BRANCH  15  17
ATOM     17  C   UNL     1      -1.817  10.165  17.978  0.00  0.00    +0.000 C 
ATOM     18  C   UNL     1      -2.519   9.776  16.677  0.00  0.00    +0.000 C 
ATOM     19  C   UNL     1      -3.340  11.007  16.336  0.00  0.00    +0.000 C 
ATOM     20  N   UNL     1      -3.851  11.492  17.630  0.00  0.00    +0.000 NA
ATOM     21  C   UNL     1      -2.722  11.284  18.556  0.00  0.00    +0.000 C 
BRANCH  20  22
ATOM     22  C   UNL     1      -5.065  10.768  18.037  0.00  0.00    +0.000 C 
BRANCH  22  23
ATOM     23  C   UNL     1      -5.942  11.540  19.001  0.00  0.00    +0.000 A 
ATOM     24  C   UNL     1      -6.773  10.875  19.914  0.00  0.00    +0.000 A 
ATOM     25  C   UNL     1      -7.548  11.598  20.824  0.00  0.00    +0.000 A 
ATOM     26  C   UNL     1      -7.502  12.992  20.830  0.00  0.00    +0.000 A 
ATOM     27  C   UNL     1      -6.687  13.665  19.921  0.00  0.00    +0.000 A 
ATOM     28  C   UNL     1      -5.912  12.944  19.011  0.00  0.00    +0.000 A 
ENDBRANCH  22  23
ENDBRANCH  20  22
ENDBRANCH  15  17
ENDBRANCH   1  15
TORSDOF 6
ENDMDL
MODEL 5
REMARK VINA RESULT:      -7.4      6.323      8.528
REMARK  Name = 
REMARK  6 active torsions:
REMARK  status: ('A' for Active; 'I' for Inactive)
REMARK    1  A    between atoms: C_5  and  C_6
REMARK    2  A    between atoms: C_8  and  C_9
REMARK    3  A    between atoms: C_9  and  N_10
REMARK    4  A    between atoms: N_10  and  C_11
REMARK    5  A    between atoms: N_14  and  C_15
REMARK    6  A    between atoms: C_15  and  C_16
REMARK                            x       y       z     vdW  Elec       q    Type
REMARK                         _______ _______ _______ _____ _____    ______ ____
ROOT
ATOM      1  C   UNL     1       2.962   5.021  19.045  0.00  0.00    +0.000 C 
ENDROOT
BRANCH   1   4
ATOM      2  C   UNL     1       1.461   8.095  20.013  0.00  0.00    +0.000 A 
ATOM      3  N   UNL     1       1.668   6.812  20.223  0.00  0.00    +0.000 NA
ATOM      4  C   UNL     1       2.482   6.420  19.180  0.00  0.00    +0.000 A 
ATOM      5  C   UNL     1       2.730   7.504  18.370  0.00  0.00    +0.000 A 
ATOM      6  O   UNL     1       2.073   8.579  18.881  0.00  0.00    +0.000 OA
BRANCH   2  11
ATOM      7 CL   UNL     1      -1.701  12.002  23.275  0.00  0.00    +0.000 Cl
ATOM      8  C   UNL     1      -0.789  10.895  22.328  0.00  0.00    +0.000 A 
ATOM      9  C   UNL     1       0.015   9.950  22.955  0.00  0.00    +0.000 A 
ATOM     10  C   UNL     1       0.746   9.042  22.182  0.00  0.00    +0.000 A 
ATOM     11  C   UNL     1       0.682   9.066  20.774  0.00  0.00    +0.000 A 
ATOM     12  C   UNL     1      -0.130  10.037  20.164  0.00  0.00    +0.000 A 
ATOM     13 CL   UNL     1      -0.326  10.160  18.448  0.00  0.00    +0.000 Cl
ATOM     14  C   UNL     1      -0.864  10.945  20.939  0.00  0.00    +0.000 A 
ENDBRANCH   2  11
ENDBRANCH   1   4
BRANCH   1  15
ATOM     15  N   UNL     1       4.196   4.883  19.817  0.00  0.00    +0.000 NA
ATOM     16  H   UNL     1       4.027   4.189  20.550  0.00  0.00    +0.000 HD
BRANCH  15  17
ATOM     17  C   UNL     1       5.334   4.464  18.989  0.00  0.00    +0.000 C 
ATOM     18  C   UNL     1       6.380   5.577  18.922  0.00  0.00    +0.000 C 
ATOM     19  C   UNL     1       6.089   6.255  17.595  0.00  0.00    +0.000 C 
ATOM     20  N   UNL     1       5.752   5.157  16.673  0.00  0.00    +0.000 NA
ATOM     21  C   UNL     1       4.958   4.230  17.503  0.00  0.00    +0.000 C 
BRANCH  20  22
ATOM     22  C   UNL     1       6.961   4.531  16.114  0.00  0.00    +0.000 C 
BRANCH  22  23
ATOM     23  C   UNL     1       6.962   4.451  14.600  0.00  0.00    +0.000 A 
ATOM     24  C   UNL     1       6.132   3.546  13.924  0.00  0.00    +0.000 A 
ATOM     25  C   UNL     1       6.114   3.509  12.527  0.00  0.00    +0.000 A 
ATOM     26  C   UNL     1       6.925   4.374  11.794  0.00  0.00    +0.000 A 
ATOM     27  C   UNL     1       7.761   5.271  12.455  0.00  0.00    +0.000 A 
ATOM     28  C   UNL     1       7.780   5.310  13.851  0.00  0.00    +0.000 A 
ENDBRANCH  22  23
ENDBRANCH  20  22
ENDBRANCH  15  17
ENDBRANCH   1  15
TORSDOF 6
ENDMDL
MODEL 6
REMARK VINA RESULT:      -7.4      1.636      1.948
REMARK  Name = 
REMARK  6 active torsions:
REMARK  status: ('A' for Active; 'I' for Inactive)
REMARK    1  A    between atoms: C_5  and  C_6
REMARK    2  A    between atoms: C_8  and  C_9
REMARK    3  A    between atoms: C_9  and  N_10
REMARK    4  A    between atoms: N_10  and  C_11
REMARK    5  A    between atoms: N_14  and  C_15
REMARK    6  A    between atoms: C_15  and  C_16
REMARK                            x       y       z     vdW  Elec       q    Type
REMARK                         _______ _______ _______ _____ _____    ______ ____
ROOT
ATOM      1  C   UNL     1       6.943   7.779  17.169  0.00  0.00    +0.000 C 
ENDROOT
BRANCH   1   4
ATOM      2  C   UNL     1       8.986  10.382  18.469  0.00  0.00    +0.000 A 
ATOM      3  N   UNL     1       8.087   9.964  17.604  0.00  0.00    +0.000 NA
ATOM      4  C   UNL     1       7.900   8.633  17.918  0.00  0.00    +0.000 A 
ATOM      5  C   UNL     1       8.713   8.302  18.977  0.00  0.00    +0.000 A 
ATOM      6  O   UNL     1       9.424   9.405  19.332  0.00  0.00    +0.000 OA
BRANCH   2  11
ATOM      7 CL   UNL     1      11.540  15.773  19.043  0.00  0.00    +0.000 Cl
ATOM      8  C   UNL     1      10.793  14.232  18.888  0.00  0.00    +0.000 A 
ATOM      9  C   UNL     1      10.807  13.579  17.661  0.00  0.00    +0.000 A 
ATOM     10  C   UNL     1      10.210  12.320  17.541  0.00  0.00    +0.000 A 
ATOM     11  C   UNL     1       9.592  11.698  18.644  0.00  0.00    +0.000 A 
ATOM     12  C   UNL     1       9.583  12.382  19.872  0.00  0.00    +0.000 A 
ATOM     13 CL   UNL     1       8.888  11.723  21.314  0.00  0.00    +0.000 Cl
ATOM     14  C   UNL     1      10.183  13.643  19.991  0.00  0.00    +0.000 A 
ENDBRANCH   2  11
ENDBRANCH   1   4
BRANCH   1  15
ATOM     15  N   UNL     1       7.676   6.637  16.626  0.00  0.00    +0.000 NA
ATOM     16  H   UNL     1       8.623   6.664  17.014  0.00  0.00    +0.000 HD
BRANCH  15  17
ATOM     17  C   UNL     1       7.042   5.353  16.953  0.00  0.00    +0.000 C 
ATOM     18  C   UNL     1       6.660   4.609  15.674  0.00  0.00    +0.000 C 
ATOM     19  C   UNL     1       5.182   4.921  15.511  0.00  0.00    +0.000 C 
ATOM     20  N   UNL     1       4.634   4.885  16.879  0.00  0.00    +0.000 NA
ATOM     21  C   UNL     1       5.691   5.509  17.698  0.00  0.00    +0.000 C 
BRANCH  20  22
ATOM     22  C   UNL     1       4.321   3.511  17.299  0.00  0.00    +0.000 C 
BRANCH  22  23
ATOM     23  C   UNL     1       3.087   3.407  18.173  0.00  0.00    +0.000 A 
ATOM     24  C   UNL     1       2.747   4.431  19.068  0.00  0.00    +0.000 A 
ATOM     25  C   UNL     1       1.586   4.341  19.840  0.00  0.00    +0.000 A 
ATOM     26  C   UNL     1       0.754   3.227  19.725  0.00  0.00    +0.000 A 
ATOM     27  C   UNL     1       1.087   2.199  18.846  0.00  0.00    +0.000 A 
ATOM     28  C   UNL     1       2.246   2.287  18.073  0.00  0.00    +0.000 A 
ENDBRANCH  22  23
ENDBRANCH  20  22
ENDBRANCH  15  17
ENDBRANCH   1  15
TORSDOF 6
ENDMDL
MODEL 7
REMARK VINA RESULT:      -7.4      1.918      2.785
REMARK  Name = 
REMARK  6 active torsions:
REMARK  status: ('A' for Active; 'I' for Inactive)
REMARK    1  A    between atoms: C_5  and  C_6
REMARK    2  A    between atoms: C_8  and  C_9
REMARK    3  A    between atoms: C_9  and  N_10
REMARK    4  A    between atoms: N_10  and  C_11
REMARK    5  A    between atoms: N_14  and  C_15
REMARK    6  A    between atoms: C_15  and  C_16
REMARK                            x       y       z     vdW  Elec       q    Type
REMARK                         _______ _______ _______ _____ _____    ______ ____
ROOT
ATOM      1  C   UNL     1       6.580   7.151  16.670  0.00  0.00    +0.000 C 
ENDROOT
BRANCH   1   4
ATOM      2  C   UNL     1       8.611   9.518  18.377  0.00  0.00    +0.000 A 
ATOM      3  N   UNL     1       7.749   9.234  17.425  0.00  0.00    +0.000 NA
ATOM      4  C   UNL     1       7.516   7.880  17.563  0.00  0.00    +0.000 A 
ATOM      5  C   UNL     1       8.267   7.399  18.611  0.00  0.00    +0.000 A 
ATOM      6  O   UNL     1       8.983   8.431  19.132  0.00  0.00    +0.000 OA
BRANCH   2  11
ATOM      7 CL   UNL     1      11.253  14.647  19.996  0.00  0.00    +0.000 Cl
ATOM      8  C   UNL     1      10.497  13.181  19.513  0.00  0.00    +0.000 A 
ATOM      9  C   UNL     1      10.892  11.979  20.089  0.00  0.00    +0.000 A 
ATOM     10  C   UNL     1      10.266  10.789  19.704  0.00  0.00    +0.000 A 
ATOM     11  C   UNL     1       9.236  10.785  18.742  0.00  0.00    +0.000 A 
ATOM     12  C   UNL     1       8.861  12.012  18.167  0.00  0.00    +0.000 A 
ATOM     13 CL   UNL     1       7.593  12.156  16.997  0.00  0.00    +0.000 Cl
ATOM     14  C   UNL     1       9.488  13.203  18.555  0.00  0.00    +0.000 A 
ENDBRANCH   2  11
ENDBRANCH   1   4
BRANCH   1  15
ATOM     15  N   UNL     1       5.300   7.012  17.363  0.00  0.00    +0.000 NA
ATOM     16  H   UNL     1       4.558   7.217  16.688  0.00  0.00    +0.000 HD
BRANCH  15  17
ATOM     17  C   UNL     1       5.106   5.667  17.921  0.00  0.00    +0.000 C 
ATOM     18  C   UNL     1       5.956   4.650  17.161  0.00  0.00    +0.000 C 
ATOM     19  C   UNL     1       4.974   4.027  16.185  0.00  0.00    +0.000 C 
ATOM     20  N   UNL     1       3.716   3.898  16.943  0.00  0.00    +0.000 NA
ATOM     21  C   UNL     1       3.660   5.134  17.746  0.00  0.00    +0.000 C 
BRANCH  20  22
ATOM     22  C   UNL     1       3.705   2.679  17.766  0.00  0.00    +0.000 C 
BRANCH  22  23
ATOM     23  C   UNL     1       2.848   2.792  19.011  0.00  0.00    +0.000 A 
ATOM     24  C   UNL     1       1.467   3.018  18.919  0.00  0.00    +0.000 A 
ATOM     25  C   UNL     1       0.681   3.082  20.072  0.00  0.00    +0.000 A 
ATOM     26  C   UNL     1       1.267   2.922  21.328  0.00  0.00    +0.000 A 
ATOM     27  C   UNL     1       2.640   2.706  21.432  0.00  0.00    +0.000 A 
ATOM     28  C   UNL     1       3.426   2.642  20.281  0.00  0.00    +0.000 A 
ENDBRANCH  22  23
ENDBRANCH  20  22
ENDBRANCH  15  17
ENDBRANCH   1  15
TORSDOF 6
ENDMDL
MODEL 8
REMARK VINA RESULT:      -7.3      2.040      2.867
REMARK  Name = 
REMARK  6 active torsions:
REMARK  status: ('A' for Active; 'I' for Inactive)
REMARK    1  A    between atoms: C_5  and  C_6
REMARK    2  A    between atoms: C_8  and  C_9
REMARK    3  A    between atoms: C_9  and  N_10
REMARK    4  A    between atoms: N_10  and  C_11
REMARK    5  A    between atoms: N_14  and  C_15
REMARK    6  A    between atoms: C_15  and  C_16
REMARK                            x       y       z     vdW  Elec       q    Type
REMARK                         _______ _______ _______ _____ _____    ______ ____
ROOT
ATOM      1  C   UNL     1       8.162   6.612  18.675  0.00  0.00    +0.000 C 
ENDROOT
BRANCH   1   4
ATOM      2  C   UNL     1       8.948  10.067  18.965  0.00  0.00    +0.000 A 
ATOM      3  N   UNL     1       9.030   8.838  19.426  0.00  0.00    +0.000 NA
ATOM      4  C   UNL     1       8.313   8.082  18.521  0.00  0.00    +0.000 A 
ATOM      5  C   UNL     1       7.818   8.906  17.537  0.00  0.00    +0.000 A 
ATOM      6  O   UNL     1       8.203  10.180  17.814  0.00  0.00    +0.000 OA
BRANCH   2  11
ATOM      7 CL   UNL     1      11.121  15.180  21.212  0.00  0.00    +0.000 Cl
ATOM      8  C   UNL     1      10.514  13.708  20.562  0.00  0.00    +0.000 A 
ATOM      9  C   UNL     1       9.581  12.970  21.280  0.00  0.00    +0.000 A 
ATOM     10  C   UNL     1       9.080  11.780  20.743  0.00  0.00    +0.000 A 
ATOM     11  C   UNL     1       9.503  11.313  19.483  0.00  0.00    +0.000 A 
ATOM     12  C   UNL     1      10.455  12.072  18.780  0.00  0.00    +0.000 A 
ATOM     13 CL   UNL     1      11.039  11.633  17.211  0.00  0.00    +0.000 Cl
ATOM     14  C   UNL     1      10.955  13.265  19.318  0.00  0.00    +0.000 A 
ENDBRANCH   2  11
ENDBRANCH   1   4
BRANCH   1  15
ATOM     15  N   UNL     1       7.652   6.070  17.417  0.00  0.00    +0.000 NA
ATOM     16  H   UNL     1       8.456   5.882  16.811  0.00  0.00    +0.000 HD
BRANCH  15  17
ATOM     17  C   UNL     1       6.876   4.837  17.609  0.00  0.00    +0.000 C 
ATOM     18  C   UNL     1       6.405   4.291  16.261  0.00  0.00    +0.000 C 
ATOM     19  C   UNL     1       4.973   4.785  16.161  0.00  0.00    +0.000 C 
ATOM     20  N   UNL     1       4.430   4.656  17.525  0.00  0.00    +0.000 NA
ATOM     21  C   UNL     1       5.555   5.059  18.391  0.00  0.00    +0.000 C 
BRANCH  20  22
ATOM     22  C   UNL     1       3.964   3.287  17.793  0.00  0.00    +0.000 C 
BRANCH  22  23
ATOM     23  C   UNL     1       3.036   3.182  18.986  0.00  0.00    +0.000 A 
ATOM     24  C   UNL     1       3.478   2.638  20.200  0.00  0.00    +0.000 A 
ATOM     25  C   UNL     1       2.624   2.581  21.305  0.00  0.00    +0.000 A 
ATOM     26  C   UNL     1       1.321   3.068  21.207  0.00  0.00    +0.000 A 
ATOM     27  C   UNL     1       0.867   3.603  20.003  0.00  0.00    +0.000 A 
ATOM     28  C   UNL     1       1.719   3.660  18.898  0.00  0.00    +0.000 A 
ENDBRANCH  22  23
ENDBRANCH  20  22
ENDBRANCH  15  17
ENDBRANCH   1  15
TORSDOF 6
ENDMDL
MODEL 9
REMARK VINA RESULT:      -7.1      6.238      7.871
REMARK  Name = 
REMARK  6 active torsions:
REMARK  status: ('A' for Active; 'I' for Inactive)
REMARK    1  A    between atoms: C_5  and  C_6
REMARK    2  A    between atoms: C_8  and  C_9
REMARK    3  A    between atoms: C_9  and  N_10
REMARK    4  A    between atoms: N_10  and  C_11
REMARK    5  A    between atoms: N_14  and  C_15
REMARK    6  A    between atoms: C_15  and  C_16
REMARK                            x       y       z     vdW  Elec       q    Type
REMARK                         _______ _______ _______ _____ _____    ______ ____
ROOT
ATOM      1  C   UNL     1       2.427   6.464  19.394  0.00  0.00    +0.000 C 
ENDROOT
BRANCH   1   4
ATOM      2  C   UNL     1       1.385   9.807  18.780  0.00  0.00    +0.000 A 
ATOM      3  N   UNL     1       1.443   8.760  19.575  0.00  0.00    +0.000 NA
ATOM      4  C   UNL     1       2.135   7.813  18.846  0.00  0.00    +0.000 A 
ATOM      5  C   UNL     1       2.465   8.341  17.620  0.00  0.00    +0.000 A 
ATOM      6  O   UNL     1       1.981   9.610  17.557  0.00  0.00    +0.000 OA
BRANCH   2  11
ATOM      7 CL   UNL     1      -0.959  15.242  19.716  0.00  0.00    +0.000 Cl
ATOM      8  C   UNL     1      -0.294  13.683  19.431  0.00  0.00    +0.000 A 
ATOM      9  C   UNL     1       1.015  13.411  19.811  0.00  0.00    +0.000 A 
ATOM     10  C   UNL     1       1.549  12.138  19.589  0.00  0.00    +0.000 A 
ATOM     11  C   UNL     1       0.783  11.120  18.986  0.00  0.00    +0.000 A 
ATOM     12  C   UNL     1      -0.535  11.422  18.602  0.00  0.00    +0.000 A 
ATOM     13 CL   UNL     1      -1.597  10.260  17.881  0.00  0.00    +0.000 Cl
ATOM     14  C   UNL     1      -1.070  12.697  18.827  0.00  0.00    +0.000 A 
ENDBRANCH   2  11
ENDBRANCH   1   4
BRANCH   1  15
ATOM     15  N   UNL     1       3.878   6.300  19.459  0.00  0.00    +0.000 NA
ATOM     16  H   UNL     1       4.128   6.132  20.438  0.00  0.00    +0.000 HD
BRANCH  15  17
ATOM     17  C   UNL     1       4.357   5.188  18.626  0.00  0.00    +0.000 C 
ATOM     18  C   UNL     1       5.833   4.911  18.910  0.00  0.00    +0.000 C 
ATOM     19  C   UNL     1       6.550   5.630  17.781  0.00  0.00    +0.000 C 
ATOM     20  N   UNL     1       5.711   5.403  16.591  0.00  0.00    +0.000 NA
ATOM     21  C   UNL     1       4.333   5.504  17.108  0.00  0.00    +0.000 C 
BRANCH  20  22
ATOM     22  C   UNL     1       5.995   4.099  15.971  0.00  0.00    +0.000 C 
BRANCH  22  23
ATOM     23  C   UNL     1       6.448   4.196  14.529  0.00  0.00    +0.000 A 
ATOM     24  C   UNL     1       5.862   3.403  13.532  0.00  0.00    +0.000 A 
ATOM     25  C   UNL     1       6.261   3.529  12.199  0.00  0.00    +0.000 A 
ATOM     26  C   UNL     1       7.251   4.448  11.850  0.00  0.00    +0.000 A 
ATOM     27  C   UNL     1       7.848   5.235  12.833  0.00  0.00    +0.000 A 
ATOM     28  C   UNL     1       7.450   5.110  14.165  0.00  0.00    +0.000 A 
ENDBRANCH  22  23
ENDBRANCH  20  22
ENDBRANCH  15  17
ENDBRANCH   1  15
TORSDOF 6
ENDMDL
