MODEL 1
REMARK VINA RESULT:      -8.1      0.000      0.000
REMARK  Name = 
REMARK  10 active torsions:
REMARK  status: ('A' for Active; 'I' for Inactive)
REMARK    1  A    between atoms: C_1  and  C_2
REMARK    2  A    between atoms: C_2  and  O_3
REMARK    3  A    between atoms: O_3  and  C_4
REMARK    4  A    between atoms: C_7  and  C_8
REMARK    5  A    between atoms: N_10  and  C_11
REMARK    6  A    between atoms: C_16  and  C_17
REMARK    7  A    between atoms: C_17  and  O_19
REMARK    8  A    between atoms: O_19  and  C_20
REMARK    9  A    between atoms: C_20  and  C_21
REMARK   10  A    between atoms: C_27  and  C_28
REMARK                            x       y       z     vdW  Elec       q    Type
REMARK                         _______ _______ _______ _____ _____    ______ ____
ROOT
ATOM      1  C   UNL     1       2.584   4.144  18.490  0.00  0.00    +0.000 A 
ATOM      2  C   UNL     1       2.074   2.863  18.757  0.00  0.00    +0.000 A 
ATOM      3  C   UNL     1       1.308   2.619  19.897  0.00  0.00    +0.000 A 
ATOM      4  C   UNL     1       1.013   3.661  20.769  0.00  0.00    +0.000 A 
ATOM      5  C   UNL     1       1.470   4.951  20.488  0.00  0.00    +0.000 A 
ATOM      6  C   UNL     1       2.252   5.219  19.345  0.00  0.00    +0.000 A 
ENDROOT
BRANCH   1   9
ATOM      7  C   UNL     1       4.793   4.236  17.446  0.00  0.00    +0.000 C 
ATOM      8  O   UNL     1       5.414   4.026  18.485  0.00  0.00    +0.000 OA
ATOM      9  N   UNL     1       3.409   4.252  17.345  0.00  0.00    +0.000 N 
ATOM     10  H   UNL     1       3.046   3.883  16.474  0.00  0.00    +0.000 HD
BRANCH   7  14
ATOM     11  C   UNL     1       6.896   4.519  13.703  0.00  0.00    +0.000 A 
ATOM     12  C   UNL     1       5.641   3.913  13.777  0.00  0.00    +0.000 A 
ATOM     13  C   UNL     1       4.961   3.843  14.998  0.00  0.00    +0.000 A 
ATOM     14  C   UNL     1       5.533   4.372  16.161  0.00  0.00    +0.000 A 
ATOM     15  C   UNL     1       6.802   4.960  16.095  0.00  0.00    +0.000 A 
ATOM     16  C   UNL     1       7.479   5.023  14.869  0.00  0.00    +0.000 A 
BRANCH  11  17
ATOM     17  O   UNL     1       7.643   4.661  12.564  0.00  0.00    +0.000 OA
BRANCH  17  19
ATOM     18  C   UNL     1       8.060   6.618  11.244  0.00  0.00    +0.000 C 
ATOM     19  C   UNL     1       8.451   5.837  12.486  0.00  0.00    +0.000 C 
ENDBRANCH  17  19
ENDBRANCH  11  17
ENDBRANCH   7  14
ENDBRANCH   1   9
BRANCH   6  20
ATOM     20  C   UNL     1       2.580   6.645  19.002  0.00  0.00    +0.000 C 
ATOM     21  O   UNL     1       3.124   7.020  17.975  0.00  0.00    +0.000 OA
BRANCH  20  22
ATOM     22  O   UNL     1       2.123   7.481  19.973  0.00  0.00    +0.000 OA
BRANCH  22  23
ATOM     23  C   UNL     1       1.439   8.654  19.508  0.00  0.00    +0.000 C 
BRANCH  23  24
ATOM     24  C   UNL     1       0.787   9.449  20.631  0.00  0.00    +0.000 A 
ATOM     25  C   UNL     1       0.992   9.087  21.908  0.00  0.00    +0.000 A 
ATOM     26  C   UNL     1       0.290   9.795  23.002  0.00  0.00    +0.000 A 
ATOM     27  O   UNL     1       0.470   9.447  24.165  0.00  0.00    +0.000 OA
ATOM     28  N   UNL     1      -0.553  10.787  22.557  0.00  0.00    +0.000 N 
ATOM     29  N   UNL     1      -1.391  11.474  23.415  0.00  0.00    +0.000 NA
ATOM     30  C   UNL     1      -2.106  12.290  22.712  0.00  0.00    +0.000 A 
ATOM     31  S   UNL     1      -1.826  12.352  20.995  0.00  0.00    +0.000 S 
ATOM     32  C   UNL     1      -0.675  11.073  21.222  0.00  0.00    +0.000 A 
ATOM     33  N   UNL     1      -0.059  10.476  20.254  0.00  0.00    +0.000 NA
BRANCH  30  34
ATOM     34  C   UNL     1      -3.187  13.104  23.289  0.00  0.00    +0.000 C 
ATOM     35  C   UNL     1      -4.624  12.959  22.849  0.00  0.00    +0.000 C 
ATOM     36  C   UNL     1      -4.209  12.478  24.209  0.00  0.00    +0.000 C 
ENDBRANCH  30  34
ENDBRANCH  23  24
ENDBRANCH  22  23
ENDBRANCH  20  22
ENDBRANCH   6  20
TORSDOF 9
ENDMDL
MODEL 2
REMARK VINA RESULT:      -8.0      1.056      1.448
REMARK  Name = 
REMARK  10 active torsions:
REMARK  status: ('A' for Active; 'I' for Inactive)
REMARK    1  A    between atoms: C_1  and  C_2
REMARK    2  A    between atoms: C_2  and  O_3
REMARK    3  A    between atoms: O_3  and  C_4
REMARK    4  A    between atoms: C_7  and  C_8
REMARK    5  A    between atoms: N_10  and  C_11
REMARK    6  A    between atoms: C_16  and  C_17
REMARK    7  A    between atoms: C_17  and  O_19
REMARK    8  A    between atoms: O_19  and  C_20
REMARK    9  A    between atoms: C_20  and  C_21
REMARK   10  A    between atoms: C_27  and  C_28
REMARK                            x       y       z     vdW  Elec       q    Type
REMARK                         _______ _______ _______ _____ _____    ______ ____
ROOT
ATOM      1  C   UNL     1       3.255   3.887  19.298  0.00  0.00    +0.000 A 
ATOM      2  C   UNL     1       3.261   2.645  19.953  0.00  0.00    +0.000 A 
ATOM      3  C   UNL     1       2.733   2.509  21.237  0.00  0.00    +0.000 A 
ATOM      4  C   UNL     1       2.161   3.607  21.871  0.00  0.00    +0.000 A 
ATOM      5  C   UNL     1       2.102   4.836  21.209  0.00  0.00    +0.000 A 
ATOM      6  C   UNL     1       2.635   4.998  19.914  0.00  0.00    +0.000 A 
ENDROOT
BRANCH   1   9
ATOM      7  C   UNL     1       5.217   4.286  17.893  0.00  0.00    +0.000 C 
ATOM      8  O   UNL     1       5.979   4.508  18.831  0.00  0.00    +0.000 OA
ATOM      9  N   UNL     1       3.886   3.918  18.030  0.00  0.00    +0.000 N 
ATOM     10  H   UNL     1       3.556   3.264  17.331  0.00  0.00    +0.000 HD
BRANCH   7  14
ATOM     11  C   UNL     1       6.775   4.401  13.885  0.00  0.00    +0.000 A 
ATOM     12  C   UNL     1       7.453   5.020  14.936  0.00  0.00    +0.000 A 
ATOM     13  C   UNL     1       6.942   4.960  16.238  0.00  0.00    +0.000 A 
ATOM     14  C   UNL     1       5.744   4.286  16.500  0.00  0.00    +0.000 A 
ATOM     15  C   UNL     1       5.049   3.684  15.445  0.00  0.00    +0.000 A 
ATOM     16  C   UNL     1       5.564   3.752  14.143  0.00  0.00    +0.000 A 
BRANCH  11  17
ATOM     17  O   UNL     1       7.187   4.378  12.579  0.00  0.00    +0.000 OA
BRANCH  17  19
ATOM     18  C   UNL     1       5.329   3.241  11.579  0.00  0.00    +0.000 C 
ATOM     19  C   UNL     1       6.826   3.218  11.827  0.00  0.00    +0.000 C 
ENDBRANCH  17  19
ENDBRANCH  11  17
ENDBRANCH   7  14
ENDBRANCH   1   9
BRANCH   6  20
ATOM     20  C   UNL     1       2.402   6.291  19.183  0.00  0.00    +0.000 C 
ATOM     21  O   UNL     1       2.321   6.416  17.971  0.00  0.00    +0.000 OA
BRANCH  20  22
ATOM     22  O   UNL     1       2.225   7.307  20.069  0.00  0.00    +0.000 OA
BRANCH  22  23
ATOM     23  C   UNL     1       1.558   8.469  19.553  0.00  0.00    +0.000 C 
BRANCH  23  24
ATOM     24  C   UNL     1       0.873   9.293  20.634  0.00  0.00    +0.000 A 
ATOM     25  C   UNL     1       1.054   8.977  21.927  0.00  0.00    +0.000 A 
ATOM     26  C   UNL     1       0.321   9.713  22.981  0.00  0.00    +0.000 A 
ATOM     27  O   UNL     1       0.479   9.408  24.159  0.00  0.00    +0.000 OA
ATOM     28  N   UNL     1      -0.525  10.679  22.485  0.00  0.00    +0.000 N 
ATOM     29  N   UNL     1      -1.389  11.384  23.301  0.00  0.00    +0.000 NA
ATOM     30  C   UNL     1      -2.099  12.166  22.555  0.00  0.00    +0.000 A 
ATOM     31  S   UNL     1      -1.783  12.174  20.843  0.00  0.00    +0.000 S 
ATOM     32  C   UNL     1      -0.621  10.918  21.138  0.00  0.00    +0.000 A 
ATOM     33  N   UNL     1       0.023  10.296  20.204  0.00  0.00    +0.000 NA
BRANCH  30  34
ATOM     34  C   UNL     1      -3.202  12.986  23.081  0.00  0.00    +0.000 C 
ATOM     35  C   UNL     1      -3.874  14.055  22.252  0.00  0.00    +0.000 C 
ATOM     36  C   UNL     1      -4.611  12.788  22.575  0.00  0.00    +0.000 C 
ENDBRANCH  30  34
ENDBRANCH  23  24
ENDBRANCH  22  23
ENDBRANCH  20  22
ENDBRANCH   6  20
TORSDOF 9
ENDMDL
MODEL 3
REMARK VINA RESULT:      -7.9      6.260      9.770
REMARK  Name = 
REMARK  10 active torsions:
REMARK  status: ('A' for Active; 'I' for Inactive)
REMARK    1  A    between atoms: C_1  and  C_2
REMARK    2  A    between atoms: C_2  and  O_3
REMARK    3  A    between atoms: O_3  and  C_4
REMARK    4  A    between atoms: C_7  and  C_8
REMARK    5  A    between atoms: N_10  and  C_11
REMARK    6  A    between atoms: C_16  and  C_17
REMARK    7  A    between atoms: C_17  and  O_19
REMARK    8  A    between atoms: O_19  and  C_20
REMARK    9  A    between atoms: C_20  and  C_21
REMARK   10  A    between atoms: C_27  and  C_28
REMARK                            x       y       z     vdW  Elec       q    Type
REMARK                         _______ _______ _______ _____ _____    ______ ____
ROOT
ATOM      1  C   UNL     1       5.388   6.077  16.357  0.00  0.00    +0.000 A 
ATOM      2  C   UNL     1       4.896   5.330  15.275  0.00  0.00    +0.000 A 
ATOM      3  C   UNL     1       5.736   4.491  14.543  0.00  0.00    +0.000 A 
ATOM      4  C   UNL     1       7.073   4.363  14.902  0.00  0.00    +0.000 A 
ATOM      5  C   UNL     1       7.563   5.062  16.009  0.00  0.00    +0.000 A 
ATOM      6  C   UNL     1       6.734   5.920  16.759  0.00  0.00    +0.000 A 
ENDROOT
BRANCH   1   9
ATOM      7  C   UNL     1       3.557   6.490  17.925  0.00  0.00    +0.000 C 
ATOM      8  O   UNL     1       3.546   5.350  18.382  0.00  0.00    +0.000 OA
ATOM      9  N   UNL     1       4.460   6.949  16.976  0.00  0.00    +0.000 N 
ATOM     10  H   UNL     1       4.738   7.916  17.093  0.00  0.00    +0.000 HD
BRANCH   7  14
ATOM     11  C   UNL     1       0.946   9.538  19.475  0.00  0.00    +0.000 A 
ATOM     12  C   UNL     1       1.411   9.592  18.160  0.00  0.00    +0.000 A 
ATOM     13  C   UNL     1       2.246   8.585  17.665  0.00  0.00    +0.000 A 
ATOM     14  C   UNL     1       2.632   7.516  18.481  0.00  0.00    +0.000 A 
ATOM     15  C   UNL     1       2.186   7.470  19.807  0.00  0.00    +0.000 A 
ATOM     16  C   UNL     1       1.353   8.484  20.299  0.00  0.00    +0.000 A 
BRANCH  11  17
ATOM     17  O   UNL     1       0.112  10.453  20.060  0.00  0.00    +0.000 OA
BRANCH  17  19
ATOM     18  C   UNL     1      -0.084  12.218  21.671  0.00  0.00    +0.000 C 
ATOM     19  C   UNL     1       0.419  10.810  21.410  0.00  0.00    +0.000 C 
ENDBRANCH  17  19
ENDBRANCH  11  17
ENDBRANCH   7  14
ENDBRANCH   1   9
BRANCH   6  20
ATOM     20  C   UNL     1       7.264   6.520  18.032  0.00  0.00    +0.000 C 
ATOM     21  O   UNL     1       7.413   5.925  19.088  0.00  0.00    +0.000 OA
BRANCH  20  22
ATOM     22  O   UNL     1       7.623   7.816  17.828  0.00  0.00    +0.000 OA
BRANCH  22  23
ATOM     23  C   UNL     1       8.564   8.353  18.770  0.00  0.00    +0.000 C 
BRANCH  23  24
ATOM     24  C   UNL     1       8.811   9.844  18.582  0.00  0.00    +0.000 A 
ATOM     25  C   UNL     1       7.974  10.566  17.819  0.00  0.00    +0.000 A 
ATOM     26  C   UNL     1       8.256  11.995  17.556  0.00  0.00    +0.000 A 
ATOM     27  O   UNL     1       7.495  12.644  16.844  0.00  0.00    +0.000 OA
ATOM     28  N   UNL     1       9.419  12.438  18.141  0.00  0.00    +0.000 N 
ATOM     29  N   UNL     1       9.919  13.705  17.906  0.00  0.00    +0.000 NA
ATOM     30  C   UNL     1      11.047  13.815  18.530  0.00  0.00    +0.000 A 
ATOM     31  S   UNL     1      11.592  12.461  19.478  0.00  0.00    +0.000 S 
ATOM     32  C   UNL     1      10.193  11.606  18.909  0.00  0.00    +0.000 A 
ATOM     33  N   UNL     1       9.955  10.360  19.163  0.00  0.00    +0.000 NA
BRANCH  30  34
ATOM     34  C   UNL     1      11.913  14.998  18.411  0.00  0.00    +0.000 C 
ATOM     35  C   UNL     1      11.351  16.396  18.295  0.00  0.00    +0.000 C 
ATOM     36  C   UNL     1      12.041  15.972  19.558  0.00  0.00    +0.000 C 
ENDBRANCH  30  34
ENDBRANCH  23  24
ENDBRANCH  22  23
ENDBRANCH  20  22
ENDBRANCH   6  20
TORSDOF 9
ENDMDL
MODEL 4
REMARK VINA RESULT:      -7.9      2.678      3.407
REMARK  Name = 
REMARK  10 active torsions:
REMARK  status: ('A' for Active; 'I' for Inactive)
REMARK    1  A    between atoms: C_1  and  C_2
REMARK    2  A    between atoms: C_2  and  O_3
REMARK    3  A    between atoms: O_3  and  C_4
REMARK    4  A    between atoms: C_7  and  C_8
REMARK    5  A    between atoms: N_10  and  C_11
REMARK    6  A    between atoms: C_16  and  C_17
REMARK    7  A    between atoms: C_17  and  O_19
REMARK    8  A    between atoms: O_19  and  C_20
REMARK    9  A    between atoms: C_20  and  C_21
REMARK   10  A    between atoms: C_27  and  C_28
REMARK                            x       y       z     vdW  Elec       q    Type
REMARK                         _______ _______ _______ _____ _____    ______ ____
ROOT
ATOM      1  C   UNL     1       2.957   3.955  18.439  0.00  0.00    +0.000 A 
ATOM      2  C   UNL     1       2.880   2.934  17.479  0.00  0.00    +0.000 A 
ATOM      3  C   UNL     1       1.994   1.869  17.635  0.00  0.00    +0.000 A 
ATOM      4  C   UNL     1       1.150   1.826  18.739  0.00  0.00    +0.000 A 
ATOM      5  C   UNL     1       1.180   2.862  19.675  0.00  0.00    +0.000 A 
ATOM      6  C   UNL     1       2.073   3.946  19.541  0.00  0.00    +0.000 A 
ENDROOT
BRANCH   1   9
ATOM      7  C   UNL     1       5.246   4.786  18.666  0.00  0.00    +0.000 C 
ATOM      8  O   UNL     1       5.680   3.767  19.199  0.00  0.00    +0.000 OA
ATOM      9  N   UNL     1       3.946   4.944  18.209  0.00  0.00    +0.000 N 
ATOM     10  H   UNL     1       3.859   5.499  17.367  0.00  0.00    +0.000 HD
BRANCH   7  14
ATOM     11  C   UNL     1       7.958   8.039  17.910  0.00  0.00    +0.000 A 
ATOM     12  C   UNL     1       8.289   7.023  18.808  0.00  0.00    +0.000 A 
ATOM     13  C   UNL     1       7.404   5.963  19.031  0.00  0.00    +0.000 A 
ATOM     14  C   UNL     1       6.175   5.911  18.364  0.00  0.00    +0.000 A 
ATOM     15  C   UNL     1       5.830   6.940  17.480  0.00  0.00    +0.000 A 
ATOM     16  C   UNL     1       6.719   8.001  17.264  0.00  0.00    +0.000 A 
BRANCH  11  17
ATOM     17  O   UNL     1       8.750   9.112  17.599  0.00  0.00    +0.000 OA
BRANCH  17  19
ATOM     18  C   UNL     1       9.068  11.433  18.109  0.00  0.00    +0.000 C 
ATOM     19  C   UNL     1       9.024  10.022  18.667  0.00  0.00    +0.000 C 
ENDBRANCH  17  19
ENDBRANCH  11  17
ENDBRANCH   7  14
ENDBRANCH   1   9
BRANCH   6  20
ATOM     20  C   UNL     1       1.954   5.111  20.482  0.00  0.00    +0.000 C 
ATOM     21  O   UNL     1       2.311   5.119  21.651  0.00  0.00    +0.000 OA
BRANCH  20  22
ATOM     22  O   UNL     1       1.451   6.194  19.830  0.00  0.00    +0.000 OA
BRANCH  22  23
ATOM     23  C   UNL     1       2.205   7.408  19.973  0.00  0.00    +0.000 C 
BRANCH  23  24
ATOM     24  C   UNL     1       1.385   8.555  20.546  0.00  0.00    +0.000 A 
ATOM     25  C   UNL     1       1.235   8.668  21.875  0.00  0.00    +0.000 A 
ATOM     26  C   UNL     1       0.365   9.725  22.438  0.00  0.00    +0.000 A 
ATOM     27  O   UNL     1       0.220   9.810  23.654  0.00  0.00    +0.000 OA
ATOM     28  N   UNL     1      -0.239  10.503  21.477  0.00  0.00    +0.000 N 
ATOM     29  N   UNL     1      -1.186  11.457  21.798  0.00  0.00    +0.000 NA
ATOM     30  C   UNL     1      -1.622  11.978  20.697  0.00  0.00    +0.000 A 
ATOM     31  S   UNL     1      -0.928  11.424  19.200  0.00  0.00    +0.000 S 
ATOM     32  C   UNL     1      -0.003  10.298  20.142  0.00  0.00    +0.000 A 
ATOM     33  N   UNL     1       0.765   9.390  19.633  0.00  0.00    +0.000 NA
BRANCH  30  34
ATOM     34  C   UNL     1      -2.721  12.955  20.657  0.00  0.00    +0.000 C 
ATOM     35  C   UNL     1      -3.213  13.661  21.898  0.00  0.00    +0.000 C 
ATOM     36  C   UNL     1      -2.446  14.426  20.860  0.00  0.00    +0.000 C 
ENDBRANCH  30  34
ENDBRANCH  23  24
ENDBRANCH  22  23
ENDBRANCH  20  22
ENDBRANCH   6  20
TORSDOF 9
ENDMDL
MODEL 5
REMARK VINA RESULT:      -7.8      1.742      2.380
REMARK  Name = 
REMARK  10 active torsions:
REMARK  status: ('A' for Active; 'I' for Inactive)
REMARK    1  A    between atoms: C_1  and  C_2
REMARK    2  A    between atoms: C_2  and  O_3
REMARK    3  A    between atoms: O_3  and  C_4
REMARK    4  A    between atoms: C_7  and  C_8
REMARK    5  A    between atoms: N_10  and  C_11
REMARK    6  A    between atoms: C_16  and  C_17
REMARK    7  A    between atoms: C_17  and  O_19
REMARK    8  A    between atoms: O_19  and  C_20
REMARK    9  A    between atoms: C_20  and  C_21
REMARK   10  A    between atoms: C_27  and  C_28
REMARK                            x       y       z     vdW  Elec       q    Type
REMARK                         _______ _______ _______ _____ _____    ______ ____
ROOT
ATOM      1  C   UNL     1       3.363   3.677  19.123  0.00  0.00    +0.000 A 
ATOM      2  C   UNL     1       3.531   2.521  19.903  0.00  0.00    +0.000 A 
ATOM      3  C   UNL     1       3.002   2.442  21.190  0.00  0.00    +0.000 A 
ATOM      4  C   UNL     1       2.268   3.506  21.705  0.00  0.00    +0.000 A 
ATOM      5  C   UNL     1       2.049   4.641  20.919  0.00  0.00    +0.000 A 
ATOM      6  C   UNL     1       2.581   4.745  19.618  0.00  0.00    +0.000 A 
ENDROOT
BRANCH   1   9
ATOM      7  C   UNL     1       5.117   4.465  17.612  0.00  0.00    +0.000 C 
ATOM      8  O   UNL     1       5.690   5.149  18.457  0.00  0.00    +0.000 OA
ATOM      9  N   UNL     1       4.009   3.669  17.862  0.00  0.00    +0.000 N 
ATOM     10  H   UNL     1       3.982   2.806  17.333  0.00  0.00    +0.000 HD
BRANCH   7  14
ATOM     11  C   UNL     1       6.794   4.288  13.654  0.00  0.00    +0.000 A 
ATOM     12  C   UNL     1       7.459   4.952  14.686  0.00  0.00    +0.000 A 
ATOM     13  C   UNL     1       6.909   4.988  15.972  0.00  0.00    +0.000 A 
ATOM     14  C   UNL     1       5.684   4.365  16.238  0.00  0.00    +0.000 A 
ATOM     15  C   UNL     1       5.004   3.716  15.201  0.00  0.00    +0.000 A 
ATOM     16  C   UNL     1       5.558   3.688  13.914  0.00  0.00    +0.000 A 
BRANCH  11  17
ATOM     17  O   UNL     1       7.244   4.172  12.366  0.00  0.00    +0.000 OA
BRANCH  17  19
ATOM     18  C   UNL     1       7.448   2.114  11.152  0.00  0.00    +0.000 C 
ATOM     19  C   UNL     1       6.527   3.261  11.529  0.00  0.00    +0.000 C 
ENDBRANCH  17  19
ENDBRANCH  11  17
ENDBRANCH   7  14
ENDBRANCH   1   9
BRANCH   6  20
ATOM     20  C   UNL     1       2.183   5.910  18.756  0.00  0.00    +0.000 C 
ATOM     21  O   UNL     1       1.568   5.838  17.703  0.00  0.00    +0.000 OA
BRANCH  20  22
ATOM     22  O   UNL     1       2.545   7.080  19.349  0.00  0.00    +0.000 OA
BRANCH  22  23
ATOM     23  C   UNL     1       2.311   8.265  18.574  0.00  0.00    +0.000 C 
BRANCH  23  24
ATOM     24  C   UNL     1       1.221   9.154  19.158  0.00  0.00    +0.000 A 
ATOM     25  C   UNL     1       0.591  10.039  18.368  0.00  0.00    +0.000 A 
ATOM     26  C   UNL     1      -0.404  10.971  18.945  0.00  0.00    +0.000 A 
ATOM     27  O   UNL     1      -0.964  11.788  18.220  0.00  0.00    +0.000 OA
ATOM     28  N   UNL     1      -0.564  10.826  20.304  0.00  0.00    +0.000 N 
ATOM     29  N   UNL     1      -1.352  11.687  21.044  0.00  0.00    +0.000 NA
ATOM     30  C   UNL     1      -1.259  11.349  22.289  0.00  0.00    +0.000 A 
ATOM     31  S   UNL     1      -0.278   9.968  22.690  0.00  0.00    +0.000 S 
ATOM     32  C   UNL     1       0.133   9.876  21.006  0.00  0.00    +0.000 A 
ATOM     33  N   UNL     1       0.994   9.044  20.517  0.00  0.00    +0.000 NA
BRANCH  30  34
ATOM     34  C   UNL     1      -1.883  12.122  23.374  0.00  0.00    +0.000 C 
ATOM     35  C   UNL     1      -1.810  13.629  23.431  0.00  0.00    +0.000 C 
ATOM     36  C   UNL     1      -3.113  12.959  23.109  0.00  0.00    +0.000 C 
ENDBRANCH  30  34
ENDBRANCH  23  24
ENDBRANCH  22  23
ENDBRANCH  20  22
ENDBRANCH   6  20
TORSDOF 9
ENDMDL
MODEL 6
REMARK VINA RESULT:      -7.8      6.653     11.302
REMARK  Name = 
REMARK  10 active torsions:
REMARK  status: ('A' for Active; 'I' for Inactive)
REMARK    1  A    between atoms: C_1  and  C_2
REMARK    2  A    between atoms: C_2  and  O_3
REMARK    3  A    between atoms: O_3  and  C_4
REMARK    4  A    between atoms: C_7  and  C_8
REMARK    5  A    between atoms: N_10  and  C_11
REMARK    6  A    between atoms: C_16  and  C_17
REMARK    7  A    between atoms: C_17  and  O_19
REMARK    8  A    between atoms: O_19  and  C_20
REMARK    9  A    between atoms: C_20  and  C_21
REMARK   10  A    between atoms: C_27  and  C_28
REMARK                            x       y       z     vdW  Elec       q    Type
REMARK                         _______ _______ _______ _____ _____    ______ ____
ROOT
ATOM      1  C   UNL     1       9.525  13.143  17.950  0.00  0.00    +0.000 A 
ATOM      2  C   UNL     1      10.339  13.962  17.151  0.00  0.00    +0.000 A 
ATOM      3  C   UNL     1      11.706  13.714  17.030  0.00  0.00    +0.000 A 
ATOM      4  C   UNL     1      12.273  12.623  17.681  0.00  0.00    +0.000 A 
ATOM      5  C   UNL     1      11.464  11.771  18.437  0.00  0.00    +0.000 A 
ATOM      6  C   UNL     1      10.081  12.006  18.579  0.00  0.00    +0.000 A 
ENDROOT
BRANCH   1   9
ATOM      7  C   UNL     1       7.748  14.431  19.030  0.00  0.00    +0.000 C 
ATOM      8  O   UNL     1       8.498  15.028  19.799  0.00  0.00    +0.000 OA
ATOM      9  N   UNL     1       8.168  13.538  18.055  0.00  0.00    +0.000 N 
ATOM     10  H   UNL     1       7.624  13.559  17.201  0.00  0.00    +0.000 HD
BRANCH   7  14
ATOM     11  C   UNL     1       3.557  15.398  18.928  0.00  0.00    +0.000 A 
ATOM     12  C   UNL     1       4.244  15.062  17.761  0.00  0.00    +0.000 A 
ATOM     13  C   UNL     1       5.604  14.734  17.812  0.00  0.00    +0.000 A 
ATOM     14  C   UNL     1       6.292  14.745  19.030  0.00  0.00    +0.000 A 
ATOM     15  C   UNL     1       5.611  15.103  20.200  0.00  0.00    +0.000 A 
ATOM     16  C   UNL     1       4.251  15.435  20.141  0.00  0.00    +0.000 A 
BRANCH  11  17
ATOM     17  O   UNL     1       2.227  15.717  19.002  0.00  0.00    +0.000 OA
BRANCH  17  19
ATOM     18  C   UNL     1       0.001  15.106  19.647  0.00  0.00    +0.000 C 
ATOM     19  C   UNL     1       1.320  14.615  19.077  0.00  0.00    +0.000 C 
ENDBRANCH  17  19
ENDBRANCH  11  17
ENDBRANCH   7  14
ENDBRANCH   1   9
BRANCH   6  20
ATOM     20  C   UNL     1       9.230  10.975  19.265  0.00  0.00    +0.000 C 
ATOM     21  O   UNL     1       9.289  10.679  20.448  0.00  0.00    +0.000 OA
BRANCH  20  22
ATOM     22  O   UNL     1       8.326  10.454  18.392  0.00  0.00    +0.000 OA
BRANCH  22  23
ATOM     23  C   UNL     1       8.761   9.293  17.668  0.00  0.00    +0.000 C 
BRANCH  23  24
ATOM     24  C   UNL     1       7.922   8.057  17.964  0.00  0.00    +0.000 A 
ATOM     25  C   UNL     1       8.268   7.245  18.977  0.00  0.00    +0.000 A 
ATOM     26  C   UNL     1       7.514   5.994  19.215  0.00  0.00    +0.000 A 
ATOM     27  O   UNL     1       7.846   5.249  20.133  0.00  0.00    +0.000 OA
ATOM     28  N   UNL     1       6.501   5.786  18.308  0.00  0.00    +0.000 N 
ATOM     29  N   UNL     1       5.768   4.614  18.286  0.00  0.00    +0.000 NA
ATOM     30  C   UNL     1       4.940   4.677  17.294  0.00  0.00    +0.000 A 
ATOM     31  S   UNL     1       4.920   6.128  16.334  0.00  0.00    +0.000 S 
ATOM     32  C   UNL     1       6.236   6.694  17.315  0.00  0.00    +0.000 A 
ATOM     33  N   UNL     1       6.873   7.799  17.101  0.00  0.00    +0.000 NA
BRANCH  30  34
ATOM     34  C   UNL     1       4.076   3.551  16.905  0.00  0.00    +0.000 C 
ATOM     35  C   UNL     1       3.699   2.456  17.874  0.00  0.00    +0.000 C 
ATOM     36  C   UNL     1       2.665   3.450  17.434  0.00  0.00    +0.000 C 
ENDBRANCH  30  34
ENDBRANCH  23  24
ENDBRANCH  22  23
ENDBRANCH  20  22
ENDBRANCH   6  20
TORSDOF 9
ENDMDL
MODEL 7
REMARK VINA RESULT:      -7.7      1.529      1.992
REMARK  Name = 
REMARK  10 active torsions:
REMARK  status: ('A' for Active; 'I' for Inactive)
REMARK    1  A    between atoms: C_1  and  C_2
REMARK    2  A    between atoms: C_2  and  O_3
REMARK    3  A    between atoms: O_3  and  C_4
REMARK    4  A    between atoms: C_7  and  C_8
REMARK    5  A    between atoms: N_10  and  C_11
REMARK    6  A    between atoms: C_16  and  C_17
REMARK    7  A    between atoms: C_17  and  O_19
REMARK    8  A    between atoms: O_19  and  C_20
REMARK    9  A    between atoms: C_20  and  C_21
REMARK   10  A    between atoms: C_27  and  C_28
REMARK                            x       y       z     vdW  Elec       q    Type
REMARK                         _______ _______ _______ _____ _____    ______ ____
ROOT
ATOM      1  C   UNL     1       2.853   3.777  19.196  0.00  0.00    +0.000 A 
ATOM      2  C   UNL     1       2.595   2.425  19.475  0.00  0.00    +0.000 A 
ATOM      3  C   UNL     1       1.900   2.051  20.624  0.00  0.00    +0.000 A 
ATOM      4  C   UNL     1       1.425   3.024  21.496  0.00  0.00    +0.000 A 
ATOM      5  C   UNL     1       1.630   4.375  21.204  0.00  0.00    +0.000 A 
ATOM      6  C   UNL     1       2.336   4.777  20.051  0.00  0.00    +0.000 A 
ENDROOT
BRANCH   1   9
ATOM      7  C   UNL     1       5.014   4.129  18.106  0.00  0.00    +0.000 C 
ATOM      8  O   UNL     1       5.681   3.909  19.114  0.00  0.00    +0.000 OA
ATOM      9  N   UNL     1       3.631   4.030  18.040  0.00  0.00    +0.000 N 
ATOM     10  H   UNL     1       3.275   3.686  17.157  0.00  0.00    +0.000 HD
BRANCH   7  14
ATOM     11  C   UNL     1       6.943   4.848  14.328  0.00  0.00    +0.000 A 
ATOM     12  C   UNL     1       5.616   4.418  14.386  0.00  0.00    +0.000 A 
ATOM     13  C   UNL     1       4.997   4.205  15.622  0.00  0.00    +0.000 A 
ATOM     14  C   UNL     1       5.700   4.411  16.814  0.00  0.00    +0.000 A 
ATOM     15  C   UNL     1       7.038   4.820  16.760  0.00  0.00    +0.000 A 
ATOM     16  C   UNL     1       7.654   5.028  15.519  0.00  0.00    +0.000 A 
BRANCH  11  17
ATOM     17  O   UNL     1       7.644   5.106  13.181  0.00  0.00    +0.000 OA
BRANCH  17  19
ATOM     18  C   UNL     1       7.297   3.212  11.753  0.00  0.00    +0.000 C 
ATOM     19  C   UNL     1       7.027   4.691  11.960  0.00  0.00    +0.000 C 
ENDBRANCH  17  19
ENDBRANCH  11  17
ENDBRANCH   7  14
ENDBRANCH   1   9
BRANCH   6  20
ATOM     20  C   UNL     1       2.389   6.237  19.697  0.00  0.00    +0.000 C 
ATOM     21  O   UNL     1       3.126   6.739  18.863  0.00  0.00    +0.000 OA
BRANCH  20  22
ATOM     22  O   UNL     1       1.444   6.925  20.393  0.00  0.00    +0.000 OA
BRANCH  22  23
ATOM     23  C   UNL     1       1.837   8.228  20.850  0.00  0.00    +0.000 C 
BRANCH  23  24
ATOM     24  C   UNL     1       0.737   9.270  20.698  0.00  0.00    +0.000 A 
ATOM     25  C   UNL     1       0.415   9.724  19.476  0.00  0.00    +0.000 A 
ATOM     26  C   UNL     1      -0.588  10.802  19.325  0.00  0.00    +0.000 A 
ATOM     27  O   UNL     1      -0.866  11.223  18.206  0.00  0.00    +0.000 OA
ATOM     28  N   UNL     1      -1.089  11.253  20.525  0.00  0.00    +0.000 N 
ATOM     29  N   UNL     1      -1.938  12.341  20.601  0.00  0.00    +0.000 NA
ATOM     30  C   UNL     1      -2.188  12.570  21.849  0.00  0.00    +0.000 A 
ATOM     31  S   UNL     1      -1.484  11.506  23.033  0.00  0.00    +0.000 S 
ATOM     32  C   UNL     1      -0.687  10.704  21.716  0.00  0.00    +0.000 A 
ATOM     33  N   UNL     1       0.175   9.752  21.866  0.00  0.00    +0.000 NA
BRANCH  30  34
ATOM     34  C   UNL     1      -2.973  13.728  22.305  0.00  0.00    +0.000 C 
ATOM     35  C   UNL     1      -2.675  14.438  23.605  0.00  0.00    +0.000 C 
ATOM     36  C   UNL     1      -2.368  15.113  22.300  0.00  0.00    +0.000 C 
ENDBRANCH  30  34
ENDBRANCH  23  24
ENDBRANCH  22  23
ENDBRANCH  20  22
ENDBRANCH   6  20
TORSDOF 9
ENDMDL
MODEL 8
REMARK VINA RESULT:      -7.7      2.516      3.031
REMARK  Name = 
REMARK  10 active torsions:
REMARK  status: ('A' for Active; 'I' for Inactive)
REMARK    1  A    between atoms: C_1  and  C_2
REMARK    2  A    between atoms: C_2  and  O_3
REMARK    3  A    between atoms: O_3  and  C_4
REMARK    4  A    between atoms: C_7  and  C_8
REMARK    5  A    between atoms: N_10  and  C_11
REMARK    6  A    between atoms: C_16  and  C_17
REMARK    7  A    between atoms: C_17  and  O_19
REMARK    8  A    between atoms: O_19  and  C_20
REMARK    9  A    between atoms: C_20  and  C_21
REMARK   10  A    between atoms: C_27  and  C_28
REMARK                            x       y       z     vdW  Elec       q    Type
REMARK                         _______ _______ _______ _____ _____    ______ ____
ROOT
ATOM      1  C   UNL     1       2.796   4.638  18.558  0.00  0.00    +0.000 A 
ATOM      2  C   UNL     1       2.332   3.430  19.104  0.00  0.00    +0.000 A 
ATOM      3  C   UNL     1       1.664   3.407  20.328  0.00  0.00    +0.000 A 
ATOM      4  C   UNL     1       1.423   4.596  21.009  0.00  0.00    +0.000 A 
ATOM      5  C   UNL     1       1.834   5.809  20.451  0.00  0.00    +0.000 A 
ATOM      6  C   UNL     1       2.516   5.856  19.218  0.00  0.00    +0.000 A 
ENDROOT
BRANCH   1   9
ATOM      7  C   UNL     1       4.912   4.501  17.339  0.00  0.00    +0.000 C 
ATOM      8  O   UNL     1       5.616   4.463  18.346  0.00  0.00    +0.000 OA
ATOM      9  N   UNL     1       3.525   4.527  17.348  0.00  0.00    +0.000 N 
ATOM     10  H   UNL     1       3.089   4.018  16.589  0.00  0.00    +0.000 HD
BRANCH   7  14
ATOM     11  C   UNL     1       6.792   4.300  13.474  0.00  0.00    +0.000 A 
ATOM     12  C   UNL     1       7.481   4.796  14.582  0.00  0.00    +0.000 A 
ATOM     13  C   UNL     1       6.861   4.839  15.836  0.00  0.00    +0.000 A 
ATOM     14  C   UNL     1       5.544   4.394  15.994  0.00  0.00    +0.000 A 
ATOM     15  C   UNL     1       4.843   3.917  14.881  0.00  0.00    +0.000 A 
ATOM     16  C   UNL     1       5.467   3.880  13.627  0.00  0.00    +0.000 A 
BRANCH  11  17
ATOM     17  O   UNL     1       7.300   4.192  12.207  0.00  0.00    +0.000 OA
BRANCH  17  19
ATOM     18  C   UNL     1       7.448   2.054  11.132  0.00  0.00    +0.000 C 
ATOM     19  C   UNL     1       6.608   3.304  11.326  0.00  0.00    +0.000 C 
ENDBRANCH  17  19
ENDBRANCH  11  17
ENDBRANCH   7  14
ENDBRANCH   1   9
BRANCH   6  20
ATOM     20  C   UNL     1       2.792   7.190  18.584  0.00  0.00    +0.000 C 
ATOM     21  O   UNL     1       3.654   7.415  17.749  0.00  0.00    +0.000 OA
BRANCH  20  22
ATOM     22  O   UNL     1       1.894   8.114  19.022  0.00  0.00    +0.000 OA
BRANCH  22  23
ATOM     23  C   UNL     1       1.765   9.287  18.205  0.00  0.00    +0.000 C 
BRANCH  23  24
ATOM     24  C   UNL     1       0.455  10.030  18.432  0.00  0.00    +0.000 A 
ATOM     25  C   UNL     1       0.298  10.780  19.534  0.00  0.00    +0.000 A 
ATOM     26  C   UNL     1      -1.002  11.432  19.810  0.00  0.00    +0.000 A 
ATOM     27  O   UNL     1      -1.142  12.103  20.828  0.00  0.00    +0.000 OA
ATOM     28  N   UNL     1      -1.960  11.163  18.860  0.00  0.00    +0.000 N 
ATOM     29  N   UNL     1      -3.271  11.574  19.006  0.00  0.00    +0.000 NA
ATOM     30  C   UNL     1      -3.948  11.124  18.000  0.00  0.00    +0.000 A 
ATOM     31  S   UNL     1      -3.098  10.221  16.779  0.00  0.00    +0.000 S 
ATOM     32  C   UNL     1      -1.679  10.384  17.766  0.00  0.00    +0.000 A 
ATOM     33  N   UNL     1      -0.546   9.819  17.501  0.00  0.00    +0.000 NA
BRANCH  30  34
ATOM     34  C   UNL     1      -5.407  11.280  17.887  0.00  0.00    +0.000 C 
ATOM     35  C   UNL     1      -6.368  10.485  18.740  0.00  0.00    +0.000 C 
ATOM     36  C   UNL     1      -6.192  11.955  18.987  0.00  0.00    +0.000 C 
ENDBRANCH  30  34
ENDBRANCH  23  24
ENDBRANCH  22  23
ENDBRANCH  20  22
ENDBRANCH   6  20
TORSDOF 9
ENDMDL
MODEL 9
REMARK VINA RESULT:      -7.7      0.947      1.223
REMARK  Name = 
REMARK  10 active torsions:
REMARK  status: ('A' for Active; 'I' for Inactive)
REMARK    1  A    between atoms: C_1  and  C_2
REMARK    2  A    between atoms: C_2  and  O_3
REMARK    3  A    between atoms: O_3  and  C_4
REMARK    4  A    between atoms: C_7  and  C_8
REMARK    5  A    between atoms: N_10  and  C_11
REMARK    6  A    between atoms: C_16  and  C_17
REMARK    7  A    between atoms: C_17  and  O_19
REMARK    8  A    between atoms: O_19  and  C_20
REMARK    9  A    between atoms: C_20  and  C_21
REMARK   10  A    between atoms: C_27  and  C_28
REMARK                            x       y       z     vdW  Elec       q    Type
REMARK                         _______ _______ _______ _____ _____    ______ ____
ROOT
ATOM      1  C   UNL     1       2.695   4.591  18.497  0.00  0.00    +0.000 A 
ATOM      2  C   UNL     1       2.243   3.372  19.026  0.00  0.00    +0.000 A 
ATOM      3  C   UNL     1       1.605   3.320  20.265  0.00  0.00    +0.000 A 
ATOM      4  C   UNL     1       1.380   4.493  20.978  0.00  0.00    +0.000 A 
ATOM      5  C   UNL     1       1.778   5.719  20.438  0.00  0.00    +0.000 A 
ATOM      6  C   UNL     1       2.431   5.794  19.191  0.00  0.00    +0.000 A 
ENDROOT
BRANCH   1   9
ATOM      7  C   UNL     1       4.775   4.375  17.228  0.00  0.00    +0.000 C 
ATOM      8  O   UNL     1       5.488   4.214  18.216  0.00  0.00    +0.000 OA
ATOM      9  N   UNL     1       3.394   4.508  17.268  0.00  0.00    +0.000 N 
ATOM     10  H   UNL     1       2.908   4.088  16.485  0.00  0.00    +0.000 HD
BRANCH   7  14
ATOM     11  C   UNL     1       6.449   4.097  13.275  0.00  0.00    +0.000 A 
ATOM     12  C   UNL     1       5.106   3.800  13.507  0.00  0.00    +0.000 A 
ATOM     13  C   UNL     1       4.571   3.910  14.796  0.00  0.00    +0.000 A 
ATOM     14  C   UNL     1       5.376   4.314  15.867  0.00  0.00    +0.000 A 
ATOM     15  C   UNL     1       6.730   4.591  15.642  0.00  0.00    +0.000 A 
ATOM     16  C   UNL     1       7.260   4.474  14.350  0.00  0.00    +0.000 A 
BRANCH  11  17
ATOM     17  O   UNL     1       7.075   4.043  12.058  0.00  0.00    +0.000 OA
BRANCH  17  19
ATOM     18  C   UNL     1       6.397   1.906  11.209  0.00  0.00    +0.000 C 
ATOM     19  C   UNL     1       7.567   2.761  11.662  0.00  0.00    +0.000 C 
ENDBRANCH  17  19
ENDBRANCH  11  17
ENDBRANCH   7  14
ENDBRANCH   1   9
BRANCH   6  20
ATOM     20  C   UNL     1       2.692   7.142  18.581  0.00  0.00    +0.000 C 
ATOM     21  O   UNL     1       3.079   7.343  17.440  0.00  0.00    +0.000 OA
BRANCH  20  22
ATOM     22  O   UNL     1       2.369   8.128  19.462  0.00  0.00    +0.000 OA
BRANCH  22  23
ATOM     23  C   UNL     1       1.297   8.993  19.057  0.00  0.00    +0.000 C 
BRANCH  23  24
ATOM     24  C   UNL     1       0.622   9.694  20.228  0.00  0.00    +0.000 A 
ATOM     25  C   UNL     1       0.849   9.266  21.480  0.00  0.00    +0.000 A 
ATOM     26  C   UNL     1       0.128   9.881  22.617  0.00  0.00    +0.000 A 
ATOM     27  O   UNL     1       0.328   9.472  23.758  0.00  0.00    +0.000 OA
ATOM     28  N   UNL     1      -0.755  10.865  22.236  0.00  0.00    +0.000 N 
ATOM     29  N   UNL     1      -1.613  11.467  23.137  0.00  0.00    +0.000 NA
ATOM     30  C   UNL     1      -2.363  12.296  22.486  0.00  0.00    +0.000 A 
ATOM     31  S   UNL     1      -2.096  12.469  20.774  0.00  0.00    +0.000 S 
ATOM     32  C   UNL     1      -0.896  11.224  20.920  0.00  0.00    +0.000 A 
ATOM     33  N   UNL     1      -0.264  10.709  19.916  0.00  0.00    +0.000 NA
BRANCH  30  34
ATOM     34  C   UNL     1      -3.470  13.033  23.115  0.00  0.00    +0.000 C 
ATOM     35  C   UNL     1      -4.032  12.642  24.461  0.00  0.00    +0.000 C 
ATOM     36  C   UNL     1      -3.222  13.898  24.328  0.00  0.00    +0.000 C 
ENDBRANCH  30  34
ENDBRANCH  23  24
ENDBRANCH  22  23
ENDBRANCH  20  22
ENDBRANCH   6  20
TORSDOF 9
ENDMDL
