MODEL 1
REMARK VINA RESULT:      -8.3      0.000      0.000
REMARK  Name = 
REMARK  5 active torsions:
REMARK  status: ('A' for Active; 'I' for Inactive)
REMARK    1  A    between atoms: C_1  and  C_2
REMARK    2  A    between atoms: C_5  and  C_6
REMARK    3  A    between atoms: N_8  and  C_9
REMARK    4  A    between atoms: C_14  and  C_15
REMARK    5  A    between atoms: N_20  and  C_21
REMARK                            x       y       z     vdW  Elec       q    Type
REMARK                         _______ _______ _______ _____ _____    ______ ____
ROOT
ATOM      1  C   UNL     1       3.404   4.555  19.329  0.00  0.00    +0.000 A 
ATOM      2  N   UNL     1       3.310   3.399  20.031  0.00  0.00    +0.000 NA
ATOM      3  C   UNL     1       2.294   3.246  20.905  0.00  0.00    +0.000 A 
ATOM      4  C   UNL     1       1.356   4.228  21.106  0.00  0.00    +0.000 A 
ATOM      5  N   UNL     1       1.422   5.406  20.470  0.00  0.00    +0.000 NA
ATOM      6  C   UNL     1       2.479   5.575  19.605  0.00  0.00    +0.000 A 
ENDROOT
BRANCH   6   7
ATOM      7  C   UNL     1       2.515   6.920  18.939  0.00  0.00    +0.000 C 
ATOM      8  O   UNL     1       3.006   7.013  17.814  0.00  0.00    +0.000 OA
ATOM      9  N   UNL     1       1.917   8.003  19.604  0.00  0.00    +0.000 N 
ATOM     10  C   UNL     1       1.554   9.212  18.862  0.00  0.00    +0.000 C 
ATOM     11  C   UNL     1       0.230   9.801  19.395  0.00  0.00    +0.000 C 
ATOM     12  N   UNL     1       0.347  10.081  20.845  0.00  0.00    +0.000 N 
ATOM     13  C   UNL     1       0.692   8.872  21.632  0.00  0.00    +0.000 C 
ATOM     14  C   UNL     1       1.969   8.206  21.067  0.00  0.00    +0.000 C 
BRANCH  12  15
ATOM     15  C   UNL     1      -0.635  10.894  21.430  0.00  0.00    +0.000 A 
ATOM     16  C   UNL     1      -1.016  10.801  22.779  0.00  0.00    +0.000 A 
ATOM     17  C   UNL     1      -2.063  11.575  23.292  0.00  0.00    +0.000 A 
ATOM     18  C   UNL     1      -2.742  12.452  22.458  0.00  0.00    +0.000 A 
ATOM     19  F   UNL     1      -3.764  13.169  22.943  0.00  0.00    +0.000 F 
ATOM     20  C   UNL     1      -2.379  12.586  21.127  0.00  0.00    +0.000 A 
ATOM     21  C   UNL     1      -1.325  11.814  20.622  0.00  0.00    +0.000 A 
ENDBRANCH  12  15
ENDBRANCH   6   7
BRANCH   1  24
ATOM     22  C   UNL     1       4.290   4.074  17.076  0.00  0.00    +0.000 C 
ATOM     23  O   UNL     1       3.338   3.389  16.706  0.00  0.00    +0.000 OA
ATOM     24  N   UNL     1       4.418   4.655  18.336  0.00  0.00    +0.000 N 
ATOM     25  H   UNL     1       5.176   5.299  18.542  0.00  0.00    +0.000 HD
BRANCH  22  30
ATOM     26  C   UNL     1       7.981   5.241  12.740  0.00  0.00    +0.000 C 
ATOM     27  C   UNL     1       7.129   4.838  13.907  0.00  0.00    +0.000 A 
ATOM     28  C   UNL     1       6.002   4.044  13.704  0.00  0.00    +0.000 A 
ATOM     29  C   UNL     1       5.128   3.787  14.762  0.00  0.00    +0.000 A 
ATOM     30  C   UNL     1       5.347   4.328  16.045  0.00  0.00    +0.000 A 
ATOM     31  C   UNL     1       6.508   5.075  16.262  0.00  0.00    +0.000 A 
ATOM     32  C   UNL     1       7.388   5.330  15.195  0.00  0.00    +0.000 A 
ENDBRANCH  22  30
ENDBRANCH   1  24
TORSDOF 4
ENDMDL
MODEL 2
REMARK VINA RESULT:      -8.2      0.792      1.174
REMARK  Name = 
REMARK  5 active torsions:
REMARK  status: ('A' for Active; 'I' for Inactive)
REMARK    1  A    between atoms: C_1  and  C_2
REMARK    2  A    between atoms: C_5  and  C_6
REMARK    3  A    between atoms: N_8  and  C_9
REMARK    4  A    between atoms: C_14  and  C_15
REMARK    5  A    between atoms: N_20  and  C_21
REMARK                            x       y       z     vdW  Elec       q    Type
REMARK                         _______ _______ _______ _____ _____    ______ ____
ROOT
ATOM      1  C   UNL     1       3.025   4.574  18.610  0.00  0.00    +0.000 A 
ATOM      2  N   UNL     1       2.877   3.363  19.199  0.00  0.00    +0.000 NA
ATOM      3  C   UNL     1       2.103   3.262  20.300  0.00  0.00    +0.000 A 
ATOM      4  C   UNL     1       1.466   4.351  20.841  0.00  0.00    +0.000 A 
ATOM      5  N   UNL     1       1.609   5.579  20.323  0.00  0.00    +0.000 NA
ATOM      6  C   UNL     1       2.427   5.687  19.222  0.00  0.00    +0.000 A 
ENDROOT
BRANCH   6   7
ATOM      7  C   UNL     1       2.568   7.087  18.700  0.00  0.00    +0.000 C 
ATOM      8  O   UNL     1       3.185   7.272  17.651  0.00  0.00    +0.000 OA
ATOM      9  N   UNL     1       1.922   8.121  19.398  0.00  0.00    +0.000 N 
ATOM     10  C   UNL     1       1.673   9.406  18.743  0.00  0.00    +0.000 C 
ATOM     11  C   UNL     1       0.309   9.986  19.181  0.00  0.00    +0.000 C 
ATOM     12  N   UNL     1       0.267  10.122  20.656  0.00  0.00    +0.000 N 
ATOM     13  C   UNL     1       0.494   8.832  21.353  0.00  0.00    +0.000 C 
ATOM     14  C   UNL     1       1.812   8.182  20.870  0.00  0.00    +0.000 C 
BRANCH  12  15
ATOM     15  C   UNL     1      -0.757  10.906  21.205  0.00  0.00    +0.000 A 
ATOM     16  C   UNL     1      -1.528  11.812  20.458  0.00  0.00    +0.000 A 
ATOM     17  C   UNL     1      -2.479  12.635  21.071  0.00  0.00    +0.000 A 
ATOM     18  C   UNL     1      -2.668  12.561  22.443  0.00  0.00    +0.000 A 
ATOM     19  F   UNL     1      -3.557  13.372  23.034  0.00  0.00    +0.000 F 
ATOM     20  C   UNL     1      -1.942  11.664  23.210  0.00  0.00    +0.000 A 
ATOM     21  C   UNL     1      -0.997  10.838  22.589  0.00  0.00    +0.000 A 
ENDBRANCH  12  15
ENDBRANCH   6   7
BRANCH   1  24
ATOM     22  C   UNL     1       5.145   4.553  17.346  0.00  0.00    +0.000 C 
ATOM     23  O   UNL     1       5.880   4.462  18.327  0.00  0.00    +0.000 OA
ATOM     24  N   UNL     1       3.756   4.640  17.391  0.00  0.00    +0.000 N 
ATOM     25  H   UNL     1       3.200   4.602  16.540  0.00  0.00    +0.000 HD
BRANCH  22  30
ATOM     26  C   UNL     1       7.323   4.544  11.956  0.00  0.00    +0.000 C 
ATOM     27  C   UNL     1       6.864   4.442  13.381  0.00  0.00    +0.000 A 
ATOM     28  C   UNL     1       5.680   3.773  13.684  0.00  0.00    +0.000 A 
ATOM     29  C   UNL     1       5.176   3.799  14.985  0.00  0.00    +0.000 A 
ATOM     30  C   UNL     1       5.831   4.506  16.014  0.00  0.00    +0.000 A 
ATOM     31  C   UNL     1       7.049   5.126  15.723  0.00  0.00    +0.000 A 
ATOM     32  C   UNL     1       7.555   5.097  14.411  0.00  0.00    +0.000 A 
ENDBRANCH  22  30
ENDBRANCH   1  24
TORSDOF 4
ENDMDL
MODEL 3
REMARK VINA RESULT:      -8.1      4.094     10.906
REMARK  Name = 
REMARK  5 active torsions:
REMARK  status: ('A' for Active; 'I' for Inactive)
REMARK    1  A    between atoms: C_1  and  C_2
REMARK    2  A    between atoms: C_5  and  C_6
REMARK    3  A    between atoms: N_8  and  C_9
REMARK    4  A    between atoms: C_14  and  C_15
REMARK    5  A    between atoms: N_20  and  C_21
REMARK                            x       y       z     vdW  Elec       q    Type
REMARK                         _______ _______ _______ _____ _____    ______ ____
ROOT
ATOM      1  C   UNL     1      -1.749  11.709  19.292  0.00  0.00    +0.000 A 
ATOM      2  N   UNL     1      -2.555  12.183  18.311  0.00  0.00    +0.000 NA
ATOM      3  C   UNL     1      -2.779  11.418  17.223  0.00  0.00    +0.000 A 
ATOM      4  C   UNL     1      -2.211  10.176  17.080  0.00  0.00    +0.000 A 
ATOM      5  N   UNL     1      -1.374   9.675  17.999  0.00  0.00    +0.000 NA
ATOM      6  C   UNL     1      -1.118  10.471  19.092  0.00  0.00    +0.000 A 
ENDROOT
BRANCH   6   7
ATOM      7  C   UNL     1      -0.158   9.869  20.076  0.00  0.00    +0.000 C 
ATOM      8  O   UNL     1      -0.407   9.953  21.278  0.00  0.00    +0.000 OA
ATOM      9  N   UNL     1       0.952   9.169  19.573  0.00  0.00    +0.000 N 
ATOM     10  C   UNL     1       1.679   8.231  20.431  0.00  0.00    +0.000 C 
ATOM     11  C   UNL     1       2.145   7.001  19.620  0.00  0.00    +0.000 C 
ATOM     12  N   UNL     1       2.980   7.435  18.476  0.00  0.00    +0.000 N 
ATOM     13  C   UNL     1       2.266   8.371  17.572  0.00  0.00    +0.000 C 
ATOM     14  C   UNL     1       1.709   9.573  18.371  0.00  0.00    +0.000 C 
BRANCH  12  15
ATOM     15  C   UNL     1       3.736   6.456  17.816  0.00  0.00    +0.000 A 
ATOM     16  C   UNL     1       4.817   6.749  16.968  0.00  0.00    +0.000 A 
ATOM     17  C   UNL     1       5.483   5.740  16.265  0.00  0.00    +0.000 A 
ATOM     18  C   UNL     1       5.074   4.422  16.402  0.00  0.00    +0.000 A 
ATOM     19  F   UNL     1       5.692   3.460  15.705  0.00  0.00    +0.000 F 
ATOM     20  C   UNL     1       4.026   4.092  17.247  0.00  0.00    +0.000 A 
ATOM     21  C   UNL     1       3.368   5.106  17.955  0.00  0.00    +0.000 A 
ENDBRANCH  12  15
ENDBRANCH   6   7
BRANCH   1  24
ATOM     22  C   UNL     1      -2.695  12.793  21.298  0.00  0.00    +0.000 C 
ATOM     23  O   UNL     1      -3.864  12.484  21.073  0.00  0.00    +0.000 OA
ATOM     24  N   UNL     1      -1.612  12.484  20.478  0.00  0.00    +0.000 N 
ATOM     25  H   UNL     1      -0.659  12.672  20.775  0.00  0.00    +0.000 HD
BRANCH  22  30
ATOM     26  C   UNL     1      -1.589  16.006  26.015  0.00  0.00    +0.000 C 
ATOM     27  C   UNL     1      -1.848  15.056  24.883  0.00  0.00    +0.000 A 
ATOM     28  C   UNL     1      -0.901  14.906  23.871  0.00  0.00    +0.000 A 
ATOM     29  C   UNL     1      -1.197  14.135  22.746  0.00  0.00    +0.000 A 
ATOM     30  C   UNL     1      -2.449  13.507  22.593  0.00  0.00    +0.000 A 
ATOM     31  C   UNL     1      -3.375  13.609  23.634  0.00  0.00    +0.000 A 
ATOM     32  C   UNL     1      -3.074  14.385  24.768  0.00  0.00    +0.000 A 
ENDBRANCH  22  30
ENDBRANCH   1  24
TORSDOF 4
ENDMDL
MODEL 4
REMARK VINA RESULT:      -8.0      4.710      9.301
REMARK  Name = 
REMARK  5 active torsions:
REMARK  status: ('A' for Active; 'I' for Inactive)
REMARK    1  A    between atoms: C_1  and  C_2
REMARK    2  A    between atoms: C_5  and  C_6
REMARK    3  A    between atoms: N_8  and  C_9
REMARK    4  A    between atoms: C_14  and  C_15
REMARK    5  A    between atoms: N_20  and  C_21
REMARK                            x       y       z     vdW  Elec       q    Type
REMARK                         _______ _______ _______ _____ _____    ______ ____
ROOT
ATOM      1  C   UNL     1      -0.353  11.976  18.746  0.00  0.00    +0.000 A 
ATOM      2  N   UNL     1      -1.168  12.403  17.751  0.00  0.00    +0.000 NA
ATOM      3  C   UNL     1      -2.154  11.589  17.320  0.00  0.00    +0.000 A 
ATOM      4  C   UNL     1      -2.352  10.342  17.858  0.00  0.00    +0.000 A 
ATOM      5  N   UNL     1      -1.552   9.853  18.816  0.00  0.00    +0.000 NA
ATOM      6  C   UNL     1      -0.524  10.670  19.230  0.00  0.00    +0.000 A 
ENDROOT
BRANCH   6   7
ATOM      7  C   UNL     1       0.352  10.062  20.287  0.00  0.00    +0.000 C 
ATOM      8  O   UNL     1       0.294  10.505  21.434  0.00  0.00    +0.000 OA
ATOM      9  N   UNL     1       1.149   8.961  19.932  0.00  0.00    +0.000 N 
ATOM     10  C   UNL     1       1.693   8.083  20.970  0.00  0.00    +0.000 C 
ATOM     11  C   UNL     1       1.691   6.613  20.495  0.00  0.00    +0.000 C 
ATOM     12  N   UNL     1       2.457   6.486  19.234  0.00  0.00    +0.000 N 
ATOM     13  C   UNL     1       1.919   7.347  18.151  0.00  0.00    +0.000 C 
ATOM     14  C   UNL     1       1.825   8.816  18.626  0.00  0.00    +0.000 C 
BRANCH  12  15
ATOM     15  C   UNL     1       2.821   5.196  18.822  0.00  0.00    +0.000 A 
ATOM     16  C   UNL     1       2.128   4.471  17.839  0.00  0.00    +0.000 A 
ATOM     17  C   UNL     1       2.479   3.153  17.527  0.00  0.00    +0.000 A 
ATOM     18  C   UNL     1       3.529   2.544  18.199  0.00  0.00    +0.000 A 
ATOM     19  F   UNL     1       3.843   1.271  17.921  0.00  0.00    +0.000 F 
ATOM     20  C   UNL     1       4.249   3.236  19.159  0.00  0.00    +0.000 A 
ATOM     21  C   UNL     1       3.898   4.558  19.461  0.00  0.00    +0.000 A 
ENDBRANCH  12  15
ENDBRANCH   6   7
BRANCH   1  24
ATOM     22  C   UNL     1       1.934  12.904  18.824  0.00  0.00    +0.000 C 
ATOM     23  O   UNL     1       2.418  12.123  18.007  0.00  0.00    +0.000 OA
ATOM     24  N   UNL     1       0.611  12.889  19.259  0.00  0.00    +0.000 N 
ATOM     25  H   UNL     1       0.245  13.630  19.852  0.00  0.00    +0.000 HD
BRANCH  22  30
ATOM     26  C   UNL     1       5.164  17.433  20.512  0.00  0.00    +0.000 C 
ATOM     27  C   UNL     1       4.455  16.181  20.085  0.00  0.00    +0.000 A 
ATOM     28  C   UNL     1       4.094  16.007  18.750  0.00  0.00    +0.000 A 
ATOM     29  C   UNL     1       3.311  14.915  18.374  0.00  0.00    +0.000 A 
ATOM     30  C   UNL     1       2.854  13.977  19.322  0.00  0.00    +0.000 A 
ATOM     31  C   UNL     1       3.266  14.118  20.650  0.00  0.00    +0.000 A 
ATOM     32  C   UNL     1       4.057  15.219  21.025  0.00  0.00    +0.000 A 
ENDBRANCH  22  30
ENDBRANCH   1  24
TORSDOF 4
ENDMDL
MODEL 5
REMARK VINA RESULT:      -8.0      4.389     10.800
REMARK  Name = 
REMARK  5 active torsions:
REMARK  status: ('A' for Active; 'I' for Inactive)
REMARK    1  A    between atoms: C_1  and  C_2
REMARK    2  A    between atoms: C_5  and  C_6
REMARK    3  A    between atoms: N_8  and  C_9
REMARK    4  A    between atoms: C_14  and  C_15
REMARK    5  A    between atoms: N_20  and  C_21
REMARK                            x       y       z     vdW  Elec       q    Type
REMARK                         _______ _______ _______ _____ _____    ______ ____
ROOT
ATOM      1  C   UNL     1       0.388  13.776  21.369  0.00  0.00    +0.000 A 
ATOM      2  N   UNL     1       1.087  14.569  22.217  0.00  0.00    +0.000 NA
ATOM      3  C   UNL     1       2.392  14.806  21.965  0.00  0.00    +0.000 A 
ATOM      4  C   UNL     1       3.029  14.265  20.876  0.00  0.00    +0.000 A 
ATOM      5  N   UNL     1       2.398  13.443  20.027  0.00  0.00    +0.000 NA
ATOM      6  C   UNL     1       1.077  13.173  20.305  0.00  0.00    +0.000 A 
ENDROOT
BRANCH   6   7
ATOM      7  C   UNL     1       0.428  12.229  19.334  0.00  0.00    +0.000 C 
ATOM      8  O   UNL     1      -0.239  12.694  18.410  0.00  0.00    +0.000 OA
ATOM      9  N   UNL     1       0.674  10.854  19.484  0.00  0.00    +0.000 N 
ATOM     10  C   UNL     1       0.427   9.939  18.369  0.00  0.00    +0.000 C 
ATOM     11  C   UNL     1       1.499   8.827  18.329  0.00  0.00    +0.000 C 
ATOM     12  N   UNL     1       1.524   8.101  19.620  0.00  0.00    +0.000 N 
ATOM     13  C   UNL     1       1.795   8.997  20.772  0.00  0.00    +0.000 C 
ATOM     14  C   UNL     1       0.789  10.172  20.789  0.00  0.00    +0.000 C 
BRANCH  12  15
ATOM     15  C   UNL     1       2.209   6.878  19.663  0.00  0.00    +0.000 A 
ATOM     16  C   UNL     1       3.234   6.530  18.768  0.00  0.00    +0.000 A 
ATOM     17  C   UNL     1       3.825   5.263  18.799  0.00  0.00    +0.000 A 
ATOM     18  C   UNL     1       3.395   4.326  19.727  0.00  0.00    +0.000 A 
ATOM     19  F   UNL     1       3.940   3.102  19.735  0.00  0.00    +0.000 F 
ATOM     20  C   UNL     1       2.401   4.641  20.640  0.00  0.00    +0.000 A 
ATOM     21  C   UNL     1       1.819   5.914  20.610  0.00  0.00    +0.000 A 
ENDBRANCH  12  15
ENDBRANCH   6   7
BRANCH   1  24
ATOM     22  C   UNL     1      -1.527  12.718  22.512  0.00  0.00    +0.000 C 
ATOM     23  O   UNL     1      -0.859  11.931  23.181  0.00  0.00    +0.000 OA
ATOM     24  N   UNL     1      -1.009  13.627  21.592  0.00  0.00    +0.000 N 
ATOM     25  H   UNL     1      -1.604  14.324  21.153  0.00  0.00    +0.000 HD
BRANCH  22  30
ATOM     26  C   UNL     1      -7.148  13.046  23.956  0.00  0.00    +0.000 C 
ATOM     27  C   UNL     1      -5.727  12.824  23.529  0.00  0.00    +0.000 A 
ATOM     28  C   UNL     1      -4.750  12.545  24.483  0.00  0.00    +0.000 A 
ATOM     29  C   UNL     1      -3.407  12.480  24.109  0.00  0.00    +0.000 A 
ATOM     30  C   UNL     1      -3.002  12.708  22.779  0.00  0.00    +0.000 A 
ATOM     31  C   UNL     1      -3.986  12.929  21.812  0.00  0.00    +0.000 A 
ATOM     32  C   UNL     1      -5.339  12.992  22.191  0.00  0.00    +0.000 A 
ENDBRANCH  22  30
ENDBRANCH   1  24
TORSDOF 4
ENDMDL
MODEL 6
REMARK VINA RESULT:      -8.0      4.054     10.721
REMARK  Name = 
REMARK  5 active torsions:
REMARK  status: ('A' for Active; 'I' for Inactive)
REMARK    1  A    between atoms: C_1  and  C_2
REMARK    2  A    between atoms: C_5  and  C_6
REMARK    3  A    between atoms: N_8  and  C_9
REMARK    4  A    between atoms: C_14  and  C_15
REMARK    5  A    between atoms: N_20  and  C_21
REMARK                            x       y       z     vdW  Elec       q    Type
REMARK                         _______ _______ _______ _____ _____    ______ ____
ROOT
ATOM      1  C   UNL     1      -1.800  11.519  19.268  0.00  0.00    +0.000 A 
ATOM      2  N   UNL     1      -2.605  11.997  18.287  0.00  0.00    +0.000 NA
ATOM      3  C   UNL     1      -2.720  11.300  17.138  0.00  0.00    +0.000 A 
ATOM      4  C   UNL     1      -2.042  10.124  16.933  0.00  0.00    +0.000 A 
ATOM      5  N   UNL     1      -1.202   9.625  17.851  0.00  0.00    +0.000 NA
ATOM      6  C   UNL     1      -1.059  10.356  19.008  0.00  0.00    +0.000 A 
ENDROOT
BRANCH   6   7
ATOM      7  C   UNL     1      -0.090   9.763  19.989  0.00  0.00    +0.000 C 
ATOM      8  O   UNL     1      -0.337   9.844  21.192  0.00  0.00    +0.000 OA
ATOM      9  N   UNL     1       1.025   9.074  19.483  0.00  0.00    +0.000 N 
ATOM     10  C   UNL     1       1.764   8.143  20.338  0.00  0.00    +0.000 C 
ATOM     11  C   UNL     1       2.240   6.918  19.526  0.00  0.00    +0.000 C 
ATOM     12  N   UNL     1       3.068   7.361  18.380  0.00  0.00    +0.000 N 
ATOM     13  C   UNL     1       2.342   8.290  17.478  0.00  0.00    +0.000 C 
ATOM     14  C   UNL     1       1.775   9.487  18.279  0.00  0.00    +0.000 C 
BRANCH  12  15
ATOM     15  C   UNL     1       3.832   6.389  17.718  0.00  0.00    +0.000 A 
ATOM     16  C   UNL     1       4.888   6.695  16.844  0.00  0.00    +0.000 A 
ATOM     17  C   UNL     1       5.562   5.691  16.140  0.00  0.00    +0.000 A 
ATOM     18  C   UNL     1       5.185   4.366  16.304  0.00  0.00    +0.000 A 
ATOM     19  F   UNL     1       5.811   3.408  15.606  0.00  0.00    +0.000 F 
ATOM     20  C   UNL     1       4.162   4.025  17.174  0.00  0.00    +0.000 A 
ATOM     21  C   UNL     1       3.497   5.034  17.882  0.00  0.00    +0.000 A 
ENDBRANCH  12  15
ENDBRANCH   6   7
BRANCH   1  24
ATOM     22  C   UNL     1      -0.986  13.337  20.726  0.00  0.00    +0.000 C 
ATOM     23  O   UNL     1      -0.203  13.818  19.908  0.00  0.00    +0.000 OA
ATOM     24  N   UNL     1      -1.777  12.211  20.511  0.00  0.00    +0.000 N 
ATOM     25  H   UNL     1      -2.483  11.930  21.186  0.00  0.00    +0.000 HD
BRANCH  22  30
ATOM     26  C   UNL     1      -1.455  15.727  26.004  0.00  0.00    +0.000 C 
ATOM     27  C   UNL     1      -1.404  15.232  24.588  0.00  0.00    +0.000 A 
ATOM     28  C   UNL     1      -2.261  14.213  24.176  0.00  0.00    +0.000 A 
ATOM     29  C   UNL     1      -2.120  13.652  22.906  0.00  0.00    +0.000 A 
ATOM     30  C   UNL     1      -1.111  14.081  22.020  0.00  0.00    +0.000 A 
ATOM     31  C   UNL     1      -0.291  15.143  22.411  0.00  0.00    +0.000 A 
ATOM     32  C   UNL     1      -0.436  15.708  23.691  0.00  0.00    +0.000 A 
ENDBRANCH  22  30
ENDBRANCH   1  24
TORSDOF 4
ENDMDL
MODEL 7
REMARK VINA RESULT:      -7.9      4.636      9.680
REMARK  Name = 
REMARK  5 active torsions:
REMARK  status: ('A' for Active; 'I' for Inactive)
REMARK    1  A    between atoms: C_1  and  C_2
REMARK    2  A    between atoms: C_5  and  C_6
REMARK    3  A    between atoms: N_8  and  C_9
REMARK    4  A    between atoms: C_14  and  C_15
REMARK    5  A    between atoms: N_20  and  C_21
REMARK                            x       y       z     vdW  Elec       q    Type
REMARK                         _______ _______ _______ _____ _____    ______ ____
ROOT
ATOM      1  C   UNL     1      -0.528  11.826  19.036  0.00  0.00    +0.000 A 
ATOM      2  N   UNL     1      -1.330  12.430  18.125  0.00  0.00    +0.000 NA
ATOM      3  C   UNL     1      -2.228  11.684  17.448  0.00  0.00    +0.000 A 
ATOM      4  C   UNL     1      -2.348  10.332  17.653  0.00  0.00    +0.000 A 
ATOM      5  N   UNL     1      -1.554   9.676  18.511  0.00  0.00    +0.000 NA
ATOM      6  C   UNL     1      -0.615  10.432  19.175  0.00  0.00    +0.000 A 
ENDROOT
BRANCH   6   7
ATOM      7  C   UNL     1       0.260   9.642  20.104  0.00  0.00    +0.000 C 
ATOM      8  O   UNL     1       0.001   9.641  21.307  0.00  0.00    +0.000 OA
ATOM      9  N   UNL     1       1.298   8.878  19.545  0.00  0.00    +0.000 N 
ATOM     10  C   UNL     1       1.908   7.792  20.316  0.00  0.00    +0.000 C 
ATOM     11  C   UNL     1       2.255   6.601  19.397  0.00  0.00    +0.000 C 
ATOM     12  N   UNL     1       3.151   7.048  18.304  0.00  0.00    +0.000 N 
ATOM     13  C   UNL     1       2.554   8.134  17.487  0.00  0.00    +0.000 C 
ATOM     14  C   UNL     1       2.114   9.309  18.392  0.00  0.00    +0.000 C 
BRANCH  12  15
ATOM     15  C   UNL     1       3.811   6.059  17.561  0.00  0.00    +0.000 A 
ATOM     16  C   UNL     1       3.582   4.683  17.723  0.00  0.00    +0.000 A 
ATOM     17  C   UNL     1       4.330   3.734  17.018  0.00  0.00    +0.000 A 
ATOM     18  C   UNL     1       5.320   4.153  16.141  0.00  0.00    +0.000 A 
ATOM     19  F   UNL     1       6.057   3.243  15.490  0.00  0.00    +0.000 F 
ATOM     20  C   UNL     1       5.559   5.503  15.938  0.00  0.00    +0.000 A 
ATOM     21  C   UNL     1       4.801   6.448  16.641  0.00  0.00    +0.000 A 
ENDBRANCH  12  15
ENDBRANCH   6   7
BRANCH   1  24
ATOM     22  C   UNL     1       1.564  13.100  19.342  0.00  0.00    +0.000 C 
ATOM     23  O   UNL     1       2.052  12.811  18.251  0.00  0.00    +0.000 OA
ATOM     24  N   UNL     1       0.335  12.647  19.815  0.00  0.00    +0.000 N 
ATOM     25  H   UNL     1      -0.061  13.009  20.678  0.00  0.00    +0.000 HD
BRANCH  22  30
ATOM     26  C   UNL     1       4.638  17.169  22.132  0.00  0.00    +0.000 C 
ATOM     27  C   UNL     1       3.908  16.019  21.505  0.00  0.00    +0.000 A 
ATOM     28  C   UNL     1       4.303  15.543  20.256  0.00  0.00    +0.000 A 
ATOM     29  C   UNL     1       3.541  14.570  19.605  0.00  0.00    +0.000 A 
ATOM     30  C   UNL     1       2.358  14.060  20.176  0.00  0.00    +0.000 A 
ATOM     31  C   UNL     1       1.994  14.494  21.453  0.00  0.00    +0.000 A 
ATOM     32  C   UNL     1       2.765  15.472  22.107  0.00  0.00    +0.000 A 
ENDBRANCH  22  30
ENDBRANCH   1  24
TORSDOF 4
ENDMDL
MODEL 8
REMARK VINA RESULT:      -7.8      0.780      1.155
REMARK  Name = 
REMARK  5 active torsions:
REMARK  status: ('A' for Active; 'I' for Inactive)
REMARK    1  A    between atoms: C_1  and  C_2
REMARK    2  A    between atoms: C_5  and  C_6
REMARK    3  A    between atoms: N_8  and  C_9
REMARK    4  A    between atoms: C_14  and  C_15
REMARK    5  A    between atoms: N_20  and  C_21
REMARK                            x       y       z     vdW  Elec       q    Type
REMARK                         _______ _______ _______ _____ _____    ______ ____
ROOT
ATOM      1  C   UNL     1       2.945   4.707  18.638  0.00  0.00    +0.000 A 
ATOM      2  N   UNL     1       2.856   3.503  19.254  0.00  0.00    +0.000 NA
ATOM      3  C   UNL     1       2.200   3.417  20.430  0.00  0.00    +0.000 A 
ATOM      4  C   UNL     1       1.624   4.514  21.020  0.00  0.00    +0.000 A 
ATOM      5  N   UNL     1       1.714   5.736  20.476  0.00  0.00    +0.000 NA
ATOM      6  C   UNL     1       2.415   5.828  19.295  0.00  0.00    +0.000 A 
ENDROOT
BRANCH   6   7
ATOM      7  C   UNL     1       2.503   7.222  18.745  0.00  0.00    +0.000 C 
ATOM      8  O   UNL     1       3.062   7.400  17.662  0.00  0.00    +0.000 OA
ATOM      9  N   UNL     1       1.877   8.257  19.460  0.00  0.00    +0.000 N 
ATOM     10  C   UNL     1       1.571   9.527  18.799  0.00  0.00    +0.000 C 
ATOM     11  C   UNL     1       0.223  10.090  19.299  0.00  0.00    +0.000 C 
ATOM     12  N   UNL     1       0.255  10.250  20.772  0.00  0.00    +0.000 N 
ATOM     13  C   UNL     1       0.541   8.975  21.477  0.00  0.00    +0.000 C 
ATOM     14  C   UNL     1       1.843   8.339  20.935  0.00  0.00    +0.000 C 
BRANCH  12  15
ATOM     15  C   UNL     1      -0.752  11.026  21.363  0.00  0.00    +0.000 A 
ATOM     16  C   UNL     1      -1.072  10.973  22.729  0.00  0.00    +0.000 A 
ATOM     17  C   UNL     1      -2.144  11.703  23.253  0.00  0.00    +0.000 A 
ATOM     18  C   UNL     1      -2.911  12.496  22.412  0.00  0.00    +0.000 A 
ATOM     19  F   UNL     1      -3.957  13.171  22.908  0.00  0.00    +0.000 F 
ATOM     20  C   UNL     1      -2.612  12.590  21.062  0.00  0.00    +0.000 A 
ATOM     21  C   UNL     1      -1.532  11.863  20.545  0.00  0.00    +0.000 A 
ENDBRANCH  12  15
ENDBRANCH   6   7
BRANCH   1  24
ATOM     22  C   UNL     1       4.915   4.587  17.155  0.00  0.00    +0.000 C 
ATOM     23  O   UNL     1       5.742   4.429  18.052  0.00  0.00    +0.000 OA
ATOM     24  N   UNL     1       3.546   4.756  17.349  0.00  0.00    +0.000 N 
ATOM     25  H   UNL     1       2.903   4.772  16.562  0.00  0.00    +0.000 HD
BRANCH  22  30
ATOM     26  C   UNL     1       7.467   4.143  11.951  0.00  0.00    +0.000 C 
ATOM     27  C   UNL     1       6.726   4.369  13.236  0.00  0.00    +0.000 A 
ATOM     28  C   UNL     1       7.358   5.010  14.300  0.00  0.00    +0.000 A 
ATOM     29  C   UNL     1       6.725   5.095  15.541  0.00  0.00    +0.000 A 
ATOM     30  C   UNL     1       5.452   4.528  15.757  0.00  0.00    +0.000 A 
ATOM     31  C   UNL     1       4.794   3.938  14.675  0.00  0.00    +0.000 A 
ATOM     32  C   UNL     1       5.434   3.857  13.425  0.00  0.00    +0.000 A 
ENDBRANCH  22  30
ENDBRANCH   1  24
TORSDOF 4
ENDMDL
MODEL 9
REMARK VINA RESULT:      -7.8      1.272      1.458
REMARK  Name = 
REMARK  5 active torsions:
REMARK  status: ('A' for Active; 'I' for Inactive)
REMARK    1  A    between atoms: C_1  and  C_2
REMARK    2  A    between atoms: C_5  and  C_6
REMARK    3  A    between atoms: N_8  and  C_9
REMARK    4  A    between atoms: C_14  and  C_15
REMARK    5  A    between atoms: N_20  and  C_21
REMARK                            x       y       z     vdW  Elec       q    Type
REMARK                         _______ _______ _______ _____ _____    ______ ____
ROOT
ATOM      1  C   UNL     1       3.020   4.830  18.538  0.00  0.00    +0.000 A 
ATOM      2  N   UNL     1       2.798   3.662  19.188  0.00  0.00    +0.000 NA
ATOM      3  C   UNL     1       2.049   3.671  20.310  0.00  0.00    +0.000 A 
ATOM      4  C   UNL     1       1.510   4.829  20.813  0.00  0.00    +0.000 A 
ATOM      5  N   UNL     1       1.731   6.018  20.235  0.00  0.00    +0.000 NA
ATOM      6  C   UNL     1       2.525   6.012  19.110  0.00  0.00    +0.000 A 
ENDROOT
BRANCH   6   7
ATOM      7  C   UNL     1       2.756   7.372  18.519  0.00  0.00    +0.000 C 
ATOM      8  O   UNL     1       3.598   7.499  17.630  0.00  0.00    +0.000 OA
ATOM      9  N   UNL     1       1.945   8.431  18.960  0.00  0.00    +0.000 N 
ATOM     10  C   UNL     1       1.831   9.652  18.158  0.00  0.00    +0.000 C 
ATOM     11  C   UNL     1       0.392  10.210  18.220  0.00  0.00    +0.000 C 
ATOM     12  N   UNL     1       0.004  10.458  19.628  0.00  0.00    +0.000 N 
ATOM     13  C   UNL     1       0.087   9.236  20.465  0.00  0.00    +0.000 C 
ATOM     14  C   UNL     1       1.494   8.601  20.356  0.00  0.00    +0.000 C 
BRANCH  12  15
ATOM     15  C   UNL     1      -1.135  11.243  19.858  0.00  0.00    +0.000 A 
ATOM     16  C   UNL     1      -1.391  11.903  21.071  0.00  0.00    +0.000 A 
ATOM     17  C   UNL     1      -2.584  12.602  21.280  0.00  0.00    +0.000 A 
ATOM     18  C   UNL     1      -3.539  12.647  20.275  0.00  0.00    +0.000 A 
ATOM     19  F   UNL     1      -4.695  13.290  20.487  0.00  0.00    +0.000 F 
ATOM     20  C   UNL     1      -3.312  12.026  19.056  0.00  0.00    +0.000 A 
ATOM     21  C   UNL     1      -2.111  11.335  18.851  0.00  0.00    +0.000 A 
ENDBRANCH  12  15
ENDBRANCH   6   7
BRANCH   1  24
ATOM     22  C   UNL     1       5.111   4.767  17.227  0.00  0.00    +0.000 C 
ATOM     23  O   UNL     1       5.871   4.838  18.192  0.00  0.00    +0.000 OA
ATOM     24  N   UNL     1       3.720   4.784  17.300  0.00  0.00    +0.000 N 
ATOM     25  H   UNL     1       3.150   4.611  16.476  0.00  0.00    +0.000 HD
BRANCH  22  30
ATOM     26  C   UNL     1       7.197   4.290  11.822  0.00  0.00    +0.000 C 
ATOM     27  C   UNL     1       6.754   4.303  13.256  0.00  0.00    +0.000 A 
ATOM     28  C   UNL     1       5.525   3.748  13.609  0.00  0.00    +0.000 A 
ATOM     29  C   UNL     1       5.045   3.885  14.912  0.00  0.00    +0.000 A 
ATOM     30  C   UNL     1       5.770   4.593  15.892  0.00  0.00    +0.000 A 
ATOM     31  C   UNL     1       7.029   5.097  15.554  0.00  0.00    +0.000 A 
ATOM     32  C   UNL     1       7.511   4.956  14.241  0.00  0.00    +0.000 A 
ENDBRANCH  22  30
ENDBRANCH   1  24
TORSDOF 4
ENDMDL
