MODEL 1
REMARK VINA RESULT:      -7.4      0.000      0.000
REMARK  Name = 
REMARK  10 active torsions:
REMARK  status: ('A' for Active; 'I' for Inactive)
REMARK    1  A    between atoms: C_1  and  O_2
REMARK    2  A    between atoms: O_2  and  C_3
REMARK    3  A    between atoms: C_6  and  S_7
REMARK    4  A    between atoms: S_7  and  N_10
REMARK    5  A    between atoms: N_10  and  C_11
REMARK    6  A    between atoms: N_10  and  C_12
REMARK    7  A    between atoms: C_12  and  C_13
REMARK    8  A    between atoms: N_15  and  C_16
REMARK    9  A    between atoms: C_16  and  C_17
REMARK   10  A    between atoms: C_17  and  C_18
REMARK                            x       y       z     vdW  Elec       q    Type
REMARK                         _______ _______ _______ _____ _____    ______ ____
ROOT
ATOM      1  N   UNL     1       2.573   4.011  18.922  0.00  0.00    +0.000 NA
ATOM      2  C   UNL     1       1.463   3.023  19.008  0.00  0.00    +0.000 C 
ENDROOT
BRANCH   1   3
ATOM      3  S   UNL     1       4.114   3.286  18.625  0.00  0.00    +0.000 S 
ATOM      4  O   UNL     1       3.950   2.379  17.509  0.00  0.00    +0.000 OA
ATOM      5  O   UNL     1       4.634   2.829  19.894  0.00  0.00    +0.000 OA
BRANCH   3   9
ATOM      6  C   UNL     1       6.903   6.624  17.214  0.00  0.00    +0.000 A 
ATOM      7  C   UNL     1       7.143   5.959  18.421  0.00  0.00    +0.000 A 
ATOM      8  C   UNL     1       6.283   4.951  18.864  0.00  0.00    +0.000 A 
ATOM      9  C   UNL     1       5.150   4.633  18.106  0.00  0.00    +0.000 A 
ATOM     10  C   UNL     1       4.891   5.304  16.910  0.00  0.00    +0.000 A 
ATOM     11  C   UNL     1       5.773   6.297  16.462  0.00  0.00    +0.000 A 
BRANCH   6  13
ATOM     12  C   UNL     1       7.871   8.714  17.763  0.00  0.00    +0.000 C 
ATOM     13  O   UNL     1       7.814   7.593  16.888  0.00  0.00    +0.000 OA
ENDBRANCH   6  13
ENDBRANCH   3   9
ENDBRANCH   1   3
BRANCH   1  14
ATOM     14  C   UNL     1       2.639   4.874  20.148  0.00  0.00    +0.000 C 
BRANCH  14  15
ATOM     15  C   UNL     1       2.218   6.319  19.935  0.00  0.00    +0.000 C 
ATOM     16  O   UNL     1       2.337   6.875  18.845  0.00  0.00    +0.000 OA
ATOM     17  N   UNL     1       1.694   6.956  21.043  0.00  0.00    +0.000 N 
ATOM     18  H   UNL     1       1.709   6.477  21.937  0.00  0.00    +0.000 HD
BRANCH  17  19
ATOM     19  C   UNL     1       1.260   8.337  20.946  0.00  0.00    +0.000 C 
BRANCH  19  20
ATOM     20  C   UNL     1      -0.068   8.620  21.656  0.00  0.00    +0.000 C 
BRANCH  20  21
ATOM     21  C   UNL     1      -0.374  10.103  21.765  0.00  0.00    +0.000 C 
ATOM     22  C   UNL     1      -0.145  10.952  20.747  0.00  0.00    +0.000 C 
ATOM     23  C   UNL     1      -0.404  12.431  20.814  0.00  0.00    +0.000 C 
ATOM     24  C   UNL     1      -0.632  12.938  22.238  0.00  0.00    +0.000 C 
ATOM     25  C   UNL     1      -1.551  11.998  23.007  0.00  0.00    +0.000 C 
ATOM     26  C   UNL     1      -0.966  10.584  23.073  0.00  0.00    +0.000 C 
ENDBRANCH  20  21
ENDBRANCH  19  20
ENDBRANCH  17  19
ENDBRANCH  14  15
ENDBRANCH   1  14
TORSDOF 8
ENDMDL
MODEL 2
REMARK VINA RESULT:      -7.2      0.868      1.021
REMARK  Name = 
REMARK  10 active torsions:
REMARK  status: ('A' for Active; 'I' for Inactive)
REMARK    1  A    between atoms: C_1  and  O_2
REMARK    2  A    between atoms: O_2  and  C_3
REMARK    3  A    between atoms: C_6  and  S_7
REMARK    4  A    between atoms: S_7  and  N_10
REMARK    5  A    between atoms: N_10  and  C_11
REMARK    6  A    between atoms: N_10  and  C_12
REMARK    7  A    between atoms: C_12  and  C_13
REMARK    8  A    between atoms: N_15  and  C_16
REMARK    9  A    between atoms: C_16  and  C_17
REMARK   10  A    between atoms: C_17  and  C_18
REMARK                            x       y       z     vdW  Elec       q    Type
REMARK                         _______ _______ _______ _____ _____    ______ ____
ROOT
ATOM      1  N   UNL     1       2.251   3.545  18.960  0.00  0.00    +0.000 NA
ATOM      2  C   UNL     1       1.104   2.596  18.958  0.00  0.00    +0.000 C 
ENDROOT
BRANCH   1   3
ATOM      3  S   UNL     1       3.785   2.766  18.791  0.00  0.00    +0.000 S 
ATOM      4  O   UNL     1       3.624   1.716  17.808  0.00  0.00    +0.000 OA
ATOM      5  O   UNL     1       4.280   2.481  20.119  0.00  0.00    +0.000 OA
BRANCH   3   9
ATOM      6  C   UNL     1       6.671   5.858  17.054  0.00  0.00    +0.000 A 
ATOM      7  C   UNL     1       6.544   5.704  18.439  0.00  0.00    +0.000 A 
ATOM      8  C   UNL     1       5.650   4.772  18.973  0.00  0.00    +0.000 A 
ATOM      9  C   UNL     1       4.849   4.015  18.109  0.00  0.00    +0.000 A 
ATOM     10  C   UNL     1       4.955   4.176  16.727  0.00  0.00    +0.000 A 
ATOM     11  C   UNL     1       5.873   5.096  16.200  0.00  0.00    +0.000 A 
BRANCH   6  13
ATOM     12  C   UNL     1       7.730   7.926  17.513  0.00  0.00    +0.000 C 
ATOM     13  O   UNL     1       7.578   6.803  16.652  0.00  0.00    +0.000 OA
ENDBRANCH   6  13
ENDBRANCH   3   9
ENDBRANCH   1   3
BRANCH   1  14
ATOM     14  C   UNL     1       2.248   4.412  20.184  0.00  0.00    +0.000 C 
BRANCH  14  15
ATOM     15  C   UNL     1       2.088   5.899  19.913  0.00  0.00    +0.000 C 
ATOM     16  O   UNL     1       2.286   6.380  18.799  0.00  0.00    +0.000 OA
ATOM     17  N   UNL     1       1.704   6.664  20.998  0.00  0.00    +0.000 N 
ATOM     18  H   UNL     1       1.648   6.227  21.911  0.00  0.00    +0.000 HD
BRANCH  17  19
ATOM     19  C   UNL     1       1.521   8.096  20.845  0.00  0.00    +0.000 C 
BRANCH  19  20
ATOM     20  C   UNL     1       0.310   8.649  21.601  0.00  0.00    +0.000 C 
BRANCH  20  21
ATOM     21  C   UNL     1      -0.219   9.940  21.003  0.00  0.00    +0.000 C 
ATOM     22  C   UNL     1      -0.347  10.107  19.674  0.00  0.00    +0.000 C 
ATOM     23  C   UNL     1      -0.839  11.373  19.031  0.00  0.00    +0.000 C 
ATOM     24  C   UNL     1      -0.863  12.564  19.989  0.00  0.00    +0.000 C 
ATOM     25  C   UNL     1      -1.434  12.160  21.342  0.00  0.00    +0.000 C 
ATOM     26  C   UNL     1      -0.613  11.033  21.974  0.00  0.00    +0.000 C 
ENDBRANCH  20  21
ENDBRANCH  19  20
ENDBRANCH  17  19
ENDBRANCH  14  15
ENDBRANCH   1  14
TORSDOF 8
ENDMDL
MODEL 3
REMARK VINA RESULT:      -7.2      4.876      8.287
REMARK  Name = 
REMARK  10 active torsions:
REMARK  status: ('A' for Active; 'I' for Inactive)
REMARK    1  A    between atoms: C_1  and  O_2
REMARK    2  A    between atoms: O_2  and  C_3
REMARK    3  A    between atoms: C_6  and  S_7
REMARK    4  A    between atoms: S_7  and  N_10
REMARK    5  A    between atoms: N_10  and  C_11
REMARK    6  A    between atoms: N_10  and  C_12
REMARK    7  A    between atoms: C_12  and  C_13
REMARK    8  A    between atoms: N_15  and  C_16
REMARK    9  A    between atoms: C_16  and  C_17
REMARK   10  A    between atoms: C_17  and  C_18
REMARK                            x       y       z     vdW  Elec       q    Type
REMARK                         _______ _______ _______ _____ _____    ______ ____
ROOT
ATOM      1  N   UNL     1       6.602   6.350  18.242  0.00  0.00    +0.000 NA
ATOM      2  C   UNL     1       6.482   5.393  19.376  0.00  0.00    +0.000 C 
ENDROOT
BRANCH   1   3
ATOM      3  S   UNL     1       6.087   5.688  16.730  0.00  0.00    +0.000 S 
ATOM      4  O   UNL     1       7.026   4.642  16.381  0.00  0.00    +0.000 OA
ATOM      5  O   UNL     1       5.827   6.792  15.835  0.00  0.00    +0.000 OA
BRANCH   3   9
ATOM      6  C   UNL     1       2.114   3.697  17.807  0.00  0.00    +0.000 A 
ATOM      7  C   UNL     1       3.161   2.946  17.262  0.00  0.00    +0.000 A 
ATOM      8  C   UNL     1       4.370   3.554  16.916  0.00  0.00    +0.000 A 
ATOM      9  C   UNL     1       4.516   4.937  17.082  0.00  0.00    +0.000 A 
ATOM     10  C   UNL     1       3.470   5.698  17.606  0.00  0.00    +0.000 A 
ATOM     11  C   UNL     1       2.269   5.074  17.973  0.00  0.00    +0.000 A 
BRANCH   6  13
ATOM     12  C   UNL     1       0.703   2.809  19.489  0.00  0.00    +0.000 C 
ATOM     13  O   UNL     1       0.979   2.990  18.104  0.00  0.00    +0.000 OA
ENDBRANCH   6  13
ENDBRANCH   3   9
ENDBRANCH   1   3
BRANCH   1  14
ATOM     14  C   UNL     1       7.997   6.888  18.119  0.00  0.00    +0.000 C 
BRANCH  14  15
ATOM     15  C   UNL     1       8.096   8.403  18.076  0.00  0.00    +0.000 C 
ATOM     16  O   UNL     1       7.502   9.068  17.229  0.00  0.00    +0.000 OA
ATOM     17  N   UNL     1       8.891   8.976  19.050  0.00  0.00    +0.000 N 
ATOM     18  H   UNL     1       9.430   8.372  19.661  0.00  0.00    +0.000 HD
BRANCH  17  19
ATOM     19  C   UNL     1       9.051  10.418  19.099  0.00  0.00    +0.000 C 
BRANCH  19  20
ATOM     20  C   UNL     1      10.436  10.871  19.571  0.00  0.00    +0.000 C 
BRANCH  20  21
ATOM     21  C   UNL     1      10.905  12.143  18.888  0.00  0.00    +0.000 C 
ATOM     22  C   UNL     1      11.453  13.159  19.580  0.00  0.00    +0.000 C 
ATOM     23  C   UNL     1      11.907  14.449  18.957  0.00  0.00    +0.000 C 
ATOM     24  C   UNL     1      11.391  14.643  17.531  0.00  0.00    +0.000 C 
ATOM     25  C   UNL     1      11.522  13.355  16.727  0.00  0.00    +0.000 C 
ATOM     26  C   UNL     1      10.743  12.212  17.384  0.00  0.00    +0.000 C 
ENDBRANCH  20  21
ENDBRANCH  19  20
ENDBRANCH  17  19
ENDBRANCH  14  15
ENDBRANCH   1  14
TORSDOF 8
ENDMDL
MODEL 4
REMARK VINA RESULT:      -7.2      0.560      1.134
REMARK  Name = 
REMARK  10 active torsions:
REMARK  status: ('A' for Active; 'I' for Inactive)
REMARK    1  A    between atoms: C_1  and  O_2
REMARK    2  A    between atoms: O_2  and  C_3
REMARK    3  A    between atoms: C_6  and  S_7
REMARK    4  A    between atoms: S_7  and  N_10
REMARK    5  A    between atoms: N_10  and  C_11
REMARK    6  A    between atoms: N_10  and  C_12
REMARK    7  A    between atoms: C_12  and  C_13
REMARK    8  A    between atoms: N_15  and  C_16
REMARK    9  A    between atoms: C_16  and  C_17
REMARK   10  A    between atoms: C_17  and  C_18
REMARK                            x       y       z     vdW  Elec       q    Type
REMARK                         _______ _______ _______ _____ _____    ______ ____
ROOT
ATOM      1  N   UNL     1       2.617   3.841  19.367  0.00  0.00    +0.000 NA
ATOM      2  C   UNL     1       1.626   2.844  19.857  0.00  0.00    +0.000 C 
ENDROOT
BRANCH   1   3
ATOM      3  S   UNL     1       4.093   3.128  18.818  0.00  0.00    +0.000 S 
ATOM      4  O   UNL     1       3.761   2.263  17.706  0.00  0.00    +0.000 OA
ATOM      5  O   UNL     1       4.793   2.623  19.978  0.00  0.00    +0.000 OA
BRANCH   3   9
ATOM      6  C   UNL     1       6.673   6.515  17.152  0.00  0.00    +0.000 A 
ATOM      7  C   UNL     1       7.015   5.887  18.354  0.00  0.00    +0.000 A 
ATOM      8  C   UNL     1       6.219   4.863  18.875  0.00  0.00    +0.000 A 
ATOM      9  C   UNL     1       5.049   4.494  18.202  0.00  0.00    +0.000 A 
ATOM     10  C   UNL     1       4.689   5.128  17.012  0.00  0.00    +0.000 A 
ATOM     11  C   UNL     1       5.507   6.137  16.485  0.00  0.00    +0.000 A 
BRANCH   6  13
ATOM     12  C   UNL     1       8.043   8.345  17.771  0.00  0.00    +0.000 C 
ATOM     13  O   UNL     1       7.529   7.504  16.744  0.00  0.00    +0.000 OA
ENDBRANCH   6  13
ENDBRANCH   3   9
ENDBRANCH   1   3
BRANCH   1  14
ATOM     14  C   UNL     1       2.907   4.887  20.403  0.00  0.00    +0.000 C 
BRANCH  14  15
ATOM     15  C   UNL     1       2.326   6.259  20.104  0.00  0.00    +0.000 C 
ATOM     16  O   UNL     1       2.547   6.841  19.044  0.00  0.00    +0.000 OA
ATOM     17  N   UNL     1       1.536   6.801  21.100  0.00  0.00    +0.000 N 
ATOM     18  H   UNL     1       1.468   6.318  21.989  0.00  0.00    +0.000 HD
BRANCH  17  19
ATOM     19  C   UNL     1       0.932   8.108  20.914  0.00  0.00    +0.000 C 
BRANCH  19  20
ATOM     20  C   UNL     1       1.329   9.131  21.982  0.00  0.00    +0.000 C 
BRANCH  20  21
ATOM     21  C   UNL     1       0.309  10.244  22.142  0.00  0.00    +0.000 C 
ATOM     22  C   UNL     1      -0.675  10.179  23.058  0.00  0.00    +0.000 C 
ATOM     23  C   UNL     1      -1.724  11.239  23.237  0.00  0.00    +0.000 C 
ATOM     24  C   UNL     1      -1.782  12.231  22.076  0.00  0.00    +0.000 C 
ATOM     25  C   UNL     1      -0.380  12.653  21.654  0.00  0.00    +0.000 C 
ATOM     26  C   UNL     1       0.457  11.443  21.230  0.00  0.00    +0.000 C 
ENDBRANCH  20  21
ENDBRANCH  19  20
ENDBRANCH  17  19
ENDBRANCH  14  15
ENDBRANCH   1  14
TORSDOF 8
ENDMDL
MODEL 5
REMARK VINA RESULT:      -7.1      1.334      2.108
REMARK  Name = 
REMARK  10 active torsions:
REMARK  status: ('A' for Active; 'I' for Inactive)
REMARK    1  A    between atoms: C_1  and  O_2
REMARK    2  A    between atoms: O_2  and  C_3
REMARK    3  A    between atoms: C_6  and  S_7
REMARK    4  A    between atoms: S_7  and  N_10
REMARK    5  A    between atoms: N_10  and  C_11
REMARK    6  A    between atoms: N_10  and  C_12
REMARK    7  A    between atoms: C_12  and  C_13
REMARK    8  A    between atoms: N_15  and  C_16
REMARK    9  A    between atoms: C_16  and  C_17
REMARK   10  A    between atoms: C_17  and  C_18
REMARK                            x       y       z     vdW  Elec       q    Type
REMARK                         _______ _______ _______ _____ _____    ______ ____
ROOT
ATOM      1  N   UNL     1       2.806   4.369  18.778  0.00  0.00    +0.000 NA
ATOM      2  C   UNL     1       1.457   3.803  19.054  0.00  0.00    +0.000 C 
ENDROOT
BRANCH   1   3
ATOM      3  S   UNL     1       4.039   3.166  18.644  0.00  0.00    +0.000 S 
ATOM      4  O   UNL     1       3.434   2.001  18.034  0.00  0.00    +0.000 OA
ATOM      5  O   UNL     1       4.709   3.081  19.922  0.00  0.00    +0.000 OA
BRANCH   3   9
ATOM      6  C   UNL     1       6.943   5.089  15.680  0.00  0.00    +0.000 A 
ATOM      7  C   UNL     1       5.836   4.365  15.223  0.00  0.00    +0.000 A 
ATOM      8  C   UNL     1       4.957   3.762  16.126  0.00  0.00    +0.000 A 
ATOM      9  C   UNL     1       5.213   3.853  17.499  0.00  0.00    +0.000 A 
ATOM     10  C   UNL     1       6.325   4.556  17.964  0.00  0.00    +0.000 A 
ATOM     11  C   UNL     1       7.188   5.179  17.051  0.00  0.00    +0.000 A 
BRANCH   6  13
ATOM     12  C   UNL     1       7.575   5.081  13.398  0.00  0.00    +0.000 C 
ATOM     13  O   UNL     1       7.731   5.632  14.701  0.00  0.00    +0.000 OA
ENDBRANCH   6  13
ENDBRANCH   3   9
ENDBRANCH   1   3
BRANCH   1  14
ATOM     14  C   UNL     1       3.196   5.392  19.804  0.00  0.00    +0.000 C 
BRANCH  14  15
ATOM     15  C   UNL     1       2.497   6.734  19.665  0.00  0.00    +0.000 C 
ATOM     16  O   UNL     1       2.468   7.343  18.597  0.00  0.00    +0.000 OA
ATOM     17  N   UNL     1       1.900   7.216  20.813  0.00  0.00    +0.000 N 
ATOM     18  H   UNL     1       2.038   6.717  21.685  0.00  0.00    +0.000 HD
BRANCH  17  19
ATOM     19  C   UNL     1       1.204   8.491  20.788  0.00  0.00    +0.000 C 
BRANCH  19  20
ATOM     20  C   UNL     1       0.447   8.808  22.080  0.00  0.00    +0.000 C 
BRANCH  20  21
ATOM     21  C   UNL     1      -0.345  10.101  21.998  0.00  0.00    +0.000 C 
ATOM     22  C   UNL     1      -0.939  10.640  23.079  0.00  0.00    +0.000 C 
ATOM     23  C   UNL     1      -1.756  11.900  23.045  0.00  0.00    +0.000 C 
ATOM     24  C   UNL     1      -2.133  12.335  21.630  0.00  0.00    +0.000 C 
ATOM     25  C   UNL     1      -0.942  12.210  20.688  0.00  0.00    +0.000 C 
ATOM     26  C   UNL     1      -0.424  10.770  20.642  0.00  0.00    +0.000 C 
ENDBRANCH  20  21
ENDBRANCH  19  20
ENDBRANCH  17  19
ENDBRANCH  14  15
ENDBRANCH   1  14
TORSDOF 8
ENDMDL
MODEL 6
REMARK VINA RESULT:      -7.1      1.562      2.040
REMARK  Name = 
REMARK  10 active torsions:
REMARK  status: ('A' for Active; 'I' for Inactive)
REMARK    1  A    between atoms: C_1  and  O_2
REMARK    2  A    between atoms: O_2  and  C_3
REMARK    3  A    between atoms: C_6  and  S_7
REMARK    4  A    between atoms: S_7  and  N_10
REMARK    5  A    between atoms: N_10  and  C_11
REMARK    6  A    between atoms: N_10  and  C_12
REMARK    7  A    between atoms: C_12  and  C_13
REMARK    8  A    between atoms: N_15  and  C_16
REMARK    9  A    between atoms: C_16  and  C_17
REMARK   10  A    between atoms: C_17  and  C_18
REMARK                            x       y       z     vdW  Elec       q    Type
REMARK                         _______ _______ _______ _____ _____    ______ ____
ROOT
ATOM      1  N   UNL     1       3.020   4.674  18.371  0.00  0.00    +0.000 NA
ATOM      2  C   UNL     1       1.639   4.133  18.243  0.00  0.00    +0.000 C 
ENDROOT
BRANCH   1   3
ATOM      3  S   UNL     1       4.241   3.451  18.335  0.00  0.00    +0.000 S 
ATOM      4  O   UNL     1       3.617   2.239  17.850  0.00  0.00    +0.000 OA
ATOM      5  O   UNL     1       4.931   3.484  19.605  0.00  0.00    +0.000 OA
BRANCH   3   9
ATOM      6  C   UNL     1       7.102   5.040  15.141  0.00  0.00    +0.000 A 
ATOM      7  C   UNL     1       6.046   4.192  14.791  0.00  0.00    +0.000 A 
ATOM      8  C   UNL     1       5.180   3.691  15.767  0.00  0.00    +0.000 A 
ATOM      9  C   UNL     1       5.401   4.013  17.111  0.00  0.00    +0.000 A 
ATOM     10  C   UNL     1       6.464   4.841  17.472  0.00  0.00    +0.000 A 
ATOM     11  C   UNL     1       7.312   5.359  16.483  0.00  0.00    +0.000 A 
BRANCH   6  13
ATOM     12  C   UNL     1       7.509   4.990  12.808  0.00  0.00    +0.000 C 
ATOM     13  O   UNL     1       7.882   5.464  14.098  0.00  0.00    +0.000 OA
ENDBRANCH   6  13
ENDBRANCH   3   9
ENDBRANCH   1   3
BRANCH   1  14
ATOM     14  C   UNL     1       3.171   5.515  19.605  0.00  0.00    +0.000 C 
BRANCH  14  15
ATOM     15  C   UNL     1       2.496   6.874  19.538  0.00  0.00    +0.000 C 
ATOM     16  O   UNL     1       2.521   7.562  18.519  0.00  0.00    +0.000 OA
ATOM     17  N   UNL     1       1.855   7.278  20.694  0.00  0.00    +0.000 N 
ATOM     18  H   UNL     1       1.949   6.712  21.530  0.00  0.00    +0.000 HD
BRANCH  17  19
ATOM     19  C   UNL     1       1.177   8.561  20.735  0.00  0.00    +0.000 C 
BRANCH  19  20
ATOM     20  C   UNL     1       0.622   8.923  22.116  0.00  0.00    +0.000 C 
BRANCH  20  21
ATOM     21  C   UNL     1      -0.002  10.307  22.156  0.00  0.00    +0.000 C 
ATOM     22  C   UNL     1       0.358  11.273  21.291  0.00  0.00    +0.000 C 
ATOM     23  C   UNL     1      -0.208  12.665  21.307  0.00  0.00    +0.000 C 
ATOM     24  C   UNL     1      -0.973  12.989  22.590  0.00  0.00    +0.000 C 
ATOM     25  C   UNL     1      -1.874  11.828  22.991  0.00  0.00    +0.000 C 
ATOM     26  C   UNL     1      -1.062  10.548  23.209  0.00  0.00    +0.000 C 
ENDBRANCH  20  21
ENDBRANCH  19  20
ENDBRANCH  17  19
ENDBRANCH  14  15
ENDBRANCH   1  14
TORSDOF 8
ENDMDL
MODEL 7
REMARK VINA RESULT:      -6.9      1.309      1.777
REMARK  Name = 
REMARK  10 active torsions:
REMARK  status: ('A' for Active; 'I' for Inactive)
REMARK    1  A    between atoms: C_1  and  O_2
REMARK    2  A    between atoms: O_2  and  C_3
REMARK    3  A    between atoms: C_6  and  S_7
REMARK    4  A    between atoms: S_7  and  N_10
REMARK    5  A    between atoms: N_10  and  C_11
REMARK    6  A    between atoms: N_10  and  C_12
REMARK    7  A    between atoms: C_12  and  C_13
REMARK    8  A    between atoms: N_15  and  C_16
REMARK    9  A    between atoms: C_16  and  C_17
REMARK   10  A    between atoms: C_17  and  C_18
REMARK                            x       y       z     vdW  Elec       q    Type
REMARK                         _______ _______ _______ _____ _____    ______ ____
ROOT
ATOM      1  N   UNL     1       2.211   3.922  19.347  0.00  0.00    +0.000 NA
ATOM      2  C   UNL     1       0.881   3.302  19.598  0.00  0.00    +0.000 C 
ENDROOT
BRANCH   1   3
ATOM      3  S   UNL     1       3.484   2.765  19.169  0.00  0.00    +0.000 S 
ATOM      4  O   UNL     1       2.935   1.634  18.451  0.00  0.00    +0.000 OA
ATOM      5  O   UNL     1       4.110   2.602  20.461  0.00  0.00    +0.000 OA
BRANCH   3   9
ATOM      6  C   UNL     1       6.427   4.980  16.459  0.00  0.00    +0.000 A 
ATOM      7  C   UNL     1       5.398   4.208  15.910  0.00  0.00    +0.000 A 
ATOM      8  C   UNL     1       4.507   3.516  16.735  0.00  0.00    +0.000 A 
ATOM      9  C   UNL     1       4.675   3.569  18.124  0.00  0.00    +0.000 A 
ATOM     10  C   UNL     1       5.711   4.320  18.681  0.00  0.00    +0.000 A 
ATOM     11  C   UNL     1       6.584   5.031  17.845  0.00  0.00    +0.000 A 
BRANCH   6  13
ATOM     12  C   UNL     1       7.190   5.103  14.221  0.00  0.00    +0.000 C 
ATOM     13  O   UNL     1       7.235   5.610  15.550  0.00  0.00    +0.000 OA
ENDBRANCH   6  13
ENDBRANCH   3   9
ENDBRANCH   1   3
BRANCH   1  14
ATOM     14  C   UNL     1       2.566   4.917  20.413  0.00  0.00    +0.000 C 
BRANCH  14  15
ATOM     15  C   UNL     1       2.244   6.361  20.071  0.00  0.00    +0.000 C 
ATOM     16  O   UNL     1       2.514   6.844  18.972  0.00  0.00    +0.000 OA
ATOM     17  N   UNL     1       1.630   7.088  21.072  0.00  0.00    +0.000 N 
ATOM     18  H   UNL     1       1.519   6.665  21.987  0.00  0.00    +0.000 HD
BRANCH  17  19
ATOM     19  C   UNL     1       1.278   8.478  20.847  0.00  0.00    +0.000 C 
BRANCH  19  20
ATOM     20  C   UNL     1       0.900   9.235  22.123  0.00  0.00    +0.000 C 
BRANCH  20  21
ATOM     21  C   UNL     1      -0.121  10.331  21.879  0.00  0.00    +0.000 C 
ATOM     22  C   UNL     1      -0.385  10.793  20.642  0.00  0.00    +0.000 C 
ATOM     23  C   UNL     1      -1.365  11.894  20.350  0.00  0.00    +0.000 C 
ATOM     24  C   UNL     1      -1.786  12.671  21.597  0.00  0.00    +0.000 C 
ATOM     25  C   UNL     1      -2.074  11.724  22.755  0.00  0.00    +0.000 C 
ATOM     26  C   UNL     1      -0.845  10.875  23.093  0.00  0.00    +0.000 C 
ENDBRANCH  20  21
ENDBRANCH  19  20
ENDBRANCH  17  19
ENDBRANCH  14  15
ENDBRANCH   1  14
TORSDOF 8
ENDMDL
MODEL 8
REMARK VINA RESULT:      -6.9      1.730      2.265
REMARK  Name = 
REMARK  10 active torsions:
REMARK  status: ('A' for Active; 'I' for Inactive)
REMARK    1  A    between atoms: C_1  and  O_2
REMARK    2  A    between atoms: O_2  and  C_3
REMARK    3  A    between atoms: C_6  and  S_7
REMARK    4  A    between atoms: S_7  and  N_10
REMARK    5  A    between atoms: N_10  and  C_11
REMARK    6  A    between atoms: N_10  and  C_12
REMARK    7  A    between atoms: C_12  and  C_13
REMARK    8  A    between atoms: N_15  and  C_16
REMARK    9  A    between atoms: C_16  and  C_17
REMARK   10  A    between atoms: C_17  and  C_18
REMARK                            x       y       z     vdW  Elec       q    Type
REMARK                         _______ _______ _______ _____ _____    ______ ____
ROOT
ATOM      1  N   UNL     1       2.770   4.385  18.577  0.00  0.00    +0.000 NA
ATOM      2  C   UNL     1       1.524   3.739  19.071  0.00  0.00    +0.000 C 
ENDROOT
BRANCH   1   3
ATOM      3  S   UNL     1       4.102   3.292  18.443  0.00  0.00    +0.000 S 
ATOM      4  O   UNL     1       3.579   2.044  17.929  0.00  0.00    +0.000 OA
ATOM      5  O   UNL     1       4.836   3.342  19.688  0.00  0.00    +0.000 OA
BRANCH   3   9
ATOM      6  C   UNL     1       6.904   4.986  15.251  0.00  0.00    +0.000 A 
ATOM      7  C   UNL     1       7.262   5.023  16.603  0.00  0.00    +0.000 A 
ATOM      8  C   UNL     1       6.400   4.522  17.583  0.00  0.00    +0.000 A 
ATOM      9  C   UNL     1       5.152   4.014  17.204  0.00  0.00    +0.000 A 
ATOM     10  C   UNL     1       4.777   3.991  15.860  0.00  0.00    +0.000 A 
ATOM     11  C   UNL     1       5.659   4.473  14.882  0.00  0.00    +0.000 A 
BRANCH   6  13
ATOM     12  C   UNL     1       7.698   5.116  13.024  0.00  0.00    +0.000 C 
ATOM     13  O   UNL     1       7.829   5.507  14.386  0.00  0.00    +0.000 OA
ENDBRANCH   6  13
ENDBRANCH   3   9
ENDBRANCH   1   3
BRANCH   1  14
ATOM     14  C   UNL     1       3.155   5.562  19.425  0.00  0.00    +0.000 C 
BRANCH  14  15
ATOM     15  C   UNL     1       2.973   6.916  18.759  0.00  0.00    +0.000 C 
ATOM     16  O   UNL     1       3.616   7.241  17.762  0.00  0.00    +0.000 OA
ATOM     17  N   UNL     1       2.039   7.747  19.346  0.00  0.00    +0.000 N 
ATOM     18  H   UNL     1       1.610   7.463  20.220  0.00  0.00    +0.000 HD
BRANCH  17  19
ATOM     19  C   UNL     1       1.787   9.063  18.787  0.00  0.00    +0.000 C 
BRANCH  19  20
ATOM     20  C   UNL     1       0.354   9.560  18.996  0.00  0.00    +0.000 C 
BRANCH  20  21
ATOM     21  C   UNL     1       0.055   9.906  20.444  0.00  0.00    +0.000 C 
ATOM     22  C   UNL     1       0.528   9.164  21.463  0.00  0.00    +0.000 C 
ATOM     23  C   UNL     1       0.238   9.446  22.910  0.00  0.00    +0.000 C 
ATOM     24  C   UNL     1      -0.906  10.439  23.112  0.00  0.00    +0.000 C 
ATOM     25  C   UNL     1      -0.783  11.612  22.148  0.00  0.00    +0.000 C 
ATOM     26  C   UNL     1      -0.792  11.135  20.693  0.00  0.00    +0.000 C 
ENDBRANCH  20  21
ENDBRANCH  19  20
ENDBRANCH  17  19
ENDBRANCH  14  15
ENDBRANCH   1  14
TORSDOF 8
ENDMDL
MODEL 9
REMARK VINA RESULT:      -6.9      4.236      7.976
REMARK  Name = 
REMARK  10 active torsions:
REMARK  status: ('A' for Active; 'I' for Inactive)
REMARK    1  A    between atoms: C_1  and  O_2
REMARK    2  A    between atoms: O_2  and  C_3
REMARK    3  A    between atoms: C_6  and  S_7
REMARK    4  A    between atoms: S_7  and  N_10
REMARK    5  A    between atoms: N_10  and  C_11
REMARK    6  A    between atoms: N_10  and  C_12
REMARK    7  A    between atoms: C_12  and  C_13
REMARK    8  A    between atoms: N_15  and  C_16
REMARK    9  A    between atoms: C_16  and  C_17
REMARK   10  A    between atoms: C_17  and  C_18
REMARK                            x       y       z     vdW  Elec       q    Type
REMARK                         _______ _______ _______ _____ _____    ______ ____
ROOT
ATOM      1  N   UNL     1       6.437   5.688  17.421  0.00  0.00    +0.000 NA
ATOM      2  C   UNL     1       7.241   4.437  17.492  0.00  0.00    +0.000 C 
ENDROOT
BRANCH   1   3
ATOM      3  S   UNL     1       4.968   5.508  16.526  0.00  0.00    +0.000 S 
ATOM      4  O   UNL     1       5.131   4.356  15.666  0.00  0.00    +0.000 OA
ATOM      5  O   UNL     1       4.623   6.804  15.987  0.00  0.00    +0.000 OA
BRANCH   3   9
ATOM      6  C   UNL     1       1.954   4.467  19.803  0.00  0.00    +0.000 A 
ATOM      7  C   UNL     1       2.460   3.472  18.960  0.00  0.00    +0.000 A 
ATOM      8  C   UNL     1       3.368   3.789  17.947  0.00  0.00    +0.000 A 
ATOM      9  C   UNL     1       3.741   5.124  17.753  0.00  0.00    +0.000 A 
ATOM     10  C   UNL     1       3.227   6.127  18.576  0.00  0.00    +0.000 A 
ATOM     11  C   UNL     1       2.335   5.795  19.606  0.00  0.00    +0.000 A 
BRANCH   6  13
ATOM     12  C   UNL     1       1.335   2.749  21.312  0.00  0.00    +0.000 C 
ATOM     13  O   UNL     1       1.071   4.033  20.756  0.00  0.00    +0.000 OA
ENDBRANCH   6  13
ENDBRANCH   3   9
ENDBRANCH   1   3
BRANCH   1  14
ATOM     14  C   UNL     1       7.239   6.829  16.868  0.00  0.00    +0.000 C 
BRANCH  14  15
ATOM     15  C   UNL     1       7.958   7.668  17.911  0.00  0.00    +0.000 C 
ATOM     16  O   UNL     1       8.433   7.170  18.930  0.00  0.00    +0.000 OA
ATOM     17  N   UNL     1       8.043   9.019  17.634  0.00  0.00    +0.000 N 
ATOM     18  H   UNL     1       7.551   9.386  16.826  0.00  0.00    +0.000 HD
BRANCH  17  19
ATOM     19  C   UNL     1       8.712   9.909  18.565  0.00  0.00    +0.000 C 
BRANCH  19  20
ATOM     20  C   UNL     1       8.809  11.357  18.077  0.00  0.00    +0.000 C 
BRANCH  20  21
ATOM     21  C   UNL     1       9.862  12.161  18.818  0.00  0.00    +0.000 C 
ATOM     22  C   UNL     1       9.545  12.964  19.851  0.00  0.00    +0.000 C 
ATOM     23  C   UNL     1      10.543  13.800  20.600  0.00  0.00    +0.000 C 
ATOM     24  C   UNL     1      11.886  13.921  19.881  0.00  0.00    +0.000 C 
ATOM     25  C   UNL     1      12.329  12.572  19.330  0.00  0.00    +0.000 C 
ATOM     26  C   UNL     1      11.294  12.007  18.353  0.00  0.00    +0.000 C 
ENDBRANCH  20  21
ENDBRANCH  19  20
ENDBRANCH  17  19
ENDBRANCH  14  15
ENDBRANCH   1  14
TORSDOF 8
ENDMDL
