MODEL 1
REMARK VINA RESULT:      -6.6      0.000      0.000
REMARK  Name = 
REMARK  2 active torsions:
REMARK  status: ('A' for Active; 'I' for Inactive)
REMARK    1  A    between atoms: C_1  and  C_2
REMARK    2  A    between atoms: C_20  and  C_21
REMARK                            x       y       z     vdW  Elec       q    Type
REMARK                         _______ _______ _______ _____ _____    ______ ____
ROOT
ATOM      1  C   UNL     1      -1.909  10.200  18.245  0.00  0.00    +0.000 C 
ATOM      2  C   UNL     1      -1.431  11.359  19.092  0.00  0.00    +0.000 C 
ATOM      3  O   UNL     1      -2.198  12.297  19.310  0.00  0.00    +0.000 OA
ATOM      4  N   UNL     1      -0.103  11.332  19.553  0.00  0.00    +0.000 N 
ATOM      5  C   UNL     1       0.720  10.179  19.472  0.00  0.00    +0.000 A 
ATOM      6  C   UNL     1       1.096   9.717  18.200  0.00  0.00    +0.000 A 
ATOM      7  C   UNL     1       1.749   8.493  18.041  0.00  0.00    +0.000 A 
ATOM      8  C   UNL     1       2.100   7.745  19.158  0.00  0.00    +0.000 A 
ATOM      9  C   UNL     1       1.774   8.206  20.428  0.00  0.00    +0.000 A 
ATOM     10  C   UNL     1       1.031   9.408  20.597  0.00  0.00    +0.000 A 
ATOM     11  S   UNL     1       0.405   9.620  22.250  0.00  0.00    +0.000 S 
ATOM     12  C   UNL     1      -0.585  11.089  22.255  0.00  0.00    +0.000 A 
ATOM     13  C   UNL     1      -1.804  11.070  22.938  0.00  0.00    +0.000 A 
ATOM     14  C   UNL     1      -2.403  12.277  23.322  0.00  0.00    +0.000 A 
ATOM     15  C   UNL     1      -1.641  13.444  23.237  0.00  0.00    +0.000 A 
ATOM     16 CL   UNL     1      -2.253  14.913  23.887  0.00  0.00    +0.000 Cl
ATOM     17  C   UNL     1      -0.435  13.452  22.551  0.00  0.00    +0.000 A 
ATOM     18  C   UNL     1      -0.086  12.318  21.817  0.00  0.00    +0.000 A 
ATOM     19  N   UNL     1       0.303  12.440  20.425  0.00  0.00    +0.000 N 
ATOM     20  C   UNL     1       0.466  13.716  19.830  0.00  0.00    +0.000 C 
ATOM     21  C   UNL     1       0.347  13.830  18.328  0.00  0.00    +0.000 C 
ATOM     22  O   UNL     1       0.678  14.770  20.440  0.00  0.00    +0.000 OA
ENDROOT
TORSDOF 0
ENDMDL
MODEL 2
REMARK VINA RESULT:      -6.3      2.383      3.989
REMARK  Name = 
REMARK  2 active torsions:
REMARK  status: ('A' for Active; 'I' for Inactive)
REMARK    1  A    between atoms: C_1  and  C_2
REMARK    2  A    between atoms: C_20  and  C_21
REMARK                            x       y       z     vdW  Elec       q    Type
REMARK                         _______ _______ _______ _____ _____    ______ ____
ROOT
ATOM      1  C   UNL     1      -0.241  13.420  18.206  0.00  0.00    +0.000 C 
ATOM      2  C   UNL     1      -0.504  13.063  19.653  0.00  0.00    +0.000 C 
ATOM      3  O   UNL     1       0.064  13.701  20.540  0.00  0.00    +0.000 OA
ATOM      4  N   UNL     1      -1.356  11.977  19.918  0.00  0.00    +0.000 N 
ATOM      5  C   UNL     1      -2.159  11.364  18.921  0.00  0.00    +0.000 A 
ATOM      6  C   UNL     1      -1.517  10.676  17.879  0.00  0.00    +0.000 A 
ATOM      7  C   UNL     1      -2.233  10.208  16.774  0.00  0.00    +0.000 A 
ATOM      8  C   UNL     1      -3.614  10.357  16.730  0.00  0.00    +0.000 A 
ATOM      9  C   UNL     1      -4.273  10.999  17.774  0.00  0.00    +0.000 A 
ATOM     10  C   UNL     1      -3.543  11.558  18.860  0.00  0.00    +0.000 A 
ATOM     11  S   UNL     1      -4.521  12.641  19.879  0.00  0.00    +0.000 S 
ATOM     12  C   UNL     1      -3.441  13.335  21.100  0.00  0.00    +0.000 A 
ATOM     13  C   UNL     1      -3.555  14.696  21.395  0.00  0.00    +0.000 A 
ATOM     14  C   UNL     1      -3.045  15.189  22.604  0.00  0.00    +0.000 A 
ATOM     15  C   UNL     1      -2.669  14.267  23.583  0.00  0.00    +0.000 A 
ATOM     16 CL   UNL     1      -2.234  14.816  25.152  0.00  0.00    +0.000 Cl
ATOM     17  C   UNL     1      -2.553  12.918  23.276  0.00  0.00    +0.000 A 
ATOM     18  C   UNL     1      -2.661  12.534  21.938  0.00  0.00    +0.000 A 
ATOM     19  N   UNL     1      -1.639  11.704  21.331  0.00  0.00    +0.000 N 
ATOM     20  C   UNL     1      -0.591  11.159  22.116  0.00  0.00    +0.000 C 
ATOM     21  C   UNL     1       0.695  10.768  21.427  0.00  0.00    +0.000 C 
ATOM     22  O   UNL     1      -0.625  10.992  23.340  0.00  0.00    +0.000 OA
ENDROOT
TORSDOF 0
ENDMDL
MODEL 3
REMARK VINA RESULT:      -6.1      1.221      1.506
REMARK  Name = 
REMARK  2 active torsions:
REMARK  status: ('A' for Active; 'I' for Inactive)
REMARK    1  A    between atoms: C_1  and  C_2
REMARK    2  A    between atoms: C_20  and  C_21
REMARK                            x       y       z     vdW  Elec       q    Type
REMARK                         _______ _______ _______ _____ _____    ______ ____
ROOT
ATOM      1  C   UNL     1      -2.191  11.559  18.765  0.00  0.00    +0.000 C 
ATOM      2  C   UNL     1      -1.771  12.562  19.817  0.00  0.00    +0.000 C 
ATOM      3  O   UNL     1      -2.471  13.556  20.010  0.00  0.00    +0.000 OA
ATOM      4  N   UNL     1      -0.563  12.332  20.499  0.00  0.00    +0.000 N 
ATOM      5  C   UNL     1       0.145  11.104  20.424  0.00  0.00    +0.000 A 
ATOM      6  C   UNL     1       0.708  10.734  19.193  0.00  0.00    +0.000 A 
ATOM      7  C   UNL     1       1.258   9.464  19.003  0.00  0.00    +0.000 A 
ATOM      8  C   UNL     1       1.318   8.570  20.064  0.00  0.00    +0.000 A 
ATOM      9  C   UNL     1       0.804   8.934  21.304  0.00  0.00    +0.000 A 
ATOM     10  C   UNL     1       0.162  10.191  21.484  0.00  0.00    +0.000 A 
ATOM     11  S   UNL     1      -0.741  10.305  23.014  0.00  0.00    +0.000 S 
ATOM     12  C   UNL     1      -1.568  11.872  23.023  0.00  0.00    +0.000 A 
ATOM     13  C   UNL     1      -2.889  11.927  23.472  0.00  0.00    +0.000 A 
ATOM     14  C   UNL     1      -3.431  13.151  23.889  0.00  0.00    +0.000 A 
ATOM     15  C   UNL     1      -2.558  14.223  24.083  0.00  0.00    +0.000 A 
ATOM     16 CL   UNL     1      -3.136  15.679  24.789  0.00  0.00    +0.000 Cl
ATOM     17  C   UNL     1      -1.248  14.159  23.627  0.00  0.00    +0.000 A 
ATOM     18  C   UNL     1      -0.878  13.072  22.833  0.00  0.00    +0.000 A 
ATOM     19  N   UNL     1      -0.224  13.290  21.557  0.00  0.00    +0.000 N 
ATOM     20  C   UNL     1       0.171  14.592  21.160  0.00  0.00    +0.000 C 
ATOM     21  C   UNL     1       0.349  14.872  19.686  0.00  0.00    +0.000 C 
ATOM     22  O   UNL     1       0.365  15.546  21.922  0.00  0.00    +0.000 OA
ENDROOT
TORSDOF 0
ENDMDL
MODEL 4
REMARK VINA RESULT:      -6.0      2.307      3.267
REMARK  Name = 
REMARK  2 active torsions:
REMARK  status: ('A' for Active; 'I' for Inactive)
REMARK    1  A    between atoms: C_1  and  C_2
REMARK    2  A    between atoms: C_20  and  C_21
REMARK                            x       y       z     vdW  Elec       q    Type
REMARK                         _______ _______ _______ _____ _____    ______ ____
ROOT
ATOM      1  C   UNL     1      -1.580  10.924  18.506  0.00  0.00    +0.000 C 
ATOM      2  C   UNL     1      -0.661  12.098  18.761  0.00  0.00    +0.000 C 
ATOM      3  O   UNL     1      -0.648  13.033  17.960  0.00  0.00    +0.000 OA
ATOM      4  N   UNL     1       0.179  12.044  19.887  0.00  0.00    +0.000 N 
ATOM      5  C   UNL     1       0.035  11.072  20.912  0.00  0.00    +0.000 A 
ATOM      6  C   UNL     1       0.284   9.727  20.594  0.00  0.00    +0.000 A 
ATOM      7  C   UNL     1      -0.011   8.705  21.499  0.00  0.00    +0.000 A 
ATOM      8  C   UNL     1      -0.494   9.018  22.763  0.00  0.00    +0.000 A 
ATOM      9  C   UNL     1      -0.707  10.347  23.112  0.00  0.00    +0.000 A 
ATOM     10  C   UNL     1      -0.494  11.390  22.167  0.00  0.00    +0.000 A 
ATOM     11  S   UNL     1      -1.171  12.953  22.683  0.00  0.00    +0.000 S 
ATOM     12  C   UNL     1      -0.924  14.099  21.354  0.00  0.00    +0.000 A 
ATOM     13  C   UNL     1      -1.967  14.965  21.017  0.00  0.00    +0.000 A 
ATOM     14  C   UNL     1      -1.693  16.133  20.292  0.00  0.00    +0.000 A 
ATOM     15  C   UNL     1      -0.359  16.520  20.151  0.00  0.00    +0.000 A 
ATOM     16 CL   UNL     1       0.019  18.045  19.454  0.00  0.00    +0.000 Cl
ATOM     17  C   UNL     1       0.669  15.649  20.484  0.00  0.00    +0.000 A 
ATOM     18  C   UNL     1       0.339  14.331  20.803  0.00  0.00    +0.000 A 
ATOM     19  N   UNL     1       1.006  13.229  20.137  0.00  0.00    +0.000 N 
ATOM     20  C   UNL     1       2.092  13.467  19.257  0.00  0.00    +0.000 C 
ATOM     21  C   UNL     1       2.411  12.426  18.210  0.00  0.00    +0.000 C 
ATOM     22  O   UNL     1       2.801  14.480  19.252  0.00  0.00    +0.000 OA
ENDROOT
TORSDOF 0
ENDMDL
MODEL 5
REMARK VINA RESULT:      -6.0      3.319      4.716
REMARK  Name = 
REMARK  2 active torsions:
REMARK  status: ('A' for Active; 'I' for Inactive)
REMARK    1  A    between atoms: C_1  and  C_2
REMARK    2  A    between atoms: C_20  and  C_21
REMARK                            x       y       z     vdW  Elec       q    Type
REMARK                         _______ _______ _______ _____ _____    ______ ____
ROOT
ATOM      1  C   UNL     1      -0.795  13.990  19.232  0.00  0.00    +0.000 C 
ATOM      2  C   UNL     1      -1.710  13.710  20.404  0.00  0.00    +0.000 C 
ATOM      3  O   UNL     1      -1.819  14.554  21.294  0.00  0.00    +0.000 OA
ATOM      4  N   UNL     1      -2.361  12.464  20.446  0.00  0.00    +0.000 N 
ATOM      5  C   UNL     1      -2.393  11.572  19.343  0.00  0.00    +0.000 A 
ATOM      6  C   UNL     1      -1.188  10.987  18.923  0.00  0.00    +0.000 A 
ATOM      7  C   UNL     1      -1.118  10.247  17.741  0.00  0.00    +0.000 A 
ATOM      8  C   UNL     1      -2.269  10.019  16.998  0.00  0.00    +0.000 A 
ATOM      9  C   UNL     1      -3.482  10.554  17.420  0.00  0.00    +0.000 A 
ATOM     10  C   UNL     1      -3.547  11.384  18.575  0.00  0.00    +0.000 A 
ATOM     11  S   UNL     1      -5.092  12.256  18.726  0.00  0.00    +0.000 S 
ATOM     12  C   UNL     1      -4.961  13.320  20.136  0.00  0.00    +0.000 A 
ATOM     13  C   UNL     1      -5.457  14.623  20.036  0.00  0.00    +0.000 A 
ATOM     14  C   UNL     1      -5.758  15.342  21.202  0.00  0.00    +0.000 A 
ATOM     15  C   UNL     1      -5.793  14.646  22.411  0.00  0.00    +0.000 A 
ATOM     16 CL   UNL     1      -6.356  15.431  23.833  0.00  0.00    +0.000 Cl
ATOM     17  C   UNL     1      -5.291  13.355  22.499  0.00  0.00    +0.000 A 
ATOM     18  C   UNL     1      -4.609  12.835  21.398  0.00  0.00    +0.000 A 
ATOM     19  N   UNL     1      -3.290  12.256  21.562  0.00  0.00    +0.000 N 
ATOM     20  C   UNL     1      -2.733  12.083  22.855  0.00  0.00    +0.000 C 
ATOM     21  C   UNL     1      -1.231  11.988  22.984  0.00  0.00    +0.000 C 
ATOM     22  O   UNL     1      -3.374  12.025  23.910  0.00  0.00    +0.000 OA
ENDROOT
TORSDOF 0
ENDMDL
MODEL 6
REMARK VINA RESULT:      -5.8      9.221     10.791
REMARK  Name = 
REMARK  2 active torsions:
REMARK  status: ('A' for Active; 'I' for Inactive)
REMARK    1  A    between atoms: C_1  and  C_2
REMARK    2  A    between atoms: C_20  and  C_21
REMARK                            x       y       z     vdW  Elec       q    Type
REMARK                         _______ _______ _______ _____ _____    ______ ____
ROOT
ATOM      1  C   UNL     1      10.059  15.621  22.920  0.00  0.00    +0.000 C 
ATOM      2  C   UNL     1       9.747  15.316  21.471  0.00  0.00    +0.000 C 
ATOM      3  O   UNL     1      10.435  15.832  20.589  0.00  0.00    +0.000 OA
ATOM      4  N   UNL     1       8.645  14.488  21.195  0.00  0.00    +0.000 N 
ATOM      5  C   UNL     1       7.972  13.740  22.196  0.00  0.00    +0.000 A 
ATOM      6  C   UNL     1       7.266  14.439  23.188  0.00  0.00    +0.000 A 
ATOM      7  C   UNL     1       6.736  13.778  24.299  0.00  0.00    +0.000 A 
ATOM      8  C   UNL     1       6.841  12.396  24.397  0.00  0.00    +0.000 A 
ATOM      9  C   UNL     1       7.499  11.681  23.402  0.00  0.00    +0.000 A 
ATOM     10  C   UNL     1       8.120  12.354  22.312  0.00  0.00    +0.000 A 
ATOM     11  S   UNL     1       9.209  11.307  21.370  0.00  0.00    +0.000 S 
ATOM     12  C   UNL     1       9.980  12.321  20.139  0.00  0.00    +0.000 A 
ATOM     13  C   UNL     1      11.347  12.156  19.899  0.00  0.00    +0.000 A 
ATOM     14  C   UNL     1      11.899  12.607  18.692  0.00  0.00    +0.000 A 
ATOM     15  C   UNL     1      11.025  12.975  17.667  0.00  0.00    +0.000 A 
ATOM     16 CL   UNL     1      11.645  13.336  16.105  0.00  0.00    +0.000 Cl
ATOM     17  C   UNL     1       9.671  13.142  17.919  0.00  0.00    +0.000 A 
ATOM     18  C   UNL     1       9.235  13.094  19.245  0.00  0.00    +0.000 A 
ATOM     19  N   UNL     1       8.416  14.162  19.783  0.00  0.00    +0.000 N 
ATOM     20  C   UNL     1       7.932  15.197  18.943  0.00  0.00    +0.000 C 
ATOM     21  C   UNL     1       7.557  16.518  19.571  0.00  0.00    +0.000 C 
ATOM     22  O   UNL     1       7.809  15.123  17.715  0.00  0.00    +0.000 OA
ENDROOT
TORSDOF 0
ENDMDL
MODEL 7
REMARK VINA RESULT:      -5.7      9.237     10.049
REMARK  Name = 
REMARK  2 active torsions:
REMARK  status: ('A' for Active; 'I' for Inactive)
REMARK    1  A    between atoms: C_1  and  C_2
REMARK    2  A    between atoms: C_20  and  C_21
REMARK                            x       y       z     vdW  Elec       q    Type
REMARK                         _______ _______ _______ _____ _____    ______ ____
ROOT
ATOM      1  C   UNL     1       7.490  14.072  17.876  0.00  0.00    +0.000 C 
ATOM      2  C   UNL     1       7.818  14.545  19.275  0.00  0.00    +0.000 C 
ATOM      3  O   UNL     1       6.898  14.849  20.036  0.00  0.00    +0.000 OA
ATOM      4  N   UNL     1       9.174  14.662  19.628  0.00  0.00    +0.000 N 
ATOM      5  C   UNL     1      10.227  14.136  18.835  0.00  0.00    +0.000 A 
ATOM      6  C   UNL     1      10.453  14.699  17.569  0.00  0.00    +0.000 A 
ATOM      7  C   UNL     1      11.347  14.116  16.669  0.00  0.00    +0.000 A 
ATOM      8  C   UNL     1      12.084  13.001  17.049  0.00  0.00    +0.000 A 
ATOM      9  C   UNL     1      11.905  12.454  18.315  0.00  0.00    +0.000 A 
ATOM     10  C   UNL     1      10.932  12.987  19.206  0.00  0.00    +0.000 A 
ATOM     11  S   UNL     1      10.606  11.930  20.602  0.00  0.00    +0.000 S 
ATOM     12  C   UNL     1       9.301  12.679  21.537  0.00  0.00    +0.000 A 
ATOM     13  C   UNL     1       8.281  11.862  22.032  0.00  0.00    +0.000 A 
ATOM     14  C   UNL     1       7.486  12.312  23.095  0.00  0.00    +0.000 A 
ATOM     15  C   UNL     1       7.901  13.450  23.789  0.00  0.00    +0.000 A 
ATOM     16 CL   UNL     1       7.079  13.924  25.223  0.00  0.00    +0.000 Cl
ATOM     17  C   UNL     1       8.910  14.258  23.284  0.00  0.00    +0.000 A 
ATOM     18  C   UNL     1       9.383  13.996  21.996  0.00  0.00    +0.000 A 
ATOM     19  N   UNL     1       9.451  15.059  21.013  0.00  0.00    +0.000 N 
ATOM     20  C   UNL     1       9.172  16.400  21.378  0.00  0.00    +0.000 C 
ATOM     21  C   UNL     1       8.739  17.365  20.299  0.00  0.00    +0.000 C 
ATOM     22  O   UNL     1       9.228  16.857  22.525  0.00  0.00    +0.000 OA
ENDROOT
TORSDOF 0
ENDMDL
MODEL 8
REMARK VINA RESULT:      -5.7      8.814      9.597
REMARK  Name = 
REMARK  2 active torsions:
REMARK  status: ('A' for Active; 'I' for Inactive)
REMARK    1  A    between atoms: C_1  and  C_2
REMARK    2  A    between atoms: C_20  and  C_21
REMARK                            x       y       z     vdW  Elec       q    Type
REMARK                         _______ _______ _______ _____ _____    ______ ____
ROOT
ATOM      1  C   UNL     1       7.810  13.182  17.395  0.00  0.00    +0.000 C 
ATOM      2  C   UNL     1       7.890  14.391  18.301  0.00  0.00    +0.000 C 
ATOM      3  O   UNL     1       6.927  15.155  18.368  0.00  0.00    +0.000 OA
ATOM      4  N   UNL     1       9.093  14.613  18.995  0.00  0.00    +0.000 N 
ATOM      5  C   UNL     1      10.128  13.645  19.076  0.00  0.00    +0.000 A 
ATOM      6  C   UNL     1      10.810  13.299  17.898  0.00  0.00    +0.000 A 
ATOM      7  C   UNL     1      11.709  12.230  17.872  0.00  0.00    +0.000 A 
ATOM      8  C   UNL     1      11.995  11.538  19.041  0.00  0.00    +0.000 A 
ATOM      9  C   UNL     1      11.363  11.894  20.228  0.00  0.00    +0.000 A 
ATOM     10  C   UNL     1      10.379  12.922  20.247  0.00  0.00    +0.000 A 
ATOM     11  S   UNL     1       9.438  12.965  21.758  0.00  0.00    +0.000 S 
ATOM     12  C   UNL     1       8.193  14.212  21.568  0.00  0.00    +0.000 A 
ATOM     13  C   UNL     1       6.900  13.937  22.020  0.00  0.00    +0.000 A 
ATOM     14  C   UNL     1       6.015  14.993  22.277  0.00  0.00    +0.000 A 
ATOM     15  C   UNL     1       6.535  16.289  22.319  0.00  0.00    +0.000 A 
ATOM     16 CL   UNL     1       5.539  17.593  22.832  0.00  0.00    +0.000 Cl
ATOM     17  C   UNL     1       7.819  16.550  21.862  0.00  0.00    +0.000 A 
ATOM     18  C   UNL     1       8.511  15.525  21.214  0.00  0.00    +0.000 A 
ATOM     19  N   UNL     1       9.110  15.756  19.914  0.00  0.00    +0.000 N 
ATOM     20  C   UNL     1       9.122  17.054  19.344  0.00  0.00    +0.000 C 
ATOM     21  C   UNL     1       9.253  17.180  17.844  0.00  0.00    +0.000 C 
ATOM     22  O   UNL     1       9.009  18.113  19.971  0.00  0.00    +0.000 OA
ENDROOT
TORSDOF 0
ENDMDL
MODEL 9
REMARK VINA RESULT:      -5.6      9.598     10.459
REMARK  Name = 
REMARK  2 active torsions:
REMARK  status: ('A' for Active; 'I' for Inactive)
REMARK    1  A    between atoms: C_1  and  C_2
REMARK    2  A    between atoms: C_20  and  C_21
REMARK                            x       y       z     vdW  Elec       q    Type
REMARK                         _______ _______ _______ _____ _____    ______ ____
ROOT
ATOM      1  C   UNL     1       7.517  14.487  18.106  0.00  0.00    +0.000 C 
ATOM      2  C   UNL     1       8.600  15.160  18.920  0.00  0.00    +0.000 C 
ATOM      3  O   UNL     1       8.535  16.374  19.116  0.00  0.00    +0.000 OA
ATOM      4  N   UNL     1       9.666  14.367  19.380  0.00  0.00    +0.000 N 
ATOM      5  C   UNL     1       9.652  12.949  19.326  0.00  0.00    +0.000 A 
ATOM      6  C   UNL     1       9.664  12.329  18.067  0.00  0.00    +0.000 A 
ATOM      7  C   UNL     1       9.470  10.952  17.938  0.00  0.00    +0.000 A 
ATOM      8  C   UNL     1       9.334  10.163  19.073  0.00  0.00    +0.000 A 
ATOM      9  C   UNL     1       9.362  10.753  20.332  0.00  0.00    +0.000 A 
ATOM     10  C   UNL     1       9.470  12.165  20.470  0.00  0.00    +0.000 A 
ATOM     11  S   UNL     1       9.116  12.737  22.119  0.00  0.00    +0.000 S 
ATOM     12  C   UNL     1       9.179  14.507  22.088  0.00  0.00    +0.000 A 
ATOM     13  C   UNL     1       8.194  15.222  22.773  0.00  0.00    +0.000 A 
ATOM     14  C   UNL     1       8.425  16.558  23.128  0.00  0.00    +0.000 A 
ATOM     15  C   UNL     1       9.726  17.052  23.011  0.00  0.00    +0.000 A 
ATOM     16 CL   UNL     1      10.106  18.613  23.624  0.00  0.00    +0.000 Cl
ATOM     17  C   UNL     1      10.695  16.336  22.322  0.00  0.00    +0.000 A 
ATOM     18  C   UNL     1      10.298  15.199  21.616  0.00  0.00    +0.000 A 
ATOM     19  N   UNL     1      10.660  15.041  20.221  0.00  0.00    +0.000 N 
ATOM     20  C   UNL     1      11.532  15.966  19.592  0.00  0.00    +0.000 C 
ATOM     21  C   UNL     1      11.477  16.098  18.088  0.00  0.00    +0.000 C 
ATOM     22  O   UNL     1      12.333  16.706  20.174  0.00  0.00    +0.000 OA
ENDROOT
TORSDOF 0
ENDMDL
