MODEL 1
REMARK VINA RESULT:      -7.2      0.000      0.000
REMARK  Name = 
REMARK  9 active torsions:
REMARK  status: ('A' for Active; 'I' for Inactive)
REMARK    1  A    between atoms: C_1  and  C_2
REMARK    2  A    between atoms: C_2  and  C_3
REMARK    3  A    between atoms: C_3  and  C_4
REMARK    4  A    between atoms: C_4  and  O_5
REMARK    5  A    between atoms: C_4  and  C_6
REMARK    6  A    between atoms: C_9  and  O_10
REMARK    7  A    between atoms: O_10  and  C_11
REMARK    8  A    between atoms: C_17  and  O_18
REMARK    9  A    between atoms: O_18  and  C_19
REMARK                            x       y       z     vdW  Elec       q    Type
REMARK                         _______ _______ _______ _____ _____    ______ ____
ROOT
ATOM      1  C   UNL     1       6.394   4.285  15.599  0.00  0.00    +0.000 A 
ATOM      2  C   UNL     1       5.043   4.016  15.839  0.00  0.00    +0.000 A 
ATOM      3  C   UNL     1       4.540   4.050  17.140  0.00  0.00    +0.000 A 
ATOM      4  C   UNL     1       5.371   4.338  18.231  0.00  0.00    +0.000 A 
ATOM      5  C   UNL     1       6.721   4.639  18.009  0.00  0.00    +0.000 A 
ATOM      6  C   UNL     1       7.218   4.603  16.695  0.00  0.00    +0.000 A 
ENDROOT
BRANCH   5   7
ATOM      7  O   UNL     1       7.480   4.988  19.092  0.00  0.00    +0.000 OA
ATOM      8  C   UNL     1       8.078   6.276  19.112  0.00  0.00    +0.000 C 
ENDBRANCH   5   7
BRANCH   1   9
ATOM      9  C   UNL     1       6.986   4.247  14.200  0.00  0.00    +0.000 C 
BRANCH   9  10
ATOM     10  O   UNL     1       7.667   5.464  13.899  0.00  0.00    +0.000 OA
ATOM     11  H   UNL     1       8.029   5.402  13.001  0.00  0.00    +0.000 HD
ENDBRANCH   9  10
BRANCH   9  12
ATOM     12  C   UNL     1       5.916   3.987  13.130  0.00  0.00    +0.000 C 
BRANCH  12  14
ATOM     13  C   UNL     1       5.576   2.117  11.482  0.00  0.00    +0.000 C 
ATOM     14  C   UNL     1       6.485   3.258  11.909  0.00  0.00    +0.000 C 
ENDBRANCH  12  14
ENDBRANCH   9  12
ENDBRANCH   1   9
BRANCH   4  15
ATOM     15  O   UNL     1       4.709   4.353  19.431  0.00  0.00    +0.000 OA
BRANCH  15  16
ATOM     16  C   UNL     1       3.322   3.996  19.491  0.00  0.00    +0.000 C 
ATOM     17  C   UNL     1       2.470   5.106  20.124  0.00  0.00    +0.000 C 
ATOM     18  C   UNL     1       1.097   4.601  20.539  0.00  0.00    +0.000 C 
ATOM     19  O   UNL     1       1.206   3.453  21.377  0.00  0.00    +0.000 OA
ATOM     20  C   UNL     1       1.820   2.362  20.696  0.00  0.00    +0.000 C 
ATOM     21  C   UNL     1       3.249   2.711  20.320  0.00  0.00    +0.000 C 
ENDBRANCH  15  16
ENDBRANCH   4  15
TORSDOF 7
ENDMDL
MODEL 2
REMARK VINA RESULT:      -6.8      0.950      1.407
REMARK  Name = 
REMARK  9 active torsions:
REMARK  status: ('A' for Active; 'I' for Inactive)
REMARK    1  A    between atoms: C_1  and  C_2
REMARK    2  A    between atoms: C_2  and  C_3
REMARK    3  A    between atoms: C_3  and  C_4
REMARK    4  A    between atoms: C_4  and  O_5
REMARK    5  A    between atoms: C_4  and  C_6
REMARK    6  A    between atoms: C_9  and  O_10
REMARK    7  A    between atoms: O_10  and  C_11
REMARK    8  A    between atoms: C_17  and  O_18
REMARK    9  A    between atoms: O_18  and  C_19
REMARK                            x       y       z     vdW  Elec       q    Type
REMARK                         _______ _______ _______ _____ _____    ______ ____
ROOT
ATOM      1  C   UNL     1       6.072   4.688  16.142  0.00  0.00    +0.000 A 
ATOM      2  C   UNL     1       4.693   4.921  16.164  0.00  0.00    +0.000 A 
ATOM      3  C   UNL     1       4.050   5.223  17.365  0.00  0.00    +0.000 A 
ATOM      4  C   UNL     1       4.760   5.285  18.571  0.00  0.00    +0.000 A 
ATOM      5  C   UNL     1       6.147   5.082  18.567  0.00  0.00    +0.000 A 
ATOM      6  C   UNL     1       6.784   4.780  17.352  0.00  0.00    +0.000 A 
ENDROOT
BRANCH   5   7
ATOM      7  O   UNL     1       6.813   5.224  19.752  0.00  0.00    +0.000 OA
ATOM      8  C   UNL     1       8.139   5.731  19.726  0.00  0.00    +0.000 C 
ENDBRANCH   5   7
BRANCH   1   9
ATOM      9  C   UNL     1       6.809   4.344  14.859  0.00  0.00    +0.000 C 
BRANCH   9  10
ATOM     10  O   UNL     1       7.777   5.343  14.541  0.00  0.00    +0.000 OA
ATOM     11  H   UNL     1       7.607   6.125  15.090  0.00  0.00    +0.000 HD
ENDBRANCH   9  10
BRANCH   9  12
ATOM     12  C   UNL     1       5.850   4.173  13.673  0.00  0.00    +0.000 C 
BRANCH  12  14
ATOM     13  C   UNL     1       5.651   2.607  11.714  0.00  0.00    +0.000 C 
ATOM     14  C   UNL     1       6.551   3.593  12.441  0.00  0.00    +0.000 C 
ENDBRANCH  12  14
ENDBRANCH   9  12
ENDBRANCH   1   9
BRANCH   4  15
ATOM     15  O   UNL     1       3.979   5.616  19.647  0.00  0.00    +0.000 OA
BRANCH  15  16
ATOM     16  C   UNL     1       3.179   4.615  20.290  0.00  0.00    +0.000 C 
ATOM     17  C   UNL     1       3.441   3.214  19.719  0.00  0.00    +0.000 C 
ATOM     18  C   UNL     1       2.352   2.229  20.109  0.00  0.00    +0.000 C 
ATOM     19  O   UNL     1       1.062   2.726  19.762  0.00  0.00    +0.000 OA
ATOM     20  C   UNL     1       0.755   3.927  20.465  0.00  0.00    +0.000 C 
ATOM     21  C   UNL     1       1.721   5.031  20.072  0.00  0.00    +0.000 C 
ENDBRANCH  15  16
ENDBRANCH   4  15
TORSDOF 7
ENDMDL
MODEL 3
REMARK VINA RESULT:      -6.7      1.446      1.965
REMARK  Name = 
REMARK  9 active torsions:
REMARK  status: ('A' for Active; 'I' for Inactive)
REMARK    1  A    between atoms: C_1  and  C_2
REMARK    2  A    between atoms: C_2  and  C_3
REMARK    3  A    between atoms: C_3  and  C_4
REMARK    4  A    between atoms: C_4  and  O_5
REMARK    5  A    between atoms: C_4  and  C_6
REMARK    6  A    between atoms: C_9  and  O_10
REMARK    7  A    between atoms: O_10  and  C_11
REMARK    8  A    between atoms: C_17  and  O_18
REMARK    9  A    between atoms: O_18  and  C_19
REMARK                            x       y       z     vdW  Elec       q    Type
REMARK                         _______ _______ _______ _____ _____    ______ ____
ROOT
ATOM      1  C   UNL     1       5.860   4.790  16.045  0.00  0.00    +0.000 A 
ATOM      2  C   UNL     1       5.030   5.916  16.086  0.00  0.00    +0.000 A 
ATOM      3  C   UNL     1       4.306   6.213  17.242  0.00  0.00    +0.000 A 
ATOM      4  C   UNL     1       4.379   5.392  18.374  0.00  0.00    +0.000 A 
ATOM      5  C   UNL     1       5.227   4.276  18.364  0.00  0.00    +0.000 A 
ATOM      6  C   UNL     1       5.952   3.985  17.196  0.00  0.00    +0.000 A 
ENDROOT
BRANCH   5   7
ATOM      7  O   UNL     1       5.326   3.543  19.514  0.00  0.00    +0.000 OA
ATOM      8  C   UNL     1       4.657   2.292  19.580  0.00  0.00    +0.000 C 
ENDBRANCH   5   7
BRANCH   1   9
ATOM      9  C   UNL     1       6.656   4.422  14.805  0.00  0.00    +0.000 C 
BRANCH   9  10
ATOM     10  O   UNL     1       7.571   5.460  14.456  0.00  0.00    +0.000 OA
ATOM     11  H   UNL     1       7.085   6.154  13.983  0.00  0.00    +0.000 HD
ENDBRANCH   9  10
BRANCH   9  12
ATOM     12  C   UNL     1       5.746   4.126  13.605  0.00  0.00    +0.000 C 
BRANCH  12  14
ATOM     13  C   UNL     1       5.710   2.497  11.688  0.00  0.00    +0.000 C 
ATOM     14  C   UNL     1       6.524   3.553  12.416  0.00  0.00    +0.000 C 
ENDBRANCH  12  14
ENDBRANCH   9  12
ENDBRANCH   1   9
BRANCH   4  15
ATOM     15  O   UNL     1       3.625   5.844  19.424  0.00  0.00    +0.000 OA
BRANCH  15  16
ATOM     16  C   UNL     1       2.356   5.240  19.711  0.00  0.00    +0.000 C 
ATOM     17  C   UNL     1       2.394   4.406  20.999  0.00  0.00    +0.000 C 
ATOM     18  C   UNL     1       1.200   3.471  21.105  0.00  0.00    +0.000 C 
ATOM     19  O   UNL     1       1.076   2.664  19.937  0.00  0.00    +0.000 OA
ATOM     20  C   UNL     1       0.835   3.454  18.776  0.00  0.00    +0.000 C 
ATOM     21  C   UNL     1       2.019   4.364  18.501  0.00  0.00    +0.000 C 
ENDBRANCH  15  16
ENDBRANCH   4  15
TORSDOF 7
ENDMDL
MODEL 4
REMARK VINA RESULT:      -6.7      2.553      4.174
REMARK  Name = 
REMARK  9 active torsions:
REMARK  status: ('A' for Active; 'I' for Inactive)
REMARK    1  A    between atoms: C_1  and  C_2
REMARK    2  A    between atoms: C_2  and  C_3
REMARK    3  A    between atoms: C_3  and  C_4
REMARK    4  A    between atoms: C_4  and  O_5
REMARK    5  A    between atoms: C_4  and  C_6
REMARK    6  A    between atoms: C_9  and  O_10
REMARK    7  A    between atoms: O_10  and  C_11
REMARK    8  A    between atoms: C_17  and  O_18
REMARK    9  A    between atoms: O_18  and  C_19
REMARK                            x       y       z     vdW  Elec       q    Type
REMARK                         _______ _______ _______ _____ _____    ______ ____
ROOT
ATOM      1  C   UNL     1       5.424   5.776  16.874  0.00  0.00    +0.000 A 
ATOM      2  C   UNL     1       5.299   4.418  16.562  0.00  0.00    +0.000 A 
ATOM      3  C   UNL     1       4.158   3.711  16.943  0.00  0.00    +0.000 A 
ATOM      4  C   UNL     1       3.124   4.333  17.655  0.00  0.00    +0.000 A 
ATOM      5  C   UNL     1       3.216   5.699  17.953  0.00  0.00    +0.000 A 
ATOM      6  C   UNL     1       4.369   6.403  17.563  0.00  0.00    +0.000 A 
ENDROOT
BRANCH   5   7
ATOM      7  O   UNL     1       2.153   6.285  18.583  0.00  0.00    +0.000 OA
ATOM      8  C   UNL     1       2.393   7.016  19.776  0.00  0.00    +0.000 C 
ENDBRANCH   5   7
BRANCH   1   9
ATOM      9  C   UNL     1       6.653   6.581  16.489  0.00  0.00    +0.000 C 
BRANCH   9  10
ATOM     10  O   UNL     1       7.547   5.802  15.696  0.00  0.00    +0.000 OA
ATOM     11  H   UNL     1       7.164   5.697  14.811  0.00  0.00    +0.000 HD
ENDBRANCH   9  10
BRANCH   9  12
ATOM     12  C   UNL     1       7.401   7.112  17.720  0.00  0.00    +0.000 C 
BRANCH  12  14
ATOM     13  C   UNL     1       8.747   9.015  18.666  0.00  0.00    +0.000 C 
ATOM     14  C   UNL     1       7.781   8.588  17.573  0.00  0.00    +0.000 C 
ENDBRANCH  12  14
ENDBRANCH   9  12
ENDBRANCH   1   9
BRANCH   4  15
ATOM     15  O   UNL     1       2.072   3.499  17.926  0.00  0.00    +0.000 OA
BRANCH  15  16
ATOM     16  C   UNL     1       2.056   2.730  19.137  0.00  0.00    +0.000 C 
ATOM     17  C   UNL     1       1.053   3.286  20.158  0.00  0.00    +0.000 C 
ATOM     18  C   UNL     1       1.297   2.733  21.552  0.00  0.00    +0.000 C 
ATOM     19  O   UNL     1       2.650   2.934  21.954  0.00  0.00    +0.000 OA
ATOM     20  C   UNL     1       3.559   2.236  21.106  0.00  0.00    +0.000 C 
ATOM     21  C   UNL     1       3.484   2.780  19.690  0.00  0.00    +0.000 C 
ENDBRANCH  15  16
ENDBRANCH   4  15
TORSDOF 7
ENDMDL
MODEL 5
REMARK VINA RESULT:      -6.6      2.177      3.179
REMARK  Name = 
REMARK  9 active torsions:
REMARK  status: ('A' for Active; 'I' for Inactive)
REMARK    1  A    between atoms: C_1  and  C_2
REMARK    2  A    between atoms: C_2  and  C_3
REMARK    3  A    between atoms: C_3  and  C_4
REMARK    4  A    between atoms: C_4  and  O_5
REMARK    5  A    between atoms: C_4  and  C_6
REMARK    6  A    between atoms: C_9  and  O_10
REMARK    7  A    between atoms: O_10  and  C_11
REMARK    8  A    between atoms: C_17  and  O_18
REMARK    9  A    between atoms: O_18  and  C_19
REMARK                            x       y       z     vdW  Elec       q    Type
REMARK                         _______ _______ _______ _____ _____    ______ ____
ROOT
ATOM      1  C   UNL     1       5.652   5.742  17.430  0.00  0.00    +0.000 A 
ATOM      2  C   UNL     1       5.657   5.093  18.669  0.00  0.00    +0.000 A 
ATOM      3  C   UNL     1       4.576   5.233  19.540  0.00  0.00    +0.000 A 
ATOM      4  C   UNL     1       3.474   6.032  19.206  0.00  0.00    +0.000 A 
ATOM      5  C   UNL     1       3.436   6.667  17.957  0.00  0.00    +0.000 A 
ATOM      6  C   UNL     1       4.529   6.518  17.087  0.00  0.00    +0.000 A 
ENDROOT
BRANCH   5   7
ATOM      7  O   UNL     1       2.311   7.376  17.639  0.00  0.00    +0.000 OA
ATOM      8  C   UNL     1       2.298   8.773  17.889  0.00  0.00    +0.000 C 
ENDBRANCH   5   7
BRANCH   1   9
ATOM      9  C   UNL     1       6.813   5.627  16.456  0.00  0.00    +0.000 C 
BRANCH   9  10
ATOM     10  O   UNL     1       7.635   6.791  16.500  0.00  0.00    +0.000 OA
ATOM     11  H   UNL     1       8.392   6.615  17.081  0.00  0.00    +0.000 HD
ENDBRANCH   9  10
BRANCH   9  12
ATOM     12  C   UNL     1       6.334   5.399  15.016  0.00  0.00    +0.000 C 
BRANCH  12  14
ATOM     13  C   UNL     1       6.006   3.687  13.202  0.00  0.00    +0.000 C 
ATOM     14  C   UNL     1       6.140   3.914  14.699  0.00  0.00    +0.000 C 
ENDBRANCH  12  14
ENDBRANCH   9  12
ENDBRANCH   1   9
BRANCH   4  15
ATOM     15  O   UNL     1       2.495   6.038  20.163  0.00  0.00    +0.000 OA
BRANCH  15  16
ATOM     16  C   UNL     1       1.643   4.896  20.328  0.00  0.00    +0.000 C 
ATOM     17  C   UNL     1       2.163   3.943  21.414  0.00  0.00    +0.000 C 
ATOM     18  C   UNL     1       1.503   2.576  21.334  0.00  0.00    +0.000 C 
ATOM     19  O   UNL     1       1.622   2.027  20.024  0.00  0.00    +0.000 OA
ATOM     20  C   UNL     1       0.952   2.828  19.055  0.00  0.00    +0.000 C 
ATOM     21  C   UNL     1       1.597   4.199  18.965  0.00  0.00    +0.000 C 
ENDBRANCH  15  16
ENDBRANCH   4  15
TORSDOF 7
ENDMDL
MODEL 6
REMARK VINA RESULT:      -6.6      2.954      4.202
REMARK  Name = 
REMARK  9 active torsions:
REMARK  status: ('A' for Active; 'I' for Inactive)
REMARK    1  A    between atoms: C_1  and  C_2
REMARK    2  A    between atoms: C_2  and  C_3
REMARK    3  A    between atoms: C_3  and  C_4
REMARK    4  A    between atoms: C_4  and  O_5
REMARK    5  A    between atoms: C_4  and  C_6
REMARK    6  A    between atoms: C_9  and  O_10
REMARK    7  A    between atoms: O_10  and  C_11
REMARK    8  A    between atoms: C_17  and  O_18
REMARK    9  A    between atoms: O_18  and  C_19
REMARK                            x       y       z     vdW  Elec       q    Type
REMARK                         _______ _______ _______ _____ _____    ______ ____
ROOT
ATOM      1  C   UNL     1       5.477   4.642  16.676  0.00  0.00    +0.000 A 
ATOM      2  C   UNL     1       5.560   5.810  17.441  0.00  0.00    +0.000 A 
ATOM      3  C   UNL     1       4.448   6.265  18.152  0.00  0.00    +0.000 A 
ATOM      4  C   UNL     1       3.228   5.579  18.106  0.00  0.00    +0.000 A 
ATOM      5  C   UNL     1       3.132   4.391  17.369  0.00  0.00    +0.000 A 
ATOM      6  C   UNL     1       4.257   3.940  16.658  0.00  0.00    +0.000 A 
ENDROOT
BRANCH   5   7
ATOM      7  O   UNL     1       1.946   3.711  17.410  0.00  0.00    +0.000 OA
ATOM      8  C   UNL     1       1.849   2.569  18.248  0.00  0.00    +0.000 C 
ENDBRANCH   5   7
BRANCH   1   9
ATOM      9  C   UNL     1       6.659   4.117  15.878  0.00  0.00    +0.000 C 
BRANCH   9  10
ATOM     10  O   UNL     1       7.891   4.419  16.529  0.00  0.00    +0.000 OA
ATOM     11  H   UNL     1       7.779   4.282  17.483  0.00  0.00    +0.000 HD
ENDBRANCH   9  10
BRANCH   9  12
ATOM     12  C   UNL     1       6.687   4.686  14.453  0.00  0.00    +0.000 C 
BRANCH  12  14
ATOM     13  C   UNL     1       6.767   3.677  12.150  0.00  0.00    +0.000 C 
ATOM     14  C   UNL     1       5.984   3.767  13.449  0.00  0.00    +0.000 C 
ENDBRANCH  12  14
ENDBRANCH   9  12
ENDBRANCH   1   9
BRANCH   4  15
ATOM     15  O   UNL     1       2.252   6.150  18.879  0.00  0.00    +0.000 OA
BRANCH  15  16
ATOM     16  C   UNL     1       2.305   7.550  19.186  0.00  0.00    +0.000 C 
ATOM     17  C   UNL     1       1.462   7.900  20.421  0.00  0.00    +0.000 C 
ATOM     18  C   UNL     1       1.202   9.394  20.526  0.00  0.00    +0.000 C 
ATOM     19  O   UNL     1       0.637   9.901  19.320  0.00  0.00    +0.000 OA
ATOM     20  C   UNL     1       1.527   9.748  18.217  0.00  0.00    +0.000 C 
ATOM     21  C   UNL     1       1.783   8.278  17.944  0.00  0.00    +0.000 C 
ENDBRANCH  15  16
ENDBRANCH   4  15
TORSDOF 7
ENDMDL
MODEL 7
REMARK VINA RESULT:      -6.6      1.352      1.684
REMARK  Name = 
REMARK  9 active torsions:
REMARK  status: ('A' for Active; 'I' for Inactive)
REMARK    1  A    between atoms: C_1  and  C_2
REMARK    2  A    between atoms: C_2  and  C_3
REMARK    3  A    between atoms: C_3  and  C_4
REMARK    4  A    between atoms: C_4  and  O_5
REMARK    5  A    between atoms: C_4  and  C_6
REMARK    6  A    between atoms: C_9  and  O_10
REMARK    7  A    between atoms: O_10  and  C_11
REMARK    8  A    between atoms: C_17  and  O_18
REMARK    9  A    between atoms: O_18  and  C_19
REMARK                            x       y       z     vdW  Elec       q    Type
REMARK                         _______ _______ _______ _____ _____    ______ ____
ROOT
ATOM      1  C   UNL     1       6.526   4.443  15.282  0.00  0.00    +0.000 A 
ATOM      2  C   UNL     1       5.155   4.168  15.296  0.00  0.00    +0.000 A 
ATOM      3  C   UNL     1       4.468   4.077  16.507  0.00  0.00    +0.000 A 
ATOM      4  C   UNL     1       5.131   4.241  17.730  0.00  0.00    +0.000 A 
ATOM      5  C   UNL     1       6.499   4.545  17.738  0.00  0.00    +0.000 A 
ATOM      6  C   UNL     1       7.181   4.637  16.513  0.00  0.00    +0.000 A 
ENDROOT
BRANCH   5   7
ATOM      7  O   UNL     1       7.092   4.772  18.949  0.00  0.00    +0.000 OA
ATOM      8  C   UNL     1       7.813   5.981  19.133  0.00  0.00    +0.000 C 
ENDBRANCH   5   7
BRANCH   1   9
ATOM      9  C   UNL     1       7.315   4.539  13.987  0.00  0.00    +0.000 C 
BRANCH   9  10
ATOM     10  O   UNL     1       8.177   5.676  13.996  0.00  0.00    +0.000 OA
ATOM     11  H   UNL     1       8.141   6.098  13.123  0.00  0.00    +0.000 HD
ENDBRANCH   9  10
BRANCH   9  12
ATOM     12  C   UNL     1       6.397   4.609  12.759  0.00  0.00    +0.000 C 
BRANCH  12  14
ATOM     13  C   UNL     1       4.722   3.120  11.616  0.00  0.00    +0.000 C 
ATOM     14  C   UNL     1       6.141   3.228  12.149  0.00  0.00    +0.000 C 
ENDBRANCH  12  14
ENDBRANCH   9  12
ENDBRANCH   1   9
BRANCH   4  15
ATOM     15  O   UNL     1       4.302   4.143  18.817  0.00  0.00    +0.000 OA
BRANCH  15  16
ATOM     16  C   UNL     1       3.137   4.974  18.910  0.00  0.00    +0.000 C 
ATOM     17  C   UNL     1       3.444   6.436  18.558  0.00  0.00    +0.000 C 
ATOM     18  C   UNL     1       2.339   7.375  19.015  0.00  0.00    +0.000 C 
ATOM     19  O   UNL     1       2.056   7.196  20.400  0.00  0.00    +0.000 OA
ATOM     20  C   UNL     1       1.574   5.883  20.673  0.00  0.00    +0.000 C 
ATOM     21  C   UNL     1       2.641   4.851  20.354  0.00  0.00    +0.000 C 
ENDBRANCH  15  16
ENDBRANCH   4  15
TORSDOF 7
ENDMDL
MODEL 8
REMARK VINA RESULT:      -6.5      2.507      3.902
REMARK  Name = 
REMARK  9 active torsions:
REMARK  status: ('A' for Active; 'I' for Inactive)
REMARK    1  A    between atoms: C_1  and  C_2
REMARK    2  A    between atoms: C_2  and  C_3
REMARK    3  A    between atoms: C_3  and  C_4
REMARK    4  A    between atoms: C_4  and  O_5
REMARK    5  A    between atoms: C_4  and  C_6
REMARK    6  A    between atoms: C_9  and  O_10
REMARK    7  A    between atoms: O_10  and  C_11
REMARK    8  A    between atoms: C_17  and  O_18
REMARK    9  A    between atoms: O_18  and  C_19
REMARK                            x       y       z     vdW  Elec       q    Type
REMARK                         _______ _______ _______ _____ _____    ______ ____
ROOT
ATOM      1  C   UNL     1       5.237   5.573  16.742  0.00  0.00    +0.000 A 
ATOM      2  C   UNL     1       4.960   4.253  16.371  0.00  0.00    +0.000 A 
ATOM      3  C   UNL     1       3.811   3.617  16.842  0.00  0.00    +0.000 A 
ATOM      4  C   UNL     1       2.921   4.273  17.702  0.00  0.00    +0.000 A 
ATOM      5  C   UNL     1       3.165   5.605  18.063  0.00  0.00    +0.000 A 
ATOM      6  C   UNL     1       4.324   6.237  17.582  0.00  0.00    +0.000 A 
ENDROOT
BRANCH   5   7
ATOM      7  O   UNL     1       2.233   6.233  18.843  0.00  0.00    +0.000 OA
ATOM      8  C   UNL     1       2.290   7.647  18.959  0.00  0.00    +0.000 C 
ENDBRANCH   5   7
BRANCH   1   9
ATOM      9  C   UNL     1       6.483   6.299  16.262  0.00  0.00    +0.000 C 
BRANCH   9  10
ATOM     10  O   UNL     1       7.193   5.519  15.302  0.00  0.00    +0.000 OA
ATOM     11  H   UNL     1       6.724   4.679  15.178  0.00  0.00    +0.000 HD
ENDBRANCH   9  10
BRANCH   9  12
ATOM     12  C   UNL     1       7.424   6.653  17.422  0.00  0.00    +0.000 C 
BRANCH  12  14
ATOM     13  C   UNL     1       7.797   5.750  19.740  0.00  0.00    +0.000 C 
ATOM     14  C   UNL     1       7.802   5.425  18.255  0.00  0.00    +0.000 C 
ENDBRANCH  12  14
ENDBRANCH   9  12
ENDBRANCH   1   9
BRANCH   4  15
ATOM     15  O   UNL     1       1.836   3.511  18.047  0.00  0.00    +0.000 OA
BRANCH  15  16
ATOM     16  C   UNL     1       1.857   2.732  19.251  0.00  0.00    +0.000 C 
ATOM     17  C   UNL     1       0.944   3.323  20.335  0.00  0.00    +0.000 C 
ATOM     18  C   UNL     1       1.245   2.746  21.708  0.00  0.00    +0.000 C 
ATOM     19  O   UNL     1       2.627   2.880  22.028  0.00  0.00    +0.000 OA
ATOM     20  C   UNL     1       3.450   2.149  21.122  0.00  0.00    +0.000 C 
ATOM     21  C   UNL     1       3.316   2.709  19.717  0.00  0.00    +0.000 C 
ENDBRANCH  15  16
ENDBRANCH   4  15
TORSDOF 7
ENDMDL
MODEL 9
REMARK VINA RESULT:      -6.5      3.234      7.527
REMARK  Name = 
REMARK  9 active torsions:
REMARK  status: ('A' for Active; 'I' for Inactive)
REMARK    1  A    between atoms: C_1  and  C_2
REMARK    2  A    between atoms: C_2  and  C_3
REMARK    3  A    between atoms: C_3  and  C_4
REMARK    4  A    between atoms: C_4  and  O_5
REMARK    5  A    between atoms: C_4  and  C_6
REMARK    6  A    between atoms: C_9  and  O_10
REMARK    7  A    between atoms: O_10  and  C_11
REMARK    8  A    between atoms: C_17  and  O_18
REMARK    9  A    between atoms: O_18  and  C_19
REMARK                            x       y       z     vdW  Elec       q    Type
REMARK                         _______ _______ _______ _____ _____    ______ ____
ROOT
ATOM      1  C   UNL     1       1.736   7.933  19.985  0.00  0.00    +0.000 A 
ATOM      2  C   UNL     1       2.244   8.196  18.708  0.00  0.00    +0.000 A 
ATOM      3  C   UNL     1       2.932   7.204  18.008  0.00  0.00    +0.000 A 
ATOM      4  C   UNL     1       3.144   5.937  18.566  0.00  0.00    +0.000 A 
ATOM      5  C   UNL     1       2.619   5.644  19.832  0.00  0.00    +0.000 A 
ATOM      6  C   UNL     1       1.926   6.649  20.529  0.00  0.00    +0.000 A 
ENDROOT
BRANCH   5   7
ATOM      7  O   UNL     1       2.783   4.373  20.310  0.00  0.00    +0.000 OA
ATOM      8  C   UNL     1       1.625   3.605  20.600  0.00  0.00    +0.000 C 
ENDBRANCH   5   7
BRANCH   1   9
ATOM      9  C   UNL     1       0.992   8.987  20.787  0.00  0.00    +0.000 C 
BRANCH   9  10
ATOM     10  O   UNL     1      -0.209   8.453  21.343  0.00  0.00    +0.000 OA
ATOM     11  H   UNL     1      -0.348   7.563  20.983  0.00  0.00    +0.000 HD
ENDBRANCH   9  10
BRANCH   9  12
ATOM     12  C   UNL     1       0.653  10.221  19.940  0.00  0.00    +0.000 C 
BRANCH  12  14
ATOM     13  C   UNL     1      -0.969  10.161  18.017  0.00  0.00    +0.000 C 
ATOM     14  C   UNL     1      -0.822  10.251  19.527  0.00  0.00    +0.000 C 
ENDBRANCH  12  14
ENDBRANCH   9  12
ENDBRANCH   1   9
BRANCH   4  15
ATOM     15  O   UNL     1       3.816   5.080  17.734  0.00  0.00    +0.000 OA
BRANCH  15  16
ATOM     16  C   UNL     1       5.115   5.429  17.240  0.00  0.00    +0.000 C 
ATOM     17  C   UNL     1       5.496   4.613  15.997  0.00  0.00    +0.000 C 
ATOM     18  C   UNL     1       6.985   4.691  15.699  0.00  0.00    +0.000 C 
ATOM     19  O   UNL     1       7.755   4.333  16.843  0.00  0.00    +0.000 OA
ATOM     20  C   UNL     1       7.538   5.233  17.927  0.00  0.00    +0.000 C 
ATOM     21  C   UNL     1       6.093   5.165  18.388  0.00  0.00    +0.000 C 
ENDBRANCH  15  16
ENDBRANCH   4  15
TORSDOF 7
ENDMDL
