MODEL 1
REMARK VINA RESULT:      -7.9      0.000      0.000
REMARK  Name = 
REMARK  7 active torsions:
REMARK  status: ('A' for Active; 'I' for Inactive)
REMARK    1  A    between atoms: O_1  and  C_2
REMARK    2  A    between atoms: C_2  and  C_3
REMARK    3  A    between atoms: C_2  and  C_14
REMARK    4  A    between atoms: C_3  and  O_4
REMARK    5  A    between atoms: O_4  and  C_5
REMARK    6  A    between atoms: C_14  and  N_15
REMARK    7  A    between atoms: N_18  and  C_19
REMARK                            x       y       z     vdW  Elec       q    Type
REMARK                         _______ _______ _______ _____ _____    ______ ____
ROOT
ATOM      1  C   UNL     1       3.486   3.010  20.398  0.00  0.00    +0.000 C 
ENDROOT
BRANCH   1   2
ATOM      2  O   UNL     1       3.566   2.119  21.510  0.00  0.00    +0.000 OA
ATOM      3  H   UNL     1       3.102   2.555  22.247  0.00  0.00    +0.000 HD
ENDBRANCH   1   2
BRANCH   1   4
ATOM      4  C   UNL     1       4.833   3.049  19.653  0.00  0.00    +0.000 C 
BRANCH   4   5
ATOM      5  O   UNL     1       5.445   4.348  19.701  0.00  0.00    +0.000 OA
BRANCH   5   6
ATOM      6  C   UNL     1       5.996   4.733  18.495  0.00  0.00    +0.000 A 
ATOM      7  C   UNL     1       6.788   5.890  18.327  0.00  0.00    +0.000 A 
ATOM      8  C   UNL     1       7.288   6.246  17.072  0.00  0.00    +0.000 A 
ATOM      9  C   UNL     1       6.992   5.425  16.010  0.00  0.00    +0.000 A 
ATOM     10  C   UNL     1       6.249   4.277  16.167  0.00  0.00    +0.000 A 
ATOM     11  C   UNL     1       5.749   3.898  17.399  0.00  0.00    +0.000 A 
ATOM     12  O   UNL     1       6.085   3.613  14.990  0.00  0.00    +0.000 OA
ATOM     13  C   UNL     1       6.778   4.493  14.078  0.00  0.00    +0.000 C 
ATOM     14  O   UNL     1       7.383   5.628  14.726  0.00  0.00    +0.000 OA
ENDBRANCH   5   6
ENDBRANCH   4   5
ENDBRANCH   1   4
BRANCH   1  15
ATOM     15  C   UNL     1       2.411   2.529  19.379  0.00  0.00    +0.000 C 
BRANCH  15  16
ATOM     16  N   UNL     1       1.211   3.363  19.155  0.00  0.00    +0.000 NA
ATOM     17  C   UNL     1       0.929   4.307  20.255  0.00  0.00    +0.000 C 
ATOM     18  C   UNL     1       2.035   5.359  20.462  0.00  0.00    +0.000 C 
ATOM     19  N   UNL     1       2.275   6.118  19.227  0.00  0.00    +0.000 N 
ATOM     20  C   UNL     1       2.403   5.339  17.982  0.00  0.00    +0.000 C 
ATOM     21  C   UNL     1       1.374   4.171  17.913  0.00  0.00    +0.000 C 
BRANCH  19  22
ATOM     22  C   UNL     1       1.989   7.472  19.163  0.00  0.00    +0.000 A 
ATOM     23  C   UNL     1       1.508   8.158  20.288  0.00  0.00    +0.000 A 
ATOM     24  C   UNL     1       1.144   9.508  20.224  0.00  0.00    +0.000 A 
ATOM     25  C   UNL     1       1.269  10.207  19.028  0.00  0.00    +0.000 A 
ATOM     26  C   UNL     1       1.767   9.558  17.904  0.00  0.00    +0.000 A 
ATOM     27  C   UNL     1       2.122   8.208  17.976  0.00  0.00    +0.000 A 
ENDBRANCH  19  22
ENDBRANCH  15  16
ENDBRANCH   1  15
TORSDOF 7
ENDMDL
MODEL 2
REMARK VINA RESULT:      -7.8      5.030      7.279
REMARK  Name = 
REMARK  7 active torsions:
REMARK  status: ('A' for Active; 'I' for Inactive)
REMARK    1  A    between atoms: O_1  and  C_2
REMARK    2  A    between atoms: C_2  and  C_3
REMARK    3  A    between atoms: C_2  and  C_14
REMARK    4  A    between atoms: C_3  and  O_4
REMARK    5  A    between atoms: O_4  and  C_5
REMARK    6  A    between atoms: C_14  and  N_15
REMARK    7  A    between atoms: N_18  and  C_19
REMARK                            x       y       z     vdW  Elec       q    Type
REMARK                         _______ _______ _______ _____ _____    ______ ____
ROOT
ATOM      1  C   UNL     1       7.486   7.441  18.107  0.00  0.00    +0.000 C 
ENDROOT
BRANCH   1   2
ATOM      2  O   UNL     1       8.302   6.682  19.000  0.00  0.00    +0.000 OA
ATOM      3  H   UNL     1       8.616   5.909  18.498  0.00  0.00    +0.000 HD
ENDBRANCH   1   2
BRANCH   1   4
ATOM      4  C   UNL     1       8.180   8.771  17.758  0.00  0.00    +0.000 C 
BRANCH   4   5
ATOM      5  O   UNL     1       8.880   9.331  18.881  0.00  0.00    +0.000 OA
BRANCH   5   6
ATOM      6  C   UNL     1       9.268  10.641  18.681  0.00  0.00    +0.000 A 
ATOM      7  C   UNL     1       8.571  11.549  17.853  0.00  0.00    +0.000 A 
ATOM      8  C   UNL     1       9.034  12.853  17.663  0.00  0.00    +0.000 A 
ATOM      9  C   UNL     1      10.184  13.224  18.317  0.00  0.00    +0.000 A 
ATOM     10  C   UNL     1      10.854  12.359  19.153  0.00  0.00    +0.000 A 
ATOM     11  C   UNL     1      10.413  11.066  19.365  0.00  0.00    +0.000 A 
ATOM     12  O   UNL     1      11.959  12.935  19.701  0.00  0.00    +0.000 OA
ATOM     13  C   UNL     1      11.921  14.243  19.088  0.00  0.00    +0.000 C 
ATOM     14  O   UNL     1      10.779  14.442  18.234  0.00  0.00    +0.000 OA
ENDBRANCH   5   6
ENDBRANCH   4   5
ENDBRANCH   1   4
BRANCH   1  15
ATOM     15  C   UNL     1       7.268   6.673  16.770  0.00  0.00    +0.000 C 
BRANCH  15  16
ATOM     16  N   UNL     1       5.906   6.599  16.201  0.00  0.00    +0.000 NA
ATOM     17  C   UNL     1       5.556   5.267  15.667  0.00  0.00    +0.000 C 
ATOM     18  C   UNL     1       5.532   4.161  16.739  0.00  0.00    +0.000 C 
ATOM     19  N   UNL     1       4.603   4.503  17.825  0.00  0.00    +0.000 N 
ATOM     20  C   UNL     1       4.687   5.873  18.366  0.00  0.00    +0.000 C 
ATOM     21  C   UNL     1       4.895   6.934  17.244  0.00  0.00    +0.000 C 
BRANCH  19  22
ATOM     22  C   UNL     1       3.462   3.749  18.043  0.00  0.00    +0.000 A 
ATOM     23  C   UNL     1       2.209   4.367  18.177  0.00  0.00    +0.000 A 
ATOM     24  C   UNL     1       1.056   3.629  18.470  0.00  0.00    +0.000 A 
ATOM     25  C   UNL     1       1.131   2.249  18.621  0.00  0.00    +0.000 A 
ATOM     26  C   UNL     1       2.356   1.609  18.469  0.00  0.00    +0.000 A 
ATOM     27  C   UNL     1       3.503   2.354  18.183  0.00  0.00    +0.000 A 
ENDBRANCH  19  22
ENDBRANCH  15  16
ENDBRANCH   1  15
TORSDOF 7
ENDMDL
MODEL 3
REMARK VINA RESULT:      -7.7      0.953      1.360
REMARK  Name = 
REMARK  7 active torsions:
REMARK  status: ('A' for Active; 'I' for Inactive)
REMARK    1  A    between atoms: O_1  and  C_2
REMARK    2  A    between atoms: C_2  and  C_3
REMARK    3  A    between atoms: C_2  and  C_14
REMARK    4  A    between atoms: C_3  and  O_4
REMARK    5  A    between atoms: O_4  and  C_5
REMARK    6  A    between atoms: C_14  and  N_15
REMARK    7  A    between atoms: N_18  and  C_19
REMARK                            x       y       z     vdW  Elec       q    Type
REMARK                         _______ _______ _______ _____ _____    ______ ____
ROOT
ATOM      1  C   UNL     1       3.229   1.970  19.467  0.00  0.00    +0.000 C 
ENDROOT
BRANCH   1   2
ATOM      2  O   UNL     1       2.540   1.653  18.257  0.00  0.00    +0.000 OA
ATOM      3  H   UNL     1       2.774   0.733  18.040  0.00  0.00    +0.000 HD
ENDBRANCH   1   2
BRANCH   1   4
ATOM      4  C   UNL     1       4.718   2.234  19.174  0.00  0.00    +0.000 C 
BRANCH   4   5
ATOM      5  O   UNL     1       5.087   3.601  19.415  0.00  0.00    +0.000 OA
BRANCH   5   6
ATOM      6  C   UNL     1       5.773   4.172  18.361  0.00  0.00    +0.000 A 
ATOM      7  C   UNL     1       6.695   5.232  18.506  0.00  0.00    +0.000 A 
ATOM      8  C   UNL     1       7.332   5.791  17.395  0.00  0.00    +0.000 A 
ATOM      9  C   UNL     1       7.039   5.266  16.160  0.00  0.00    +0.000 A 
ATOM     10  C   UNL     1       6.168   4.211  16.009  0.00  0.00    +0.000 A 
ATOM     11  C   UNL     1       5.531   3.634  17.091  0.00  0.00    +0.000 A 
ATOM     12  O   UNL     1       6.031   3.847  14.704  0.00  0.00    +0.000 OA
ATOM     13  C   UNL     1       6.887   4.814  14.057  0.00  0.00    +0.000 C 
ATOM     14  O   UNL     1       7.554   5.696  14.979  0.00  0.00    +0.000 OA
ENDBRANCH   5   6
ENDBRANCH   4   5
ENDBRANCH   1   4
BRANCH   1  15
ATOM     15  C   UNL     1       2.652   3.265  20.110  0.00  0.00    +0.000 C 
BRANCH  15  16
ATOM     16  N   UNL     1       1.503   3.935  19.465  0.00  0.00    +0.000 NA
ATOM     17  C   UNL     1       0.784   4.871  20.354  0.00  0.00    +0.000 C 
ATOM     18  C   UNL     1       1.645   6.058  20.824  0.00  0.00    +0.000 C 
ATOM     19  N   UNL     1       2.183   6.803  19.677  0.00  0.00    +0.000 N 
ATOM     20  C   UNL     1       2.786   6.007  18.591  0.00  0.00    +0.000 C 
ATOM     21  C   UNL     1       1.965   4.719  18.283  0.00  0.00    +0.000 C 
BRANCH  19  22
ATOM     22  C   UNL     1       1.788   8.108  19.433  0.00  0.00    +0.000 A 
ATOM     23  C   UNL     1       2.020   8.706  18.185  0.00  0.00    +0.000 A 
ATOM     24  C   UNL     1       1.695  10.045  17.942  0.00  0.00    +0.000 A 
ATOM     25  C   UNL     1       1.113  10.813  18.945  0.00  0.00    +0.000 A 
ATOM     26  C   UNL     1       0.849  10.239  20.182  0.00  0.00    +0.000 A 
ATOM     27  C   UNL     1       1.184   8.903  20.418  0.00  0.00    +0.000 A 
ENDBRANCH  19  22
ENDBRANCH  15  16
ENDBRANCH   1  15
TORSDOF 7
ENDMDL
MODEL 4
REMARK VINA RESULT:      -7.6      4.806      7.055
REMARK  Name = 
REMARK  7 active torsions:
REMARK  status: ('A' for Active; 'I' for Inactive)
REMARK    1  A    between atoms: O_1  and  C_2
REMARK    2  A    between atoms: C_2  and  C_3
REMARK    3  A    between atoms: C_2  and  C_14
REMARK    4  A    between atoms: C_3  and  O_4
REMARK    5  A    between atoms: O_4  and  C_5
REMARK    6  A    between atoms: C_14  and  N_15
REMARK    7  A    between atoms: N_18  and  C_19
REMARK                            x       y       z     vdW  Elec       q    Type
REMARK                         _______ _______ _______ _____ _____    ______ ____
ROOT
ATOM      1  C   UNL     1       7.556   7.332  18.062  0.00  0.00    +0.000 C 
ENDROOT
BRANCH   1   2
ATOM      2  O   UNL     1       8.301   6.550  18.997  0.00  0.00    +0.000 OA
ATOM      3  H   UNL     1       8.605   7.164  19.689  0.00  0.00    +0.000 HD
ENDBRANCH   1   2
BRANCH   1   4
ATOM      4  C   UNL     1       8.381   8.556  17.621  0.00  0.00    +0.000 C 
BRANCH   4   5
ATOM      5  O   UNL     1       7.940   9.768  18.253  0.00  0.00    +0.000 OA
BRANCH   5   6
ATOM      6  C   UNL     1       8.980  10.556  18.703  0.00  0.00    +0.000 A 
ATOM      7  C   UNL     1       9.353  10.666  20.061  0.00  0.00    +0.000 A 
ATOM      8  C   UNL     1      10.394  11.508  20.458  0.00  0.00    +0.000 A 
ATOM      9  C   UNL     1      11.049  12.217  19.480  0.00  0.00    +0.000 A 
ATOM     10  C   UNL     1      10.718  12.093  18.149  0.00  0.00    +0.000 A 
ATOM     11  C   UNL     1       9.698  11.261  17.729  0.00  0.00    +0.000 A 
ATOM     12  O   UNL     1      11.498  12.877  17.356  0.00  0.00    +0.000 OA
ATOM     13  C   UNL     1      12.330  13.528  18.343  0.00  0.00    +0.000 C 
ATOM     14  O   UNL     1      12.070  13.088  19.689  0.00  0.00    +0.000 OA
ENDBRANCH   5   6
ENDBRANCH   4   5
ENDBRANCH   1   4
BRANCH   1  15
ATOM     15  C   UNL     1       7.236   6.508  16.782  0.00  0.00    +0.000 C 
BRANCH  15  16
ATOM     16  N   UNL     1       5.851   6.494  16.265  0.00  0.00    +0.000 NA
ATOM     17  C   UNL     1       5.409   5.170  15.783  0.00  0.00    +0.000 C 
ATOM     18  C   UNL     1       5.367   4.095  16.885  0.00  0.00    +0.000 C 
ATOM     19  N   UNL     1       4.500   4.516  17.995  0.00  0.00    +0.000 N 
ATOM     20  C   UNL     1       4.679   5.893  18.494  0.00  0.00    +0.000 C 
ATOM     21  C   UNL     1       4.901   6.911  17.335  0.00  0.00    +0.000 C 
BRANCH  19  22
ATOM     22  C   UNL     1       3.329   3.832  18.276  0.00  0.00    +0.000 A 
ATOM     23  C   UNL     1       3.360   2.612  18.968  0.00  0.00    +0.000 A 
ATOM     24  C   UNL     1       2.195   1.870  19.198  0.00  0.00    +0.000 A 
ATOM     25  C   UNL     1       0.968   2.344  18.749  0.00  0.00    +0.000 A 
ATOM     26  C   UNL     1       0.905   3.562  18.083  0.00  0.00    +0.000 A 
ATOM     27  C   UNL     1       2.074   4.293  17.852  0.00  0.00    +0.000 A 
ENDBRANCH  19  22
ENDBRANCH  15  16
ENDBRANCH   1  15
TORSDOF 7
ENDMDL
MODEL 5
REMARK VINA RESULT:      -7.4      4.141      7.211
REMARK  Name = 
REMARK  7 active torsions:
REMARK  status: ('A' for Active; 'I' for Inactive)
REMARK    1  A    between atoms: O_1  and  C_2
REMARK    2  A    between atoms: C_2  and  C_3
REMARK    3  A    between atoms: C_2  and  C_14
REMARK    4  A    between atoms: C_3  and  O_4
REMARK    5  A    between atoms: O_4  and  C_5
REMARK    6  A    between atoms: C_14  and  N_15
REMARK    7  A    between atoms: N_18  and  C_19
REMARK                            x       y       z     vdW  Elec       q    Type
REMARK                         _______ _______ _______ _____ _____    ______ ____
ROOT
ATOM      1  C   UNL     1       1.272   9.176  18.051  0.00  0.00    +0.000 C 
ENDROOT
BRANCH   1   2
ATOM      2  O   UNL     1       2.062  10.157  17.378  0.00  0.00    +0.000 OA
ATOM      3  H   UNL     1       2.018   9.943  16.429  0.00  0.00    +0.000 HD
ENDBRANCH   1   2
BRANCH   1   4
ATOM      4  C   UNL     1       2.185   8.185  18.798  0.00  0.00    +0.000 C 
BRANCH   4   5
ATOM      5  O   UNL     1       2.626   7.108  17.955  0.00  0.00    +0.000 OA
BRANCH   5   6
ATOM      6  C   UNL     1       2.316   5.862  18.460  0.00  0.00    +0.000 A 
ATOM      7  C   UNL     1       1.845   4.789  17.671  0.00  0.00    +0.000 A 
ATOM      8  C   UNL     1       1.515   3.560  18.246  0.00  0.00    +0.000 A 
ATOM      9  C   UNL     1       1.673   3.428  19.605  0.00  0.00    +0.000 A 
ATOM     10  C   UNL     1       2.162   4.455  20.381  0.00  0.00    +0.000 A 
ATOM     11  C   UNL     1       2.505   5.678  19.835  0.00  0.00    +0.000 A 
ATOM     12  O   UNL     1       2.245   4.106  21.693  0.00  0.00    +0.000 OA
ATOM     13  C   UNL     1       1.722   2.759  21.655  0.00  0.00    +0.000 C 
ATOM     14  O   UNL     1       1.388   2.314  20.326  0.00  0.00    +0.000 OA
ENDBRANCH   5   6
ENDBRANCH   4   5
ENDBRANCH   1   4
BRANCH   1  15
ATOM     15  C   UNL     1       0.349   9.840  19.113  0.00  0.00    +0.000 C 
BRANCH  15  16
ATOM     16  N   UNL     1       0.866  10.980  19.899  0.00  0.00    +0.000 NA
ATOM     17  C   UNL     1       0.093  12.226  19.719  0.00  0.00    +0.000 C 
ATOM     18  C   UNL     1      -1.366  12.121  20.200  0.00  0.00    +0.000 C 
ATOM     19  N   UNL     1      -1.426  11.719  21.612  0.00  0.00    +0.000 N 
ATOM     20  C   UNL     1      -0.569  10.589  22.019  0.00  0.00    +0.000 C 
ATOM     21  C   UNL     1       0.839  10.653  21.354  0.00  0.00    +0.000 C 
BRANCH  19  22
ATOM     22  C   UNL     1      -1.922  12.584  22.573  0.00  0.00    +0.000 A 
ATOM     23  C   UNL     1      -1.157  13.673  23.020  0.00  0.00    +0.000 A 
ATOM     24  C   UNL     1      -1.610  14.515  24.043  0.00  0.00    +0.000 A 
ATOM     25  C   UNL     1      -2.850  14.293  24.631  0.00  0.00    +0.000 A 
ATOM     26  C   UNL     1      -3.638  13.236  24.190  0.00  0.00    +0.000 A 
ATOM     27  C   UNL     1      -3.175  12.396  23.174  0.00  0.00    +0.000 A 
ENDBRANCH  19  22
ENDBRANCH  15  16
ENDBRANCH   1  15
TORSDOF 7
ENDMDL
MODEL 6
REMARK VINA RESULT:      -7.4      4.931      7.120
REMARK  Name = 
REMARK  7 active torsions:
REMARK  status: ('A' for Active; 'I' for Inactive)
REMARK    1  A    between atoms: O_1  and  C_2
REMARK    2  A    between atoms: C_2  and  C_3
REMARK    3  A    between atoms: C_2  and  C_14
REMARK    4  A    between atoms: C_3  and  O_4
REMARK    5  A    between atoms: O_4  and  C_5
REMARK    6  A    between atoms: C_14  and  N_15
REMARK    7  A    between atoms: N_18  and  C_19
REMARK                            x       y       z     vdW  Elec       q    Type
REMARK                         _______ _______ _______ _____ _____    ______ ____
ROOT
ATOM      1  C   UNL     1       7.582   7.423  17.534  0.00  0.00    +0.000 C 
ENDROOT
BRANCH   1   2
ATOM      2  O   UNL     1       8.114   6.862  16.334  0.00  0.00    +0.000 OA
ATOM      3  H   UNL     1       7.889   7.482  15.617  0.00  0.00    +0.000 HD
ENDBRANCH   1   2
BRANCH   1   4
ATOM      4  C   UNL     1       8.034   8.889  17.677  0.00  0.00    +0.000 C 
BRANCH   4   5
ATOM      5  O   UNL     1       8.887   9.088  18.816  0.00  0.00    +0.000 OA
BRANCH   5   6
ATOM      6  C   UNL     1       9.235  10.409  19.009  0.00  0.00    +0.000 A 
ATOM      7  C   UNL     1       9.533  11.305  17.959  0.00  0.00    +0.000 A 
ATOM      8  C   UNL     1       9.913  12.624  18.221  0.00  0.00    +0.000 A 
ATOM      9  C   UNL     1       9.978  13.021  19.535  0.00  0.00    +0.000 A 
ATOM     10  C   UNL     1       9.658  12.166  20.566  0.00  0.00    +0.000 A 
ATOM     11  C   UNL     1       9.271  10.860  20.335  0.00  0.00    +0.000 A 
ATOM     12  O   UNL     1       9.783  12.768  21.781  0.00  0.00    +0.000 OA
ATOM     13  C   UNL     1      10.247  14.080  21.394  0.00  0.00    +0.000 C 
ATOM     14  O   UNL     1      10.342  14.255  19.967  0.00  0.00    +0.000 OA
ENDBRANCH   5   6
ENDBRANCH   4   5
ENDBRANCH   1   4
BRANCH   1  15
ATOM     15  C   UNL     1       6.026   7.423  17.503  0.00  0.00    +0.000 C 
BRANCH  15  16
ATOM     16  N   UNL     1       5.318   6.214  17.033  0.00  0.00    +0.000 NA
ATOM     17  C   UNL     1       5.596   5.009  17.842  0.00  0.00    +0.000 C 
ATOM     18  C   UNL     1       5.125   5.127  19.304  0.00  0.00    +0.000 C 
ATOM     19  N   UNL     1       3.688   5.429  19.369  0.00  0.00    +0.000 N 
ATOM     20  C   UNL     1       3.192   6.498  18.482  0.00  0.00    +0.000 C 
ATOM     21  C   UNL     1       3.844   6.436  17.069  0.00  0.00    +0.000 C 
BRANCH  19  22
ATOM     22  C   UNL     1       2.797   4.513  19.904  0.00  0.00    +0.000 A 
ATOM     23  C   UNL     1       1.654   4.123  19.190  0.00  0.00    +0.000 A 
ATOM     24  C   UNL     1       0.705   3.256  19.743  0.00  0.00    +0.000 A 
ATOM     25  C   UNL     1       0.889   2.747  21.024  0.00  0.00    +0.000 A 
ATOM     26  C   UNL     1       2.025   3.097  21.744  0.00  0.00    +0.000 A 
ATOM     27  C   UNL     1       2.964   3.969  21.186  0.00  0.00    +0.000 A 
ENDBRANCH  19  22
ENDBRANCH  15  16
ENDBRANCH   1  15
TORSDOF 7
ENDMDL
MODEL 7
REMARK VINA RESULT:      -7.3      4.723      6.845
REMARK  Name = 
REMARK  7 active torsions:
REMARK  status: ('A' for Active; 'I' for Inactive)
REMARK    1  A    between atoms: O_1  and  C_2
REMARK    2  A    between atoms: C_2  and  C_3
REMARK    3  A    between atoms: C_2  and  C_14
REMARK    4  A    between atoms: C_3  and  O_4
REMARK    5  A    between atoms: O_4  and  C_5
REMARK    6  A    between atoms: C_14  and  N_15
REMARK    7  A    between atoms: N_18  and  C_19
REMARK                            x       y       z     vdW  Elec       q    Type
REMARK                         _______ _______ _______ _____ _____    ______ ____
ROOT
ATOM      1  C   UNL     1       7.219   6.969  18.185  0.00  0.00    +0.000 C 
ENDROOT
BRANCH   1   2
ATOM      2  O   UNL     1       8.044   6.200  19.062  0.00  0.00    +0.000 OA
ATOM      3  H   UNL     1       8.966   6.397  18.817  0.00  0.00    +0.000 HD
ENDBRANCH   1   2
BRANCH   1   4
ATOM      4  C   UNL     1       7.945   8.266  17.780  0.00  0.00    +0.000 C 
BRANCH   4   5
ATOM      5  O   UNL     1       8.898   8.688  18.768  0.00  0.00    +0.000 OA
BRANCH   5   6
ATOM      6  C   UNL     1       9.025  10.061  18.848  0.00  0.00    +0.000 A 
ATOM      7  C   UNL     1       8.693  10.943  17.796  0.00  0.00    +0.000 A 
ATOM      8  C   UNL     1       8.878  12.321  17.925  0.00  0.00    +0.000 A 
ATOM      9  C   UNL     1       9.383  12.789  19.114  0.00  0.00    +0.000 A 
ATOM     10  C   UNL     1       9.680  11.943  20.159  0.00  0.00    +0.000 A 
ATOM     11  C   UNL     1       9.499  10.576  20.060  0.00  0.00    +0.000 A 
ATOM     12  O   UNL     1      10.158  12.618  21.239  0.00  0.00    +0.000 OA
ATOM     13  C   UNL     1      10.159  13.974  20.740  0.00  0.00    +0.000 C 
ATOM     14  O   UNL     1       9.637  14.091  19.403  0.00  0.00    +0.000 OA
ENDBRANCH   5   6
ENDBRANCH   4   5
ENDBRANCH   1   4
BRANCH   1  15
ATOM     15  C   UNL     1       6.919   6.182  16.876  0.00  0.00    +0.000 C 
BRANCH  15  16
ATOM     16  N   UNL     1       5.514   5.889  16.522  0.00  0.00    +0.000 NA
ATOM     17  C   UNL     1       5.159   4.460  16.630  0.00  0.00    +0.000 C 
ATOM     18  C   UNL     1       5.267   3.905  18.063  0.00  0.00    +0.000 C 
ATOM     19  N   UNL     1       4.429   4.680  18.990  0.00  0.00    +0.000 N 
ATOM     20  C   UNL     1       4.519   6.149  18.898  0.00  0.00    +0.000 C 
ATOM     21  C   UNL     1       4.592   6.640  17.421  0.00  0.00    +0.000 C 
BRANCH  19  22
ATOM     22  C   UNL     1       3.337   4.097  19.610  0.00  0.00    +0.000 A 
ATOM     23  C   UNL     1       2.051   4.637  19.453  0.00  0.00    +0.000 A 
ATOM     24  C   UNL     1       0.946   4.107  20.129  0.00  0.00    +0.000 A 
ATOM     25  C   UNL     1       1.104   3.011  20.970  0.00  0.00    +0.000 A 
ATOM     26  C   UNL     1       2.362   2.442  21.125  0.00  0.00    +0.000 A 
ATOM     27  C   UNL     1       3.461   2.982  20.451  0.00  0.00    +0.000 A 
ENDBRANCH  19  22
ENDBRANCH  15  16
ENDBRANCH   1  15
TORSDOF 7
ENDMDL
MODEL 8
REMARK VINA RESULT:      -7.3      1.443      2.150
REMARK  Name = 
REMARK  7 active torsions:
REMARK  status: ('A' for Active; 'I' for Inactive)
REMARK    1  A    between atoms: O_1  and  C_2
REMARK    2  A    between atoms: C_2  and  C_3
REMARK    3  A    between atoms: C_2  and  C_14
REMARK    4  A    between atoms: C_3  and  O_4
REMARK    5  A    between atoms: O_4  and  C_5
REMARK    6  A    between atoms: C_14  and  N_15
REMARK    7  A    between atoms: N_18  and  C_19
REMARK                            x       y       z     vdW  Elec       q    Type
REMARK                         _______ _______ _______ _____ _____    ______ ____
ROOT
ATOM      1  C   UNL     1       3.037   1.931  19.127  0.00  0.00    +0.000 C 
ENDROOT
BRANCH   1   2
ATOM      2  O   UNL     1       1.890   1.449  18.425  0.00  0.00    +0.000 OA
ATOM      3  H   UNL     1       1.306   2.218  18.291  0.00  0.00    +0.000 HD
ENDBRANCH   1   2
BRANCH   1   4
ATOM      4  C   UNL     1       4.258   1.959  18.188  0.00  0.00    +0.000 C 
BRANCH   4   5
ATOM      5  O   UNL     1       4.002   2.700  16.984  0.00  0.00    +0.000 OA
BRANCH   5   6
ATOM      6  C   UNL     1       4.907   3.720  16.771  0.00  0.00    +0.000 A 
ATOM      7  C   UNL     1       5.363   4.113  15.493  0.00  0.00    +0.000 A 
ATOM      8  C   UNL     1       6.308   5.131  15.345  0.00  0.00    +0.000 A 
ATOM      9  C   UNL     1       6.772   5.742  16.485  0.00  0.00    +0.000 A 
ATOM     10  C   UNL     1       6.311   5.391  17.734  0.00  0.00    +0.000 A 
ATOM     11  C   UNL     1       5.370   4.394  17.908  0.00  0.00    +0.000 A 
ATOM     12  O   UNL     1       6.896   6.128  18.718  0.00  0.00    +0.000 OA
ATOM     13  C   UNL     1       7.796   6.954  17.946  0.00  0.00    +0.000 C 
ATOM     14  O   UNL     1       7.697   6.735  16.526  0.00  0.00    +0.000 OA
ENDBRANCH   5   6
ENDBRANCH   4   5
ENDBRANCH   1   4
BRANCH   1  15
ATOM     15  C   UNL     1       2.809   3.387  19.628  0.00  0.00    +0.000 C 
BRANCH  15  16
ATOM     16  N   UNL     1       1.529   4.059  19.318  0.00  0.00    +0.000 NA
ATOM     17  C   UNL     1       0.982   4.843  20.444  0.00  0.00    +0.000 C 
ATOM     18  C   UNL     1       1.883   6.016  20.873  0.00  0.00    +0.000 C 
ATOM     19  N   UNL     1       2.144   6.918  19.742  0.00  0.00    +0.000 N 
ATOM     20  C   UNL     1       2.532   6.289  18.466  0.00  0.00    +0.000 C 
ATOM     21  C   UNL     1       1.708   4.999  18.174  0.00  0.00    +0.000 C 
BRANCH  19  22
ATOM     22  C   UNL     1       1.664   8.217  19.748  0.00  0.00    +0.000 A 
ATOM     23  C   UNL     1       1.212   8.809  20.938  0.00  0.00    +0.000 A 
ATOM     24  C   UNL     1       0.656  10.093  20.951  0.00  0.00    +0.000 A 
ATOM     25  C   UNL     1       0.554  10.821  19.771  0.00  0.00    +0.000 A 
ATOM     26  C   UNL     1       1.017  10.269  18.583  0.00  0.00    +0.000 A 
ATOM     27  C   UNL     1       1.564   8.983  18.577  0.00  0.00    +0.000 A 
ENDBRANCH  19  22
ENDBRANCH  15  16
ENDBRANCH   1  15
TORSDOF 7
ENDMDL
MODEL 9
REMARK VINA RESULT:      -7.3      5.064      7.284
REMARK  Name = 
REMARK  7 active torsions:
REMARK  status: ('A' for Active; 'I' for Inactive)
REMARK    1  A    between atoms: O_1  and  C_2
REMARK    2  A    between atoms: C_2  and  C_3
REMARK    3  A    between atoms: C_2  and  C_14
REMARK    4  A    between atoms: C_3  and  O_4
REMARK    5  A    between atoms: O_4  and  C_5
REMARK    6  A    between atoms: C_14  and  N_15
REMARK    7  A    between atoms: N_18  and  C_19
REMARK                            x       y       z     vdW  Elec       q    Type
REMARK                         _______ _______ _______ _____ _____    ______ ____
ROOT
ATOM      1  C   UNL     1       7.451   7.368  18.101  0.00  0.00    +0.000 C 
ENDROOT
BRANCH   1   2
ATOM      2  O   UNL     1       8.262   6.554  18.950  0.00  0.00    +0.000 OA
ATOM      3  H   UNL     1       8.955   7.137  19.309  0.00  0.00    +0.000 HD
ENDBRANCH   1   2
BRANCH   1   4
ATOM      4  C   UNL     1       8.096   8.756  17.926  0.00  0.00    +0.000 C 
BRANCH   4   5
ATOM      5  O   UNL     1       9.019   9.065  18.983  0.00  0.00    +0.000 OA
BRANCH   5   6
ATOM      6  C   UNL     1       9.316  10.410  19.068  0.00  0.00    +0.000 A 
ATOM      7  C   UNL     1       9.417  11.265  17.949  0.00  0.00    +0.000 A 
ATOM      8  C   UNL     1       9.755  12.612  18.097  0.00  0.00    +0.000 A 
ATOM      9  C   UNL     1       9.977  13.078  19.371  0.00  0.00    +0.000 A 
ATOM     10  C   UNL     1       9.850  12.263  20.473  0.00  0.00    +0.000 A 
ATOM     11  C   UNL     1       9.508  10.929  20.355  0.00  0.00    +0.000 A 
ATOM     12  O   UNL     1      10.106  12.930  21.631  0.00  0.00    +0.000 OA
ATOM     13  C   UNL     1      10.439  14.243  21.126  0.00  0.00    +0.000 C 
ATOM     14  O   UNL     1      10.327  14.349  19.694  0.00  0.00    +0.000 OA
ENDBRANCH   5   6
ENDBRANCH   4   5
ENDBRANCH   1   4
BRANCH   1  15
ATOM     15  C   UNL     1       7.328   6.737  16.683  0.00  0.00    +0.000 C 
BRANCH  15  16
ATOM     16  N   UNL     1       5.982   6.490  16.123  0.00  0.00    +0.000 NA
ATOM     17  C   UNL     1       5.710   5.067  15.834  0.00  0.00    +0.000 C 
ATOM     18  C   UNL     1       5.722   4.172  17.087  0.00  0.00    +0.000 C 
ATOM     19  N   UNL     1       4.756   4.652  18.085  0.00  0.00    +0.000 N 
ATOM     20  C   UNL     1       4.761   6.099  18.372  0.00  0.00    +0.000 C 
ATOM     21  C   UNL     1       4.936   6.952  17.080  0.00  0.00    +0.000 C 
BRANCH  19  22
ATOM     22  C   UNL     1       3.651   3.889  18.423  0.00  0.00    +0.000 A 
ATOM     23  C   UNL     1       3.048   4.021  19.684  0.00  0.00    +0.000 A 
ATOM     24  C   UNL     1       1.977   3.208  20.072  0.00  0.00    +0.000 A 
ATOM     25  C   UNL     1       1.474   2.253  19.196  0.00  0.00    +0.000 A 
ATOM     26  C   UNL     1       2.036   2.119  17.931  0.00  0.00    +0.000 A 
ATOM     27  C   UNL     1       3.110   2.930  17.555  0.00  0.00    +0.000 A 
ENDBRANCH  19  22
ENDBRANCH  15  16
ENDBRANCH   1  15
TORSDOF 7
ENDMDL
