MODEL 1
REMARK VINA RESULT:      -8.3      0.000      0.000
REMARK  Name = 
REMARK  8 active torsions:
REMARK  status: ('A' for Active; 'I' for Inactive)
REMARK    1  A    between atoms: C_1  and  C_2
REMARK    2  A    between atoms: N_4  and  C_5
REMARK    3  A    between atoms: C_5  and  C_6
REMARK    4  A    between atoms: C_14  and  C_15
REMARK    5  A    between atoms: C_16  and  N_17
REMARK    6  A    between atoms: C_18  and  C_20
REMARK    7  A    between atoms: C_26  and  C_27
REMARK    8  A    between atoms: C_27  and  O_29
REMARK                            x       y       z     vdW  Elec       q    Type
REMARK                         _______ _______ _______ _____ _____    ______ ____
ROOT
ATOM      1  C   UNL     1       1.041   8.775  22.570  0.00  0.00    +0.000 C 
ATOM      2  C   UNL     1       1.227   9.036  21.120  0.00  0.00    +0.000 A 
ATOM      3  N   UNL     1       0.652  10.117  20.572  0.00  0.00    +0.000 NA
ATOM      4  N   UNL     1       0.917  10.017  19.252  0.00  0.00    +0.000 N 
ATOM      5  C   UNL     1       1.626   8.881  18.935  0.00  0.00    +0.000 A 
ATOM      6  C   UNL     1       2.094   8.547  17.566  0.00  0.00    +0.000 C 
ATOM      7  C   UNL     1       1.826   8.218  20.130  0.00  0.00    +0.000 A 
ENDROOT
BRANCH   7   8
ATOM      8  N   UNL     1       2.422   6.969  20.195  0.00  0.00    +0.000 N 
ATOM      9  C   UNL     1       1.756   5.791  20.484  0.00  0.00    +0.000 C 
ATOM     10  O   UNL     1       0.560   5.690  20.731  0.00  0.00    +0.000 OA
ATOM     11  H   UNL     1       3.418   7.002  20.362  0.00  0.00    +0.000 HD
BRANCH   9  12
ATOM     12  C   UNL     1       2.684   4.578  20.442  0.00  0.00    +0.000 C 
ATOM     13  C   UNL     1       1.992   3.234  20.683  0.00  0.00    +0.000 C 
ATOM     14  C   UNL     1       0.879   2.943  19.669  0.00  0.00    +0.000 C 
ATOM     15  C   UNL     1       1.666   2.550  18.421  0.00  0.00    +0.000 C 
ATOM     16  C   UNL     1       3.098   2.799  18.865  0.00  0.00    +0.000 C 
ATOM     17  O   UNL     1       3.036   2.324  20.241  0.00  0.00    +0.000 OA
ATOM     18  C   UNL     1       3.392   4.289  19.102  0.00  0.00    +0.000 C 
BRANCH  18  19
ATOM     19  C   UNL     1       4.884   4.478  19.251  0.00  0.00    +0.000 C 
ATOM     20  O   UNL     1       5.396   5.544  19.564  0.00  0.00    +0.000 OA
BRANCH  19  21
ATOM     21  O   UNL     1       5.626   3.362  19.061  0.00  0.00    +0.000 OA
ATOM     22  H   UNL     1       5.851   2.881  19.891  0.00  0.00    +0.000 HD
ENDBRANCH  19  21
ENDBRANCH  18  19
ENDBRANCH   9  12
ENDBRANCH   7   8
BRANCH   4  23
ATOM     23  C   UNL     1       0.279  10.963  18.332  0.00  0.00    +0.000 C 
BRANCH  23  24
ATOM     24  C   UNL     1      -1.235  10.910  18.322  0.00  0.00    +0.000 A 
ATOM     25  C   UNL     1      -1.889   9.963  17.510  0.00  0.00    +0.000 A 
ATOM     26  C   UNL     1      -3.276   9.986  17.342  0.00  0.00    +0.000 A 
ATOM     27  C   UNL     1      -4.032  10.958  17.984  0.00  0.00    +0.000 A 
ATOM     28 CL   UNL     1      -5.732  11.029  17.726  0.00  0.00    +0.000 Cl
ATOM     29  C   UNL     1      -3.421  11.887  18.818  0.00  0.00    +0.000 A 
ATOM     30  C   UNL     1      -2.029  11.864  18.986  0.00  0.00    +0.000 A 
ATOM     31 CL   UNL     1      -1.352  13.077  20.014  0.00  0.00    +0.000 Cl
ENDBRANCH  23  24
ENDBRANCH   4  23
TORSDOF 6
ENDMDL
MODEL 2
REMARK VINA RESULT:      -7.9      1.169      1.923
REMARK  Name = 
REMARK  8 active torsions:
REMARK  status: ('A' for Active; 'I' for Inactive)
REMARK    1  A    between atoms: C_1  and  C_2
REMARK    2  A    between atoms: N_4  and  C_5
REMARK    3  A    between atoms: C_5  and  C_6
REMARK    4  A    between atoms: C_14  and  C_15
REMARK    5  A    between atoms: C_16  and  N_17
REMARK    6  A    between atoms: C_18  and  C_20
REMARK    7  A    between atoms: C_26  and  C_27
REMARK    8  A    between atoms: C_27  and  O_29
REMARK                            x       y       z     vdW  Elec       q    Type
REMARK                         _______ _______ _______ _____ _____    ______ ____
ROOT
ATOM      1  C   UNL     1       3.326   8.544  17.299  0.00  0.00    +0.000 C 
ATOM      2  C   UNL     1       2.285   8.860  18.310  0.00  0.00    +0.000 A 
ATOM      3  N   UNL     1       1.677  10.055  18.270  0.00  0.00    +0.000 NA
ATOM      4  N   UNL     1       0.878  10.074  19.357  0.00  0.00    +0.000 N 
ATOM      5  C   UNL     1       0.979   8.927  20.112  0.00  0.00    +0.000 A 
ATOM      6  C   UNL     1       0.176   8.660  21.332  0.00  0.00    +0.000 C 
ATOM      7  C   UNL     1       1.900   8.130  19.462  0.00  0.00    +0.000 A 
ENDROOT
BRANCH   7   8
ATOM      8  N   UNL     1       2.340   6.924  19.985  0.00  0.00    +0.000 N 
ATOM      9  C   UNL     1       2.383   5.730  19.287  0.00  0.00    +0.000 C 
ATOM     10  O   UNL     1       2.031   5.571  18.124  0.00  0.00    +0.000 OA
ATOM     11  H   UNL     1       2.304   6.881  20.993  0.00  0.00    +0.000 HD
BRANCH   9  12
ATOM     12  C   UNL     1       2.955   4.590  20.128  0.00  0.00    +0.000 C 
ATOM     13  C   UNL     1       1.983   4.006  21.157  0.00  0.00    +0.000 C 
ATOM     14  C   UNL     1       0.701   3.454  20.523  0.00  0.00    +0.000 C 
ATOM     15  C   UNL     1       1.176   2.137  19.914  0.00  0.00    +0.000 C 
ATOM     16  C   UNL     1       2.672   2.194  20.175  0.00  0.00    +0.000 C 
ATOM     17  O   UNL     1       2.686   2.782  21.508  0.00  0.00    +0.000 OA
ATOM     18  C   UNL     1       3.368   3.308  19.377  0.00  0.00    +0.000 C 
BRANCH  18  19
ATOM     19  C   UNL     1       4.864   3.114  19.463  0.00  0.00    +0.000 C 
ATOM     20  O   UNL     1       5.672   3.960  19.103  0.00  0.00    +0.000 OA
BRANCH  19  21
ATOM     21  O   UNL     1       5.260   1.946  20.019  0.00  0.00    +0.000 OA
ATOM     22  H   UNL     1       4.763   1.158  19.700  0.00  0.00    +0.000 HD
ENDBRANCH  19  21
ENDBRANCH  18  19
ENDBRANCH   9  12
ENDBRANCH   7   8
BRANCH   4  23
ATOM     23  C   UNL     1       0.191  11.319  19.706  0.00  0.00    +0.000 C 
BRANCH  23  24
ATOM     24  C   UNL     1      -1.282  11.350  19.348  0.00  0.00    +0.000 A 
ATOM     25  C   UNL     1      -1.741  10.603  18.245  0.00  0.00    +0.000 A 
ATOM     26  C   UNL     1      -3.052  10.729  17.779  0.00  0.00    +0.000 A 
ATOM     27  C   UNL     1      -3.926  11.607  18.408  0.00  0.00    +0.000 A 
ATOM     28 CL   UNL     1      -5.520  11.813  17.796  0.00  0.00    +0.000 Cl
ATOM     29  C   UNL     1      -3.513  12.335  19.518  0.00  0.00    +0.000 A 
ATOM     30  C   UNL     1      -2.198  12.207  19.985  0.00  0.00    +0.000 A 
ATOM     31 CL   UNL     1      -1.762  13.175  21.350  0.00  0.00    +0.000 Cl
ENDBRANCH  23  24
ENDBRANCH   4  23
TORSDOF 6
ENDMDL
MODEL 3
REMARK VINA RESULT:      -7.6      4.561      8.393
REMARK  Name = 
REMARK  8 active torsions:
REMARK  status: ('A' for Active; 'I' for Inactive)
REMARK    1  A    between atoms: C_1  and  C_2
REMARK    2  A    between atoms: N_4  and  C_5
REMARK    3  A    between atoms: C_5  and  C_6
REMARK    4  A    between atoms: C_14  and  C_15
REMARK    5  A    between atoms: C_16  and  N_17
REMARK    6  A    between atoms: C_18  and  C_20
REMARK    7  A    between atoms: C_26  and  C_27
REMARK    8  A    between atoms: C_27  and  O_29
REMARK                            x       y       z     vdW  Elec       q    Type
REMARK                         _______ _______ _______ _____ _____    ______ ____
ROOT
ATOM      1  C   UNL     1       0.844   4.380  20.414  0.00  0.00    +0.000 C 
ATOM      2  C   UNL     1       2.053   4.758  19.639  0.00  0.00    +0.000 A 
ATOM      3  N   UNL     1       2.841   3.792  19.145  0.00  0.00    +0.000 NA
ATOM      4  N   UNL     1       3.886   4.445  18.595  0.00  0.00    +0.000 N 
ATOM      5  C   UNL     1       3.802   5.810  18.749  0.00  0.00    +0.000 A 
ATOM      6  C   UNL     1       4.789   6.772  18.198  0.00  0.00    +0.000 C 
ATOM      7  C   UNL     1       2.627   6.038  19.439  0.00  0.00    +0.000 A 
ENDROOT
BRANCH   7   8
ATOM      8  N   UNL     1       2.252   7.300  19.870  0.00  0.00    +0.000 N 
ATOM      9  C   UNL     1       1.801   8.314  19.041  0.00  0.00    +0.000 C 
ATOM     10  O   UNL     1       1.684   8.241  17.824  0.00  0.00    +0.000 OA
ATOM     11  H   UNL     1       2.645   7.560  20.763  0.00  0.00    +0.000 HD
BRANCH   9  12
ATOM     12  C   UNL     1       1.428   9.573  19.822  0.00  0.00    +0.000 C 
ATOM     13  C   UNL     1       0.930  10.736  18.960  0.00  0.00    +0.000 C 
ATOM     14  C   UNL     1      -0.309  10.378  18.130  0.00  0.00    +0.000 C 
ATOM     15  C   UNL     1      -1.422  10.400  19.174  0.00  0.00    +0.000 C 
ATOM     16  C   UNL     1      -0.643  10.638  20.456  0.00  0.00    +0.000 C 
ATOM     17  O   UNL     1       0.356  11.590  19.987  0.00  0.00    +0.000 OA
ATOM     18  C   UNL     1       0.263   9.452  20.825  0.00  0.00    +0.000 C 
BRANCH  18  19
ATOM     19  C   UNL     1       0.769   9.639  22.236  0.00  0.00    +0.000 C 
ATOM     20  O   UNL     1       0.130  10.215  23.107  0.00  0.00    +0.000 OA
BRANCH  19  21
ATOM     21  O   UNL     1       1.973   9.078  22.493  0.00  0.00    +0.000 OA
ATOM     22  H   UNL     1       2.742   9.657  22.284  0.00  0.00    +0.000 HD
ENDBRANCH  19  21
ENDBRANCH  18  19
ENDBRANCH   9  12
ENDBRANCH   7   8
BRANCH   4  23
ATOM     23  C   UNL     1       5.028   3.666  18.110  0.00  0.00    +0.000 C 
BRANCH  23  24
ATOM     24  C   UNL     1       5.631   4.170  16.814  0.00  0.00    +0.000 A 
ATOM     25  C   UNL     1       4.895   4.055  15.618  0.00  0.00    +0.000 A 
ATOM     26  C   UNL     1       5.471   4.352  14.380  0.00  0.00    +0.000 A 
ATOM     27  C   UNL     1       6.795   4.768  14.319  0.00  0.00    +0.000 A 
ATOM     28 CL   UNL     1       7.527   5.070  12.791  0.00  0.00    +0.000 Cl
ATOM     29  C   UNL     1       7.539   4.921  15.483  0.00  0.00    +0.000 A 
ATOM     30  C   UNL     1       6.960   4.623  16.724  0.00  0.00    +0.000 A 
ATOM     31 CL   UNL     1       7.968   4.811  18.116  0.00  0.00    +0.000 Cl
ENDBRANCH  23  24
ENDBRANCH   4  23
TORSDOF 6
ENDMDL
MODEL 4
REMARK VINA RESULT:      -7.6      1.088      1.550
REMARK  Name = 
REMARK  8 active torsions:
REMARK  status: ('A' for Active; 'I' for Inactive)
REMARK    1  A    between atoms: C_1  and  C_2
REMARK    2  A    between atoms: N_4  and  C_5
REMARK    3  A    between atoms: C_5  and  C_6
REMARK    4  A    between atoms: C_14  and  C_15
REMARK    5  A    between atoms: C_16  and  N_17
REMARK    6  A    between atoms: C_18  and  C_20
REMARK    7  A    between atoms: C_26  and  C_27
REMARK    8  A    between atoms: C_27  and  O_29
REMARK                            x       y       z     vdW  Elec       q    Type
REMARK                         _______ _______ _______ _____ _____    ______ ____
ROOT
ATOM      1  C   UNL     1       0.732   8.910  22.558  0.00  0.00    +0.000 C 
ATOM      2  C   UNL     1       1.033   9.125  21.120  0.00  0.00    +0.000 A 
ATOM      3  N   UNL     1       0.457  10.153  20.479  0.00  0.00    +0.000 NA
ATOM      4  N   UNL     1       0.841  10.018  19.193  0.00  0.00    +0.000 N 
ATOM      5  C   UNL     1       1.629   8.909  18.986  0.00  0.00    +0.000 A 
ATOM      6  C   UNL     1       2.232   8.548  17.678  0.00  0.00    +0.000 C 
ATOM      7  C   UNL     1       1.755   8.302  20.220  0.00  0.00    +0.000 A 
ENDROOT
BRANCH   7   8
ATOM      8  N   UNL     1       2.403   7.089  20.390  0.00  0.00    +0.000 N 
ATOM      9  C   UNL     1       1.766   5.872  20.558  0.00  0.00    +0.000 C 
ATOM     10  O   UNL     1       0.553   5.700  20.593  0.00  0.00    +0.000 OA
ATOM     11  H   UNL     1       3.350   7.178  20.728  0.00  0.00    +0.000 HD
BRANCH   9  12
ATOM     12  C   UNL     1       2.757   4.715  20.679  0.00  0.00    +0.000 C 
ATOM     13  C   UNL     1       2.190   3.454  21.336  0.00  0.00    +0.000 C 
ATOM     14  C   UNL     1       0.975   2.886  20.593  0.00  0.00    +0.000 C 
ATOM     15  C   UNL     1       1.615   2.219  19.378  0.00  0.00    +0.000 C 
ATOM     16  C   UNL     1       3.073   2.612  19.538  0.00  0.00    +0.000 C 
ATOM     17  O   UNL     1       3.223   2.493  20.983  0.00  0.00    +0.000 OA
ATOM     18  C   UNL     1       3.300   4.122  19.363  0.00  0.00    +0.000 C 
BRANCH  18  19
ATOM     19  C   UNL     1       4.783   4.387  19.247  0.00  0.00    +0.000 C 
ATOM     20  O   UNL     1       5.277   5.501  19.363  0.00  0.00    +0.000 OA
BRANCH  19  21
ATOM     21  O   UNL     1       5.548   3.288  19.050  0.00  0.00    +0.000 OA
ATOM     22  H   UNL     1       5.086   2.551  18.589  0.00  0.00    +0.000 HD
ENDBRANCH  19  21
ENDBRANCH  18  19
ENDBRANCH   9  12
ENDBRANCH   7   8
BRANCH   4  23
ATOM     23  C   UNL     1       0.242  10.894  18.183  0.00  0.00    +0.000 C 
BRANCH  23  24
ATOM     24  C   UNL     1      -1.118  11.448  18.555  0.00  0.00    +0.000 A 
ATOM     25  C   UNL     1      -1.221  12.382  19.604  0.00  0.00    +0.000 A 
ATOM     26  C   UNL     1      -2.466  12.794  20.089  0.00  0.00    +0.000 A 
ATOM     27  C   UNL     1      -3.628  12.275  19.534  0.00  0.00    +0.000 A 
ATOM     28 CL   UNL     1      -5.159  12.729  20.173  0.00  0.00    +0.000 Cl
ATOM     29  C   UNL     1      -3.561  11.375  18.476  0.00  0.00    +0.000 A 
ATOM     30  C   UNL     1      -2.313  10.964  17.989  0.00  0.00    +0.000 A 
ATOM     31 CL   UNL     1      -2.324   9.817  16.695  0.00  0.00    +0.000 Cl
ENDBRANCH  23  24
ENDBRANCH   4  23
TORSDOF 6
ENDMDL
MODEL 5
REMARK VINA RESULT:      -7.5      1.606      2.387
REMARK  Name = 
REMARK  8 active torsions:
REMARK  status: ('A' for Active; 'I' for Inactive)
REMARK    1  A    between atoms: C_1  and  C_2
REMARK    2  A    between atoms: N_4  and  C_5
REMARK    3  A    between atoms: C_5  and  C_6
REMARK    4  A    between atoms: C_14  and  C_15
REMARK    5  A    between atoms: C_16  and  N_17
REMARK    6  A    between atoms: C_18  and  C_20
REMARK    7  A    between atoms: C_26  and  C_27
REMARK    8  A    between atoms: C_27  and  O_29
REMARK                            x       y       z     vdW  Elec       q    Type
REMARK                         _______ _______ _______ _____ _____    ______ ____
ROOT
ATOM      1  C   UNL     1       2.278   8.919  17.634  0.00  0.00    +0.000 C 
ATOM      2  C   UNL     1       1.615   9.223  18.928  0.00  0.00    +0.000 A 
ATOM      3  N   UNL     1       1.100  10.445  19.126  0.00  0.00    +0.000 NA
ATOM      4  N   UNL     1       0.672  10.436  20.406  0.00  0.00    +0.000 N 
ATOM      5  C   UNL     1       0.927   9.244  21.045  0.00  0.00    +0.000 A 
ATOM      6  C   UNL     1       0.518   8.943  22.440  0.00  0.00    +0.000 C 
ATOM      7  C   UNL     1       1.555   8.444  20.110  0.00  0.00    +0.000 A 
ENDROOT
BRANCH   7   8
ATOM      8  N   UNL     1       2.057   7.191  20.422  0.00  0.00    +0.000 N 
ATOM      9  C   UNL     1       2.387   6.220  19.492  0.00  0.00    +0.000 C 
ATOM     10  O   UNL     1       2.271   6.328  18.277  0.00  0.00    +0.000 OA
ATOM     11  H   UNL     1       1.849   6.892  21.364  0.00  0.00    +0.000 HD
BRANCH   9  12
ATOM     12  C   UNL     1       2.953   4.962  20.149  0.00  0.00    +0.000 C 
ATOM     13  C   UNL     1       1.972   4.220  21.060  0.00  0.00    +0.000 C 
ATOM     14  C   UNL     1       0.699   3.774  20.331  0.00  0.00    +0.000 C 
ATOM     15  C   UNL     1       1.185   2.571  19.526  0.00  0.00    +0.000 C 
ATOM     16  C   UNL     1       2.677   2.588  19.811  0.00  0.00    +0.000 C 
ATOM     17  O   UNL     1       2.674   2.957  21.221  0.00  0.00    +0.000 OA
ATOM     18  C   UNL     1       3.379   3.816  19.209  0.00  0.00    +0.000 C 
BRANCH  18  19
ATOM     19  C   UNL     1       4.875   3.613  19.281  0.00  0.00    +0.000 C 
ATOM     20  O   UNL     1       5.684   4.470  18.954  0.00  0.00    +0.000 OA
BRANCH  19  21
ATOM     21  O   UNL     1       5.268   2.420  19.785  0.00  0.00    +0.000 OA
ATOM     22  H   UNL     1       5.304   2.390  20.769  0.00  0.00    +0.000 HD
ENDBRANCH  19  21
ENDBRANCH  18  19
ENDBRANCH   9  12
ENDBRANCH   7   8
BRANCH   4  23
ATOM     23  C   UNL     1       0.202  11.690  21.001  0.00  0.00    +0.000 C 
BRANCH  23  24
ATOM     24  C   UNL     1      -1.274  11.968  20.804  0.00  0.00    +0.000 A 
ATOM     25  C   UNL     1      -1.864  11.717  19.549  0.00  0.00    +0.000 A 
ATOM     26  C   UNL     1      -3.176  12.110  19.273  0.00  0.00    +0.000 A 
ATOM     27  C   UNL     1      -3.919  12.763  20.247  0.00  0.00    +0.000 A 
ATOM     28 CL   UNL     1      -5.511  13.308  19.888  0.00  0.00    +0.000 Cl
ATOM     29  C   UNL     1      -3.377  12.998  21.506  0.00  0.00    +0.000 A 
ATOM     30  C   UNL     1      -2.062  12.602  21.783  0.00  0.00    +0.000 A 
ATOM     31 CL   UNL     1      -1.459  12.964  23.362  0.00  0.00    +0.000 Cl
ENDBRANCH  23  24
ENDBRANCH   4  23
TORSDOF 6
ENDMDL
MODEL 6
REMARK VINA RESULT:      -7.5      2.379      3.859
REMARK  Name = 
REMARK  8 active torsions:
REMARK  status: ('A' for Active; 'I' for Inactive)
REMARK    1  A    between atoms: C_1  and  C_2
REMARK    2  A    between atoms: N_4  and  C_5
REMARK    3  A    between atoms: C_5  and  C_6
REMARK    4  A    between atoms: C_14  and  C_15
REMARK    5  A    between atoms: C_16  and  N_17
REMARK    6  A    between atoms: C_18  and  C_20
REMARK    7  A    between atoms: C_26  and  C_27
REMARK    8  A    between atoms: C_27  and  O_29
REMARK                            x       y       z     vdW  Elec       q    Type
REMARK                         _______ _______ _______ _____ _____    ______ ____
ROOT
ATOM      1  C   UNL     1       2.628   8.678  17.499  0.00  0.00    +0.000 C 
ATOM      2  C   UNL     1       1.868   9.026  18.726  0.00  0.00    +0.000 A 
ATOM      3  N   UNL     1       1.351  10.257  18.847  0.00  0.00    +0.000 NA
ATOM      4  N   UNL     1       0.822  10.290  20.088  0.00  0.00    +0.000 N 
ATOM      5  C   UNL     1       1.013   9.116  20.780  0.00  0.00    +0.000 A 
ATOM      6  C   UNL     1       0.490   8.860  22.146  0.00  0.00    +0.000 C 
ATOM      7  C   UNL     1       1.705   8.283  19.922  0.00  0.00    +0.000 A 
ENDROOT
BRANCH   7   8
ATOM      8  N   UNL     1       2.168   7.036  20.310  0.00  0.00    +0.000 N 
ATOM      9  C   UNL     1       2.364   5.967  19.453  0.00  0.00    +0.000 C 
ATOM     10  O   UNL     1       2.147   5.970  18.247  0.00  0.00    +0.000 OA
ATOM     11  H   UNL     1       2.028   6.837  21.290  0.00  0.00    +0.000 HD
BRANCH   9  12
ATOM     12  C   UNL     1       2.920   4.742  20.178  0.00  0.00    +0.000 C 
ATOM     13  C   UNL     1       1.926   4.045  21.110  0.00  0.00    +0.000 C 
ATOM     14  C   UNL     1       0.662   3.564  20.387  0.00  0.00    +0.000 C 
ATOM     15  C   UNL     1       1.159   2.324  19.648  0.00  0.00    +0.000 C 
ATOM     16  C   UNL     1       2.647   2.355  19.952  0.00  0.00    +0.000 C 
ATOM     17  O   UNL     1       2.625   2.792  21.342  0.00  0.00    +0.000 OA
ATOM     18  C   UNL     1       3.358   3.552  19.300  0.00  0.00    +0.000 C 
BRANCH  18  19
ATOM     19  C   UNL     1       4.852   3.352  19.403  0.00  0.00    +0.000 C 
ATOM     20  O   UNL     1       5.667   4.201  19.067  0.00  0.00    +0.000 OA
BRANCH  19  21
ATOM     21  O   UNL     1       5.238   2.174  19.945  0.00  0.00    +0.000 OA
ATOM     22  H   UNL     1       4.494   1.617  20.273  0.00  0.00    +0.000 HD
ENDBRANCH  19  21
ENDBRANCH  18  19
ENDBRANCH   9  12
ENDBRANCH   7   8
BRANCH   4  23
ATOM     23  C   UNL     1       0.320  11.565  20.607  0.00  0.00    +0.000 C 
BRANCH  23  24
ATOM     24  C   UNL     1       1.082  12.785  20.129  0.00  0.00    +0.000 A 
ATOM     25  C   UNL     1       2.205  13.227  20.855  0.00  0.00    +0.000 A 
ATOM     26  C   UNL     1       2.837  14.435  20.550  0.00  0.00    +0.000 A 
ATOM     27  C   UNL     1       2.353  15.223  19.514  0.00  0.00    +0.000 A 
ATOM     28 CL   UNL     1       3.087  16.742  19.179  0.00  0.00    +0.000 Cl
ATOM     29  C   UNL     1       1.265  14.800  18.757  0.00  0.00    +0.000 A 
ATOM     30  C   UNL     1       0.633  13.588  19.064  0.00  0.00    +0.000 A 
ATOM     31 CL   UNL     1      -0.731  13.158  18.093  0.00  0.00    +0.000 Cl
ENDBRANCH  23  24
ENDBRANCH   4  23
TORSDOF 6
ENDMDL
MODEL 7
REMARK VINA RESULT:      -7.5      2.237      2.853
REMARK  Name = 
REMARK  8 active torsions:
REMARK  status: ('A' for Active; 'I' for Inactive)
REMARK    1  A    between atoms: C_1  and  C_2
REMARK    2  A    between atoms: N_4  and  C_5
REMARK    3  A    between atoms: C_5  and  C_6
REMARK    4  A    between atoms: C_14  and  C_15
REMARK    5  A    between atoms: C_16  and  N_17
REMARK    6  A    between atoms: C_18  and  C_20
REMARK    7  A    between atoms: C_26  and  C_27
REMARK    8  A    between atoms: C_27  and  O_29
REMARK                            x       y       z     vdW  Elec       q    Type
REMARK                         _______ _______ _______ _____ _____    ______ ____
ROOT
ATOM      1  C   UNL     1       1.040   8.903  22.773  0.00  0.00    +0.000 C 
ATOM      2  C   UNL     1       1.158   9.142  21.312  0.00  0.00    +0.000 A 
ATOM      3  N   UNL     1       0.525  10.191  20.768  0.00  0.00    +0.000 NA
ATOM      4  N   UNL     1       0.739  10.075  19.440  0.00  0.00    +0.000 N 
ATOM      5  C   UNL     1       1.473   8.957  19.115  0.00  0.00    +0.000 A 
ATOM      6  C   UNL     1       1.897   8.611  17.735  0.00  0.00    +0.000 C 
ATOM      7  C   UNL     1       1.744   8.324  20.313  0.00  0.00    +0.000 A 
ENDROOT
BRANCH   7   8
ATOM      8  N   UNL     1       2.386   7.098  20.377  0.00  0.00    +0.000 N 
ATOM      9  C   UNL     1       1.746   5.881  20.542  0.00  0.00    +0.000 C 
ATOM     10  O   UNL     1       0.538   5.722  20.664  0.00  0.00    +0.000 OA
ATOM     11  H   UNL     1       3.358   7.161  20.643  0.00  0.00    +0.000 HD
BRANCH   9  12
ATOM     12  C   UNL     1       2.727   4.709  20.533  0.00  0.00    +0.000 C 
ATOM     13  C   UNL     1       2.129   3.373  20.980  0.00  0.00    +0.000 C 
ATOM     14  C   UNL     1       0.941   2.929  20.118  0.00  0.00    +0.000 C 
ATOM     15  C   UNL     1       1.625   2.436  18.845  0.00  0.00    +0.000 C 
ATOM     16  C   UNL     1       3.078   2.788  19.115  0.00  0.00    +0.000 C 
ATOM     17  O   UNL     1       3.171   2.462  20.533  0.00  0.00    +0.000 OA
ATOM     18  C   UNL     1       3.318   4.305  19.167  0.00  0.00    +0.000 C 
BRANCH  18  19
ATOM     19  C   UNL     1       4.806   4.569  19.146  0.00  0.00    +0.000 C 
ATOM     20  O   UNL     1       5.294   5.672  19.352  0.00  0.00    +0.000 OA
BRANCH  19  21
ATOM     21  O   UNL     1       5.579   3.480  18.929  0.00  0.00    +0.000 OA
ATOM     22  H   UNL     1       5.299   2.680  19.431  0.00  0.00    +0.000 HD
ENDBRANCH  19  21
ENDBRANCH  18  19
ENDBRANCH   9  12
ENDBRANCH   7   8
BRANCH   4  23
ATOM     23  C   UNL     1       0.033  10.979  18.530  0.00  0.00    +0.000 C 
BRANCH  23  24
ATOM     24  C   UNL     1       0.229  12.453  18.827  0.00  0.00    +0.000 A 
ATOM     25  C   UNL     1      -0.859  13.215  19.295  0.00  0.00    +0.000 A 
ATOM     26  C   UNL     1      -0.770  14.603  19.425  0.00  0.00    +0.000 A 
ATOM     27  C   UNL     1       0.409  15.253  19.084  0.00  0.00    +0.000 A 
ATOM     28 CL   UNL     1       0.500  16.968  19.178  0.00  0.00    +0.000 Cl
ATOM     29  C   UNL     1       1.512  14.526  18.648  0.00  0.00    +0.000 A 
ATOM     30  C   UNL     1       1.422  13.133  18.520  0.00  0.00    +0.000 A 
ATOM     31 CL   UNL     1       2.830  12.316  17.939  0.00  0.00    +0.000 Cl
ENDBRANCH  23  24
ENDBRANCH   4  23
TORSDOF 6
ENDMDL
MODEL 8
REMARK VINA RESULT:      -7.4      1.547      2.668
REMARK  Name = 
REMARK  8 active torsions:
REMARK  status: ('A' for Active; 'I' for Inactive)
REMARK    1  A    between atoms: C_1  and  C_2
REMARK    2  A    between atoms: N_4  and  C_5
REMARK    3  A    between atoms: C_5  and  C_6
REMARK    4  A    between atoms: C_14  and  C_15
REMARK    5  A    between atoms: C_16  and  N_17
REMARK    6  A    between atoms: C_18  and  C_20
REMARK    7  A    between atoms: C_26  and  C_27
REMARK    8  A    between atoms: C_27  and  O_29
REMARK                            x       y       z     vdW  Elec       q    Type
REMARK                         _______ _______ _______ _____ _____    ______ ____
ROOT
ATOM      1  C   UNL     1       0.956   8.956  22.757  0.00  0.00    +0.000 C 
ATOM      2  C   UNL     1       1.095   9.134  21.289  0.00  0.00    +0.000 A 
ATOM      3  N   UNL     1       0.444  10.141  20.689  0.00  0.00    +0.000 NA
ATOM      4  N   UNL     1       0.686   9.973  19.371  0.00  0.00    +0.000 N 
ATOM      5  C   UNL     1       1.455   8.863  19.109  0.00  0.00    +0.000 A 
ATOM      6  C   UNL     1       1.914   8.470  17.752  0.00  0.00    +0.000 C 
ATOM      7  C   UNL     1       1.720   8.291  20.338  0.00  0.00    +0.000 A 
ENDROOT
BRANCH   7   8
ATOM      8  N   UNL     1       2.393   7.086  20.466  0.00  0.00    +0.000 N 
ATOM      9  C   UNL     1       1.782   5.848  20.566  0.00  0.00    +0.000 C 
ATOM     10  O   UNL     1       0.573   5.649  20.566  0.00  0.00    +0.000 OA
ATOM     11  H   UNL     1       3.331   7.181  20.829  0.00  0.00    +0.000 HD
BRANCH   9  12
ATOM     12  C   UNL     1       2.796   4.710  20.656  0.00  0.00    +0.000 C 
ATOM     13  C   UNL     1       2.248   3.411  21.252  0.00  0.00    +0.000 C 
ATOM     14  C   UNL     1       1.058   2.847  20.467  0.00  0.00    +0.000 C 
ATOM     15  C   UNL     1       1.732   2.244  19.237  0.00  0.00    +0.000 C 
ATOM     16  C   UNL     1       3.179   2.662  19.437  0.00  0.00    +0.000 C 
ATOM     17  O   UNL     1       3.308   2.489  20.878  0.00  0.00    +0.000 OA
ATOM     18  C   UNL     1       3.374   4.183  19.327  0.00  0.00    +0.000 C 
BRANCH  18  19
ATOM     19  C   UNL     1       4.852   4.485  19.246  0.00  0.00    +0.000 C 
ATOM     20  O   UNL     1       5.337   5.556  19.587  0.00  0.00    +0.000 OA
BRANCH  19  21
ATOM     21  O   UNL     1       5.624   3.462  18.812  0.00  0.00    +0.000 OA
ATOM     22  H   UNL     1       5.295   3.028  17.991  0.00  0.00    +0.000 HD
ENDBRANCH  19  21
ENDBRANCH  18  19
ENDBRANCH   9  12
ENDBRANCH   7   8
BRANCH   4  23
ATOM     23  C   UNL     1      -0.028  10.818  18.411  0.00  0.00    +0.000 C 
BRANCH  23  24
ATOM     24  C   UNL     1       0.083  12.306  18.675  0.00  0.00    +0.000 A 
ATOM     25  C   UNL     1       1.325  12.949  18.505  0.00  0.00    +0.000 A 
ATOM     26  C   UNL     1       1.513  14.278  18.893  0.00  0.00    +0.000 A 
ATOM     27  C   UNL     1       0.462  14.986  19.461  0.00  0.00    +0.000 A 
ATOM     28 CL   UNL     1       0.710  16.600  20.001  0.00  0.00    +0.000 Cl
ATOM     29  C   UNL     1      -0.785  14.390  19.614  0.00  0.00    +0.000 A 
ATOM     30  C   UNL     1      -0.973  13.057  19.224  0.00  0.00    +0.000 A 
ATOM     31 CL   UNL     1      -2.547  12.389  19.482  0.00  0.00    +0.000 Cl
ENDBRANCH  23  24
ENDBRANCH   4  23
TORSDOF 6
ENDMDL
MODEL 9
REMARK VINA RESULT:      -7.3      1.892      2.728
REMARK  Name = 
REMARK  8 active torsions:
REMARK  status: ('A' for Active; 'I' for Inactive)
REMARK    1  A    between atoms: C_1  and  C_2
REMARK    2  A    between atoms: N_4  and  C_5
REMARK    3  A    between atoms: C_5  and  C_6
REMARK    4  A    between atoms: C_14  and  C_15
REMARK    5  A    between atoms: C_16  and  N_17
REMARK    6  A    between atoms: C_18  and  C_20
REMARK    7  A    between atoms: C_26  and  C_27
REMARK    8  A    between atoms: C_27  and  O_29
REMARK                            x       y       z     vdW  Elec       q    Type
REMARK                         _______ _______ _______ _____ _____    ______ ____
ROOT
ATOM      1  C   UNL     1       1.941   8.972  17.679  0.00  0.00    +0.000 C 
ATOM      2  C   UNL     1       1.530   9.347  19.056  0.00  0.00    +0.000 A 
ATOM      3  N   UNL     1       1.134  10.605  19.299  0.00  0.00    +0.000 NA
ATOM      4  N   UNL     1       0.931  10.651  20.633  0.00  0.00    +0.000 N 
ATOM      5  C   UNL     1       1.216   9.458  21.257  0.00  0.00    +0.000 A 
ATOM      6  C   UNL     1       1.033   9.214  22.711  0.00  0.00    +0.000 C 
ATOM      7  C   UNL     1       1.623   8.598  20.256  0.00  0.00    +0.000 A 
ENDROOT
BRANCH   7   8
ATOM      8  N   UNL     1       2.091   7.321  20.518  0.00  0.00    +0.000 N 
ATOM      9  C   UNL     1       2.354   6.364  19.553  0.00  0.00    +0.000 C 
ATOM     10  O   UNL     1       2.199   6.507  18.346  0.00  0.00    +0.000 OA
ATOM     11  H   UNL     1       1.906   7.005  21.459  0.00  0.00    +0.000 HD
BRANCH   9  12
ATOM     12  C   UNL     1       2.897   5.070  20.157  0.00  0.00    +0.000 C 
ATOM     13  C   UNL     1       1.903   4.310  21.039  0.00  0.00    +0.000 C 
ATOM     14  C   UNL     1       0.622   3.917  20.295  0.00  0.00    +0.000 C 
ATOM     15  C   UNL     1       1.085   2.739  19.442  0.00  0.00    +0.000 C 
ATOM     16  C   UNL     1       2.578   2.717  19.724  0.00  0.00    +0.000 C 
ATOM     17  O   UNL     1       2.583   3.029  21.148  0.00  0.00    +0.000 OA
ATOM     18  C   UNL     1       3.302   3.956  19.171  0.00  0.00    +0.000 C 
BRANCH  18  19
ATOM     19  C   UNL     1       4.793   3.723  19.233  0.00  0.00    +0.000 C 
ATOM     20  O   UNL     1       5.618   4.571  18.920  0.00  0.00    +0.000 OA
BRANCH  19  21
ATOM     21  O   UNL     1       5.166   2.513  19.710  0.00  0.00    +0.000 OA
ATOM     22  H   UNL     1       5.210   1.805  19.026  0.00  0.00    +0.000 HD
ENDBRANCH  19  21
ENDBRANCH  18  19
ENDBRANCH   9  12
ENDBRANCH   7   8
BRANCH   4  23
ATOM     23  C   UNL     1       0.651  11.946  21.258  0.00  0.00    +0.000 C 
BRANCH  23  24
ATOM     24  C   UNL     1      -0.822  12.280  21.383  0.00  0.00    +0.000 A 
ATOM     25  C   UNL     1      -1.500  11.980  22.581  0.00  0.00    +0.000 A 
ATOM     26  C   UNL     1      -2.887  12.117  22.684  0.00  0.00    +0.000 A 
ATOM     27  C   UNL     1      -3.619  12.554  21.588  0.00  0.00    +0.000 A 
ATOM     28 CL   UNL     1      -5.333  12.660  21.691  0.00  0.00    +0.000 Cl
ATOM     29  C   UNL     1      -2.977  12.889  20.401  0.00  0.00    +0.000 A 
ATOM     30  C   UNL     1      -1.586  12.752  20.299  0.00  0.00    +0.000 A 
ATOM     31 CL   UNL     1      -0.876  13.158  18.776  0.00  0.00    +0.000 Cl
ENDBRANCH  23  24
ENDBRANCH   4  23
TORSDOF 6
ENDMDL
