MODEL 1
REMARK VINA RESULT:      -8.2      0.000      0.000
REMARK  Name = 
REMARK  4 active torsions:
REMARK  status: ('A' for Active; 'I' for Inactive)
REMARK    1  A    between atoms: C_2  and  C_12
REMARK    2  A    between atoms: N_3  and  C_4
REMARK    3  A    between atoms: C_4  and  C_5
REMARK    4  A    between atoms: C_5  and  C_6
REMARK                            x       y       z     vdW  Elec       q    Type
REMARK                         _______ _______ _______ _____ _____    ______ ____
ROOT
ATOM      1  O   UNL     1       6.805   4.495  17.487  0.00  0.00    +0.000 OA
ATOM      2  C   UNL     1       5.822   4.360  16.768  0.00  0.00    +0.000 C 
ATOM      3  N   UNL     1       5.870   4.371  15.384  0.00  0.00    +0.000 N 
ATOM      4  H   UNL     1       4.996   4.402  14.874  0.00  0.00    +0.000 HD
ENDROOT
BRANCH   2   5
ATOM      5  C   UNL     1       4.451   4.294  17.351  0.00  0.00    +0.000 A 
ATOM      6  C   UNL     1       3.857   3.018  17.507  0.00  0.00    +0.000 A 
ATOM      7  C   UNL     1       2.732   2.816  18.332  0.00  0.00    +0.000 A 
ATOM      8  C   UNL     1       2.316   3.908  19.071  0.00  0.00    +0.000 A 
ATOM      9  C   UNL     1       2.844   5.169  18.817  0.00  0.00    +0.000 A 
ATOM     10  C   UNL     1       2.204   6.136  19.574  0.00  0.00    +0.000 A 
ATOM     11  C   UNL     1       2.222   7.459  19.170  0.00  0.00    +0.000 A 
ATOM     12  C   UNL     1       3.075   7.764  18.095  0.00  0.00    +0.000 A 
ATOM     13  C   UNL     1       3.924   6.799  17.517  0.00  0.00    +0.000 A 
ATOM     14  C   UNL     1       3.797   5.436  17.875  0.00  0.00    +0.000 A 
ATOM     15  C   UNL     1       1.448   5.466  20.666  0.00  0.00    +0.000 C 
ATOM     16  C   UNL     1       1.229   4.032  20.084  0.00  0.00    +0.000 C 
ENDBRANCH   2   5
BRANCH   3  17
ATOM     17  C   UNL     1       7.089   4.642  14.657  0.00  0.00    +0.000 C 
BRANCH  17  18
ATOM     18  C   UNL     1       6.843   4.919  13.164  0.00  0.00    +0.000 C 
BRANCH  18  19
ATOM     19  C   UNL     1       6.520   3.683  12.357  0.00  0.00    +0.000 A 
ATOM     20  C   UNL     1       7.545   2.863  11.862  0.00  0.00    +0.000 A 
ATOM     21  C   UNL     1       7.249   1.731  11.106  0.00  0.00    +0.000 A 
ATOM     22  C   UNL     1       5.920   1.377  10.875  0.00  0.00    +0.000 A 
ATOM     23  C   UNL     1       4.899   2.176  11.357  0.00  0.00    +0.000 A 
ATOM     24  C   UNL     1       5.191   3.315  12.115  0.00  0.00    +0.000 A 
ENDBRANCH  18  19
ENDBRANCH  17  18
ENDBRANCH   3  17
TORSDOF 4
ENDMDL
MODEL 2
REMARK VINA RESULT:      -8.2      4.686      7.032
REMARK  Name = 
REMARK  4 active torsions:
REMARK  status: ('A' for Active; 'I' for Inactive)
REMARK    1  A    between atoms: C_2  and  C_12
REMARK    2  A    between atoms: N_3  and  C_4
REMARK    3  A    between atoms: C_4  and  C_5
REMARK    4  A    between atoms: C_5  and  C_6
REMARK                            x       y       z     vdW  Elec       q    Type
REMARK                         _______ _______ _______ _____ _____    ______ ____
ROOT
ATOM      1  O   UNL     1       7.596   5.772  19.373  0.00  0.00    +0.000 OA
ATOM      2  C   UNL     1       7.122   6.228  18.339  0.00  0.00    +0.000 C 
ATOM      3  N   UNL     1       7.548   7.405  17.748  0.00  0.00    +0.000 N 
ATOM      4  H   UNL     1       7.003   7.781  16.982  0.00  0.00    +0.000 HD
ENDROOT
BRANCH   2   5
ATOM      5  C   UNL     1       5.938   5.590  17.694  0.00  0.00    +0.000 A 
ATOM      6  C   UNL     1       6.128   4.349  17.039  0.00  0.00    +0.000 A 
ATOM      7  C   UNL     1       5.045   3.516  16.692  0.00  0.00    +0.000 A 
ATOM      8  C   UNL     1       3.800   3.922  17.136  0.00  0.00    +0.000 A 
ATOM      9  C   UNL     1       3.628   5.191  17.677  0.00  0.00    +0.000 A 
ATOM     10  C   UNL     1       2.291   5.441  17.937  0.00  0.00    +0.000 A 
ATOM     11  C   UNL     1       1.833   6.744  18.027  0.00  0.00    +0.000 A 
ATOM     12  C   UNL     1       2.820   7.745  18.041  0.00  0.00    +0.000 A 
ATOM     13  C   UNL     1       4.196   7.438  18.049  0.00  0.00    +0.000 A 
ATOM     14  C   UNL     1       4.628   6.107  17.840  0.00  0.00    +0.000 A 
ATOM     15  C   UNL     1       1.548   4.153  17.912  0.00  0.00    +0.000 C 
ATOM     16  C   UNL     1       2.470   3.260  17.019  0.00  0.00    +0.000 C 
ENDBRANCH   2   5
BRANCH   3  17
ATOM     17  C   UNL     1       8.539   8.261  18.359  0.00  0.00    +0.000 C 
BRANCH  17  18
ATOM     18  C   UNL     1       8.319   9.750  18.039  0.00  0.00    +0.000 C 
BRANCH  18  19
ATOM     19  C   UNL     1       9.348  10.667  18.656  0.00  0.00    +0.000 A 
ATOM     20  C   UNL     1       9.418  10.832  20.047  0.00  0.00    +0.000 A 
ATOM     21  C   UNL     1      10.359  11.689  20.616  0.00  0.00    +0.000 A 
ATOM     22  C   UNL     1      11.274  12.356  19.803  0.00  0.00    +0.000 A 
ATOM     23  C   UNL     1      11.216  12.203  18.430  0.00  0.00    +0.000 A 
ATOM     24  C   UNL     1      10.274  11.346  17.853  0.00  0.00    +0.000 A 
ENDBRANCH  18  19
ENDBRANCH  17  18
ENDBRANCH   3  17
TORSDOF 4
ENDMDL
MODEL 3
REMARK VINA RESULT:      -8.1      1.007      1.613
REMARK  Name = 
REMARK  4 active torsions:
REMARK  status: ('A' for Active; 'I' for Inactive)
REMARK    1  A    between atoms: C_2  and  C_12
REMARK    2  A    between atoms: N_3  and  C_4
REMARK    3  A    between atoms: C_4  and  C_5
REMARK    4  A    between atoms: C_5  and  C_6
REMARK                            x       y       z     vdW  Elec       q    Type
REMARK                         _______ _______ _______ _____ _____    ______ ____
ROOT
ATOM      1  O   UNL     1       5.210   6.193  16.432  0.00  0.00    +0.000 OA
ATOM      2  C   UNL     1       5.058   4.999  16.661  0.00  0.00    +0.000 C 
ATOM      3  N   UNL     1       5.954   4.017  16.274  0.00  0.00    +0.000 N 
ATOM      4  H   UNL     1       5.677   3.049  16.373  0.00  0.00    +0.000 HD
ENDROOT
BRANCH   2   5
ATOM      5  C   UNL     1       3.799   4.495  17.283  0.00  0.00    +0.000 A 
ATOM      6  C   UNL     1       3.324   3.222  16.882  0.00  0.00    +0.000 A 
ATOM      7  C   UNL     1       2.355   2.521  17.626  0.00  0.00    +0.000 A 
ATOM      8  C   UNL     1       1.984   3.089  18.830  0.00  0.00    +0.000 A 
ATOM      9  C   UNL     1       2.380   4.385  19.145  0.00  0.00    +0.000 A 
ATOM     10  C   UNL     1       1.798   4.806  20.329  0.00  0.00    +0.000 A 
ATOM     11  C   UNL     1       1.664   6.157  20.596  0.00  0.00    +0.000 A 
ATOM     12  C   UNL     1       2.320   7.029  19.708  0.00  0.00    +0.000 A 
ATOM     13  C   UNL     1       3.135   6.554  18.660  0.00  0.00    +0.000 A 
ATOM     14  C   UNL     1       3.157   5.174  18.346  0.00  0.00    +0.000 A 
ATOM     15  C   UNL     1       1.266   3.619  21.051  0.00  0.00    +0.000 C 
ATOM     16  C   UNL     1       1.059   2.594  19.889  0.00  0.00    +0.000 C 
ENDBRANCH   2   5
BRANCH   3  17
ATOM     17  C   UNL     1       7.120   4.310  15.471  0.00  0.00    +0.000 C 
BRANCH  17  18
ATOM     18  C   UNL     1       6.765   4.960  14.122  0.00  0.00    +0.000 C 
BRANCH  18  19
ATOM     19  C   UNL     1       6.305   3.978  13.071  0.00  0.00    +0.000 A 
ATOM     20  C   UNL     1       4.944   3.851  12.756  0.00  0.00    +0.000 A 
ATOM     21  C   UNL     1       4.517   2.935  11.796  0.00  0.00    +0.000 A 
ATOM     22  C   UNL     1       5.452   2.167  11.103  0.00  0.00    +0.000 A 
ATOM     23  C   UNL     1       6.797   2.282  11.403  0.00  0.00    +0.000 A 
ATOM     24  C   UNL     1       7.231   3.198  12.367  0.00  0.00    +0.000 A 
ENDBRANCH  18  19
ENDBRANCH  17  18
ENDBRANCH   3  17
TORSDOF 4
ENDMDL
MODEL 4
REMARK VINA RESULT:      -8.1      4.701      7.078
REMARK  Name = 
REMARK  4 active torsions:
REMARK  status: ('A' for Active; 'I' for Inactive)
REMARK    1  A    between atoms: C_2  and  C_12
REMARK    2  A    between atoms: N_3  and  C_4
REMARK    3  A    between atoms: C_4  and  C_5
REMARK    4  A    between atoms: C_5  and  C_6
REMARK                            x       y       z     vdW  Elec       q    Type
REMARK                         _______ _______ _______ _____ _____    ______ ____
ROOT
ATOM      1  O   UNL     1       7.900   6.043  18.842  0.00  0.00    +0.000 OA
ATOM      2  C   UNL     1       7.216   6.539  17.955  0.00  0.00    +0.000 C 
ATOM      3  N   UNL     1       7.399   7.821  17.463  0.00  0.00    +0.000 N 
ATOM      4  H   UNL     1       6.698   8.199  16.839  0.00  0.00    +0.000 HD
ENDROOT
BRANCH   2   5
ATOM      5  C   UNL     1       6.028   5.819  17.412  0.00  0.00    +0.000 A 
ATOM      6  C   UNL     1       6.243   4.576  16.768  0.00  0.00    +0.000 A 
ATOM      7  C   UNL     1       5.188   3.674  16.519  0.00  0.00    +0.000 A 
ATOM      8  C   UNL     1       3.957   4.018  17.046  0.00  0.00    +0.000 A 
ATOM      9  C   UNL     1       3.750   5.288  17.574  0.00  0.00    +0.000 A 
ATOM     10  C   UNL     1       2.424   5.467  17.928  0.00  0.00    +0.000 A 
ATOM     11  C   UNL     1       1.897   6.743  18.027  0.00  0.00    +0.000 A 
ATOM     12  C   UNL     1       2.822   7.799  17.949  0.00  0.00    +0.000 A 
ATOM     13  C   UNL     1       4.210   7.572  17.859  0.00  0.00    +0.000 A 
ATOM     14  C   UNL     1       4.704   6.263  17.645  0.00  0.00    +0.000 A 
ATOM     15  C   UNL     1       1.759   4.137  17.983  0.00  0.00    +0.000 C 
ATOM     16  C   UNL     1       2.664   3.278  17.042  0.00  0.00    +0.000 C 
ENDBRANCH   2   5
BRANCH   3  17
ATOM     17  C   UNL     1       8.367   8.733  18.029  0.00  0.00    +0.000 C 
BRANCH  17  18
ATOM     18  C   UNL     1       8.051  10.205  17.716  0.00  0.00    +0.000 C 
BRANCH  18  19
ATOM     19  C   UNL     1       9.077  11.178  18.249  0.00  0.00    +0.000 A 
ATOM     20  C   UNL     1       9.215  12.454  17.682  0.00  0.00    +0.000 A 
ATOM     21  C   UNL     1      10.171  13.348  18.163  0.00  0.00    +0.000 A 
ATOM     22  C   UNL     1      10.969  12.993  19.249  0.00  0.00    +0.000 A 
ATOM     23  C   UNL     1      10.844  11.739  19.818  0.00  0.00    +0.000 A 
ATOM     24  C   UNL     1       9.888  10.838  19.338  0.00  0.00    +0.000 A 
ENDBRANCH  18  19
ENDBRANCH  17  18
ENDBRANCH   3  17
TORSDOF 4
ENDMDL
MODEL 5
REMARK VINA RESULT:      -8.0      1.025      1.274
REMARK  Name = 
REMARK  4 active torsions:
REMARK  status: ('A' for Active; 'I' for Inactive)
REMARK    1  A    between atoms: C_2  and  C_12
REMARK    2  A    between atoms: N_3  and  C_4
REMARK    3  A    between atoms: C_4  and  C_5
REMARK    4  A    between atoms: C_5  and  C_6
REMARK                            x       y       z     vdW  Elec       q    Type
REMARK                         _______ _______ _______ _____ _____    ______ ____
ROOT
ATOM      1  O   UNL     1       4.970   6.186  16.235  0.00  0.00    +0.000 OA
ATOM      2  C   UNL     1       4.901   5.009  16.566  0.00  0.00    +0.000 C 
ATOM      3  N   UNL     1       5.852   4.058  16.238  0.00  0.00    +0.000 N 
ATOM      4  H   UNL     1       5.642   3.085  16.426  0.00  0.00    +0.000 HD
ENDROOT
BRANCH   2   5
ATOM      5  C   UNL     1       3.693   4.480  17.263  0.00  0.00    +0.000 A 
ATOM      6  C   UNL     1       3.234   3.188  16.906  0.00  0.00    +0.000 A 
ATOM      7  C   UNL     1       2.326   2.472  17.712  0.00  0.00    +0.000 A 
ATOM      8  C   UNL     1       2.003   3.049  18.926  0.00  0.00    +0.000 A 
ATOM      9  C   UNL     1       2.378   4.361  19.200  0.00  0.00    +0.000 A 
ATOM     10  C   UNL     1       1.848   4.784  20.407  0.00  0.00    +0.000 A 
ATOM     11  C   UNL     1       1.689   6.136  20.660  0.00  0.00    +0.000 A 
ATOM     12  C   UNL     1       2.272   7.011  19.725  0.00  0.00    +0.000 A 
ATOM     13  C   UNL     1       3.043   6.542  18.642  0.00  0.00    +0.000 A 
ATOM     14  C   UNL     1       3.089   5.158  18.349  0.00  0.00    +0.000 A 
ATOM     15  C   UNL     1       1.390   3.595  21.173  0.00  0.00    +0.000 C 
ATOM     16  C   UNL     1       1.151   2.546  20.039  0.00  0.00    +0.000 C 
ENDBRANCH   2   5
BRANCH   3  17
ATOM     17  C   UNL     1       6.978   4.355  15.382  0.00  0.00    +0.000 C 
BRANCH  17  18
ATOM     18  C   UNL     1       6.555   4.950  14.028  0.00  0.00    +0.000 C 
BRANCH  18  19
ATOM     19  C   UNL     1       6.290   3.914  12.960  0.00  0.00    +0.000 A 
ATOM     20  C   UNL     1       7.353   3.284  12.295  0.00  0.00    +0.000 A 
ATOM     21  C   UNL     1       7.110   2.339  11.300  0.00  0.00    +0.000 A 
ATOM     22  C   UNL     1       5.800   1.976  10.991  0.00  0.00    +0.000 A 
ATOM     23  C   UNL     1       4.743   2.589  11.638  0.00  0.00    +0.000 A 
ATOM     24  C   UNL     1       4.981   3.539  12.636  0.00  0.00    +0.000 A 
ENDBRANCH  18  19
ENDBRANCH  17  18
ENDBRANCH   3  17
TORSDOF 4
ENDMDL
MODEL 6
REMARK VINA RESULT:      -8.0      3.999      8.195
REMARK  Name = 
REMARK  4 active torsions:
REMARK  status: ('A' for Active; 'I' for Inactive)
REMARK    1  A    between atoms: C_2  and  C_12
REMARK    2  A    between atoms: N_3  and  C_4
REMARK    3  A    between atoms: C_4  and  C_5
REMARK    4  A    between atoms: C_5  and  C_6
REMARK                            x       y       z     vdW  Elec       q    Type
REMARK                         _______ _______ _______ _____ _____    ______ ____
ROOT
ATOM      1  O   UNL     1       1.754   8.664  20.931  0.00  0.00    +0.000 OA
ATOM      2  C   UNL     1       1.797   8.062  19.865  0.00  0.00    +0.000 C 
ATOM      3  N   UNL     1       1.460   8.627  18.646  0.00  0.00    +0.000 N 
ATOM      4  H   UNL     1       1.382   8.017  17.841  0.00  0.00    +0.000 HD
ENDROOT
BRANCH   2   5
ATOM      5  C   UNL     1       2.107   6.604  19.821  0.00  0.00    +0.000 A 
ATOM      6  C   UNL     1       1.489   5.765  20.781  0.00  0.00    +0.000 A 
ATOM      7  C   UNL     1       1.450   4.365  20.630  0.00  0.00    +0.000 A 
ATOM      8  C   UNL     1       1.940   3.867  19.438  0.00  0.00    +0.000 A 
ATOM      9  C   UNL     1       2.638   4.697  18.566  0.00  0.00    +0.000 A 
ATOM     10  C   UNL     1       3.150   3.976  17.500  0.00  0.00    +0.000 A 
ATOM     11  C   UNL     1       4.230   4.465  16.786  0.00  0.00    +0.000 A 
ATOM     12  C   UNL     1       4.617   5.785  17.079  0.00  0.00    +0.000 A 
ATOM     13  C   UNL     1       3.897   6.591  17.985  0.00  0.00    +0.000 A 
ATOM     14  C   UNL     1       2.873   6.025  18.781  0.00  0.00    +0.000 A 
ATOM     15  C   UNL     1       2.469   2.655  17.443  0.00  0.00    +0.000 C 
ATOM     16  C   UNL     1       1.985   2.471  18.918  0.00  0.00    +0.000 C 
ENDBRANCH   2   5
BRANCH   3  17
ATOM     17  C   UNL     1       0.929   9.966  18.536  0.00  0.00    +0.000 C 
BRANCH  17  18
ATOM     18  C   UNL     1      -0.439  10.122  19.221  0.00  0.00    +0.000 C 
BRANCH  18  19
ATOM     19  C   UNL     1      -1.576  10.391  18.264  0.00  0.00    +0.000 A 
ATOM     20  C   UNL     1      -2.580  11.317  18.585  0.00  0.00    +0.000 A 
ATOM     21  C   UNL     1      -3.637  11.556  17.709  0.00  0.00    +0.000 A 
ATOM     22  C   UNL     1      -3.678  10.907  16.476  0.00  0.00    +0.000 A 
ATOM     23  C   UNL     1      -2.695   9.991  16.145  0.00  0.00    +0.000 A 
ATOM     24  C   UNL     1      -1.633   9.746  17.022  0.00  0.00    +0.000 A 
ENDBRANCH  18  19
ENDBRANCH  17  18
ENDBRANCH   3  17
TORSDOF 4
ENDMDL
MODEL 7
REMARK VINA RESULT:      -8.0      0.324      1.054
REMARK  Name = 
REMARK  4 active torsions:
REMARK  status: ('A' for Active; 'I' for Inactive)
REMARK    1  A    between atoms: C_2  and  C_12
REMARK    2  A    between atoms: N_3  and  C_4
REMARK    3  A    between atoms: C_4  and  C_5
REMARK    4  A    between atoms: C_5  and  C_6
REMARK                            x       y       z     vdW  Elec       q    Type
REMARK                         _______ _______ _______ _____ _____    ______ ____
ROOT
ATOM      1  O   UNL     1       6.827   4.286  17.773  0.00  0.00    +0.000 OA
ATOM      2  C   UNL     1       5.832   4.279  17.059  0.00  0.00    +0.000 C 
ATOM      3  N   UNL     1       5.871   4.369  15.678  0.00  0.00    +0.000 N 
ATOM      4  H   UNL     1       4.999   4.504  15.181  0.00  0.00    +0.000 HD
ENDROOT
BRANCH   2   5
ATOM      5  C   UNL     1       4.464   4.296  17.654  0.00  0.00    +0.000 A 
ATOM      6  C   UNL     1       3.874   3.054  17.995  0.00  0.00    +0.000 A 
ATOM      7  C   UNL     1       2.754   2.971  18.847  0.00  0.00    +0.000 A 
ATOM      8  C   UNL     1       2.340   4.157  19.425  0.00  0.00    +0.000 A 
ATOM      9  C   UNL     1       2.864   5.370  18.989  0.00  0.00    +0.000 A 
ATOM     10  C   UNL     1       2.226   6.434  19.604  0.00  0.00    +0.000 A 
ATOM     11  C   UNL     1       2.239   7.686  19.015  0.00  0.00    +0.000 A 
ATOM     12  C   UNL     1       3.085   7.835  17.902  0.00  0.00    +0.000 A 
ATOM     13  C   UNL     1       3.933   6.797  17.463  0.00  0.00    +0.000 A 
ATOM     14  C   UNL     1       3.811   5.499  18.014  0.00  0.00    +0.000 A 
ATOM     15  C   UNL     1       1.479   5.926  20.786  0.00  0.00    +0.000 C 
ATOM     16  C   UNL     1       1.260   4.424  20.416  0.00  0.00    +0.000 C 
ENDBRANCH   2   5
BRANCH   3  17
ATOM     17  C   UNL     1       7.103   4.577  14.953  0.00  0.00    +0.000 C 
BRANCH  17  18
ATOM     18  C   UNL     1       6.871   4.953  13.479  0.00  0.00    +0.000 C 
BRANCH  18  19
ATOM     19  C   UNL     1       6.547   3.775  12.591  0.00  0.00    +0.000 A 
ATOM     20  C   UNL     1       5.216   3.416  12.334  0.00  0.00    +0.000 A 
ATOM     21  C   UNL     1       4.916   2.321  11.525  0.00  0.00    +0.000 A 
ATOM     22  C   UNL     1       5.945   1.599  10.924  0.00  0.00    +0.000 A 
ATOM     23  C   UNL     1       7.263   1.941  11.168  0.00  0.00    +0.000 A 
ATOM     24  C   UNL     1       7.569   3.038  11.980  0.00  0.00    +0.000 A 
ENDBRANCH  18  19
ENDBRANCH  17  18
ENDBRANCH   3  17
TORSDOF 4
ENDMDL
MODEL 8
REMARK VINA RESULT:      -8.0      3.136      5.742
REMARK  Name = 
REMARK  4 active torsions:
REMARK  status: ('A' for Active; 'I' for Inactive)
REMARK    1  A    between atoms: C_2  and  C_12
REMARK    2  A    between atoms: N_3  and  C_4
REMARK    3  A    between atoms: C_4  and  C_5
REMARK    4  A    between atoms: C_5  and  C_6
REMARK                            x       y       z     vdW  Elec       q    Type
REMARK                         _______ _______ _______ _____ _____    ______ ____
ROOT
ATOM      1  O   UNL     1       1.584   5.718  20.580  0.00  0.00    +0.000 OA
ATOM      2  C   UNL     1       2.278   6.428  19.863  0.00  0.00    +0.000 C 
ATOM      3  N   UNL     1       3.496   6.035  19.334  0.00  0.00    +0.000 N 
ATOM      4  H   UNL     1       4.068   6.735  18.877  0.00  0.00    +0.000 HD
ENDROOT
BRANCH   2   5
ATOM      5  C   UNL     1       1.905   7.849  19.602  0.00  0.00    +0.000 A 
ATOM      6  C   UNL     1       2.159   8.375  18.312  0.00  0.00    +0.000 A 
ATOM      7  C   UNL     1       1.560   9.570  17.865  0.00  0.00    +0.000 A 
ATOM      8  C   UNL     1       0.620  10.132  18.708  0.00  0.00    +0.000 A 
ATOM      9  C   UNL     1       0.472   9.659  20.008  0.00  0.00    +0.000 A 
ATOM     10  C   UNL     1      -0.424  10.439  20.719  0.00  0.00    +0.000 A 
ATOM     11  C   UNL     1      -0.382  10.459  22.102  0.00  0.00    +0.000 A 
ATOM     12  C   UNL     1       0.464   9.513  22.707  0.00  0.00    +0.000 A 
ATOM     13  C   UNL     1       1.163   8.546  21.956  0.00  0.00    +0.000 A 
ATOM     14  C   UNL     1       1.188   8.626  20.543  0.00  0.00    +0.000 A 
ATOM     15  C   UNL     1      -1.204  11.267  19.761  0.00  0.00    +0.000 C 
ATOM     16  C   UNL     1      -0.248  11.330  18.526  0.00  0.00    +0.000 C 
ENDBRANCH   2   5
BRANCH   3  17
ATOM     17  C   UNL     1       4.108   4.769  19.664  0.00  0.00    +0.000 C 
BRANCH  17  18
ATOM     18  C   UNL     1       4.116   3.785  18.482  0.00  0.00    +0.000 C 
BRANCH  18  19
ATOM     19  C   UNL     1       5.123   4.125  17.409  0.00  0.00    +0.000 A 
ATOM     20  C   UNL     1       4.756   4.121  16.055  0.00  0.00    +0.000 A 
ATOM     21  C   UNL     1       5.688   4.421  15.063  0.00  0.00    +0.000 A 
ATOM     22  C   UNL     1       6.989   4.776  15.416  0.00  0.00    +0.000 A 
ATOM     23  C   UNL     1       7.365   4.784  16.747  0.00  0.00    +0.000 A 
ATOM     24  C   UNL     1       6.434   4.482  17.746  0.00  0.00    +0.000 A 
ENDBRANCH  18  19
ENDBRANCH  17  18
ENDBRANCH   3  17
TORSDOF 4
ENDMDL
MODEL 9
REMARK VINA RESULT:      -8.0      4.218      6.793
REMARK  Name = 
REMARK  4 active torsions:
REMARK  status: ('A' for Active; 'I' for Inactive)
REMARK    1  A    between atoms: C_2  and  C_12
REMARK    2  A    between atoms: N_3  and  C_4
REMARK    3  A    between atoms: C_4  and  C_5
REMARK    4  A    between atoms: C_5  and  C_6
REMARK                            x       y       z     vdW  Elec       q    Type
REMARK                         _______ _______ _______ _____ _____    ______ ____
ROOT
ATOM      1  O   UNL     1       7.266   5.436  19.612  0.00  0.00    +0.000 OA
ATOM      2  C   UNL     1       6.729   5.795  18.571  0.00  0.00    +0.000 C 
ATOM      3  N   UNL     1       7.109   6.917  17.853  0.00  0.00    +0.000 N 
ATOM      4  H   UNL     1       6.518   7.220  17.089  0.00  0.00    +0.000 HD
ENDROOT
BRANCH   2   5
ATOM      5  C   UNL     1       5.515   5.098  18.056  0.00  0.00    +0.000 A 
ATOM      6  C   UNL     1       5.660   4.264  16.921  0.00  0.00    +0.000 A 
ATOM      7  C   UNL     1       4.678   3.321  16.558  0.00  0.00    +0.000 A 
ATOM      8  C   UNL     1       3.623   3.172  17.440  0.00  0.00    +0.000 A 
ATOM      9  C   UNL     1       3.449   4.075  18.484  0.00  0.00    +0.000 A 
ATOM     10  C   UNL     1       2.271   3.822  19.165  0.00  0.00    +0.000 A 
ATOM     11  C   UNL     1       1.667   4.824  19.904  0.00  0.00    +0.000 A 
ATOM     12  C   UNL     1       2.416   6.003  20.072  0.00  0.00    +0.000 A 
ATOM     13  C   UNL     1       3.735   6.126  19.589  0.00  0.00    +0.000 A 
ATOM     14  C   UNL     1       4.277   5.130  18.742  0.00  0.00    +0.000 A 
ATOM     15  C   UNL     1       1.791   2.461  18.804  0.00  0.00    +0.000 C 
ATOM     16  C   UNL     1       2.468   2.232  17.414  0.00  0.00    +0.000 C 
ENDBRANCH   2   5
BRANCH   3  17
ATOM     17  C   UNL     1       8.126   7.827  18.326  0.00  0.00    +0.000 C 
BRANCH  17  18
ATOM     18  C   UNL     1       8.092   9.186  17.604  0.00  0.00    +0.000 C 
BRANCH  18  19
ATOM     19  C   UNL     1       8.772  10.300  18.364  0.00  0.00    +0.000 A 
ATOM     20  C   UNL     1       8.863  11.588  17.816  0.00  0.00    +0.000 A 
ATOM     21  C   UNL     1       9.503  12.614  18.510  0.00  0.00    +0.000 A 
ATOM     22  C   UNL     1      10.019  12.376  19.782  0.00  0.00    +0.000 A 
ATOM     23  C   UNL     1       9.937  11.111  20.335  0.00  0.00    +0.000 A 
ATOM     24  C   UNL     1       9.298  10.078  19.643  0.00  0.00    +0.000 A 
ENDBRANCH  18  19
ENDBRANCH  17  18
ENDBRANCH   3  17
TORSDOF 4
ENDMDL
