MODEL 1
REMARK VINA RESULT:      -8.6      0.000      0.000
REMARK  Name = 
REMARK  12 active torsions:
REMARK  status: ('A' for Active; 'I' for Inactive)
REMARK    1  A    between atoms: C_1  and  O_2
REMARK    2  A    between atoms: O_2  and  C_3
REMARK    3  A    between atoms: C_6  and  C_7
REMARK    4  A    between atoms: N_9  and  C_10
REMARK    5  A    between atoms: C_10  and  C_11
REMARK    6  A    between atoms: C_10  and  C_12
REMARK    7  A    between atoms: C_14  and  C_15
REMARK    8  A    between atoms: N_17  and  C_18
REMARK    9  A    between atoms: C_22  and  C_23
REMARK   10  A    between atoms: N_25  and  C_26
REMARK   11  A    between atoms: C_26  and  C_27
REMARK   12  A    between atoms: C_26  and  C_28
REMARK                            x       y       z     vdW  Elec       q    Type
REMARK                         _______ _______ _______ _____ _____    ______ ____
ROOT
ATOM      1  C   UNL     1       2.671   7.070  18.476  0.00  0.00    +0.000 A 
ATOM      2  C   UNL     1       2.233   7.347  19.763  0.00  0.00    +0.000 A 
ATOM      3  N   UNL     1       1.640   8.560  19.706  0.00  0.00    +0.000 N 
ATOM      4  N   UNL     1       1.735   9.010  18.469  0.00  0.00    +0.000 NA
ATOM      5  N   UNL     1       2.361   8.133  17.710  0.00  0.00    +0.000 NA
ENDROOT
BRANCH   1  11
ATOM      6  C   UNL     1       2.631   4.582  18.144  0.00  0.00    +0.000 A 
ATOM      7  C   UNL     1       3.229   3.396  17.697  0.00  0.00    +0.000 A 
ATOM      8  C   UNL     1       4.419   3.427  16.991  0.00  0.00    +0.000 A 
ATOM      9  C   UNL     1       5.051   4.648  16.686  0.00  0.00    +0.000 A 
ATOM     10  C   UNL     1       4.472   5.840  17.200  0.00  0.00    +0.000 A 
ATOM     11  C   UNL     1       3.275   5.817  17.933  0.00  0.00    +0.000 A 
BRANCH   9  12
ATOM     12  C   UNL     1       6.252   4.691  15.772  0.00  0.00    +0.000 C 
ATOM     13  N   UNL     1       7.452   4.520  16.222  0.00  0.00    +0.000 NA
ATOM     14  N   UNL     1       6.077   4.817  14.361  0.00  0.00    +0.000 N 
ATOM     15  H   UNL     1       7.711   4.383  17.205  0.00  0.00    +0.000 HD
ATOM     16  H   UNL     1       5.211   5.204  13.969  0.00  0.00    +0.000 HD
BRANCH  14  17
ATOM     17  C   UNL     1       7.050   4.317  13.409  0.00  0.00    +0.000 C 
ATOM     18  C   UNL     1       6.324   3.450  12.375  0.00  0.00    +0.000 C 
ATOM     19  C   UNL     1       7.771   5.483  12.748  0.00  0.00    +0.000 C 
ENDBRANCH  14  17
ENDBRANCH   9  12
BRANCH   6  21
ATOM     20  C   UNL     1       1.089   3.750  19.798  0.00  0.00    +0.000 C 
ATOM     21  O   UNL     1       1.420   4.570  18.750  0.00  0.00    +0.000 OA
ENDBRANCH   6  21
ENDBRANCH   1  11
BRANCH   3  22
ATOM     22  C   UNL     1       0.917   9.253  20.737  0.00  0.00    +0.000 A 
ATOM     23  C   UNL     1       0.928   8.806  22.062  0.00  0.00    +0.000 A 
ATOM     24  C   UNL     1       0.181   9.478  23.027  0.00  0.00    +0.000 A 
ATOM     25  C   UNL     1      -0.615  10.571  22.676  0.00  0.00    +0.000 A 
ATOM     26  C   UNL     1      -0.671  11.035  21.341  0.00  0.00    +0.000 A 
ATOM     27  C   UNL     1       0.135  10.370  20.390  0.00  0.00    +0.000 A 
BRANCH  26  28
ATOM     28  C   UNL     1      -1.636  12.139  20.940  0.00  0.00    +0.000 C 
ATOM     29  N   UNL     1      -2.092  12.235  19.737  0.00  0.00    +0.000 NA
ATOM     30  N   UNL     1      -2.128  13.058  21.918  0.00  0.00    +0.000 N 
ATOM     31  H   UNL     1      -1.847  11.619  18.955  0.00  0.00    +0.000 HD
ATOM     32  H   UNL     1      -1.607  13.227  22.787  0.00  0.00    +0.000 HD
BRANCH  30  33
ATOM     33  C   UNL     1      -3.421  13.715  21.785  0.00  0.00    +0.000 C 
ATOM     34  C   UNL     1      -4.477  12.873  22.509  0.00  0.00    +0.000 C 
ATOM     35  C   UNL     1      -3.367  15.128  22.359  0.00  0.00    +0.000 C 
ENDBRANCH  30  33
ENDBRANCH  26  28
ENDBRANCH   3  22
TORSDOF 7
ENDMDL
MODEL 2
REMARK VINA RESULT:      -8.5      1.851      2.307
REMARK  Name = 
REMARK  12 active torsions:
REMARK  status: ('A' for Active; 'I' for Inactive)
REMARK    1  A    between atoms: C_1  and  O_2
REMARK    2  A    between atoms: O_2  and  C_3
REMARK    3  A    between atoms: C_6  and  C_7
REMARK    4  A    between atoms: N_9  and  C_10
REMARK    5  A    between atoms: C_10  and  C_11
REMARK    6  A    between atoms: C_10  and  C_12
REMARK    7  A    between atoms: C_14  and  C_15
REMARK    8  A    between atoms: N_17  and  C_18
REMARK    9  A    between atoms: C_22  and  C_23
REMARK   10  A    between atoms: N_25  and  C_26
REMARK   11  A    between atoms: C_26  and  C_27
REMARK   12  A    between atoms: C_26  and  C_28
REMARK                            x       y       z     vdW  Elec       q    Type
REMARK                         _______ _______ _______ _____ _____    ______ ____
ROOT
ATOM      1  C   UNL     1       2.744   7.592  18.136  0.00  0.00    +0.000 A 
ATOM      2  C   UNL     1       2.055   8.007  19.267  0.00  0.00    +0.000 A 
ATOM      3  N   UNL     1       1.549   9.225  18.975  0.00  0.00    +0.000 N 
ATOM      4  N   UNL     1       1.929   9.549  17.752  0.00  0.00    +0.000 NA
ATOM      5  N   UNL     1       2.658   8.584  17.229  0.00  0.00    +0.000 NA
ENDROOT
BRANCH   1  11
ATOM      6  C   UNL     1       2.862   5.101  18.427  0.00  0.00    +0.000 A 
ATOM      7  C   UNL     1       3.502   3.873  18.219  0.00  0.00    +0.000 A 
ATOM      8  C   UNL     1       4.615   3.786  17.400  0.00  0.00    +0.000 A 
ATOM      9  C   UNL     1       5.122   4.922  16.740  0.00  0.00    +0.000 A 
ATOM     10  C   UNL     1       4.506   6.173  17.008  0.00  0.00    +0.000 A 
ATOM     11  C   UNL     1       3.388   6.275  17.852  0.00  0.00    +0.000 A 
BRANCH   9  12
ATOM     12  C   UNL     1       6.225   4.795  15.718  0.00  0.00    +0.000 C 
ATOM     13  N   UNL     1       7.461   4.648  16.069  0.00  0.00    +0.000 NA
ATOM     14  N   UNL     1       5.911   4.726  14.327  0.00  0.00    +0.000 N 
ATOM     15  H   UNL     1       7.815   4.643  17.031  0.00  0.00    +0.000 HD
ATOM     16  H   UNL     1       5.019   5.083  13.969  0.00  0.00    +0.000 HD
BRANCH  14  17
ATOM     17  C   UNL     1       6.773   4.064  13.367  0.00  0.00    +0.000 C 
ATOM     18  C   UNL     1       5.899   3.308  12.361  0.00  0.00    +0.000 C 
ATOM     19  C   UNL     1       7.657   5.091  12.672  0.00  0.00    +0.000 C 
ENDBRANCH  14  17
ENDBRANCH   9  12
BRANCH   6  21
ATOM     20  C   UNL     1       1.514   4.551  20.347  0.00  0.00    +0.000 C 
ATOM     21  O   UNL     1       1.717   5.181  19.146  0.00  0.00    +0.000 OA
ENDBRANCH   6  21
ENDBRANCH   1  11
BRANCH   3  22
ATOM     22  C   UNL     1       0.658  10.036  19.757  0.00  0.00    +0.000 A 
ATOM     23  C   UNL     1       0.844  10.207  21.132  0.00  0.00    +0.000 A 
ATOM     24  C   UNL     1      -0.064  10.965  21.867  0.00  0.00    +0.000 A 
ATOM     25  C   UNL     1      -1.186  11.524  21.250  0.00  0.00    +0.000 A 
ATOM     26  C   UNL     1      -1.421  11.352  19.866  0.00  0.00    +0.000 A 
ATOM     27  C   UNL     1      -0.459  10.622  19.133  0.00  0.00    +0.000 A 
BRANCH  26  28
ATOM     28  C   UNL     1      -2.707  11.849  19.226  0.00  0.00    +0.000 C 
ATOM     29  N   UNL     1      -3.176  13.024  19.476  0.00  0.00    +0.000 NA
ATOM     30  N   UNL     1      -3.388  11.048  18.260  0.00  0.00    +0.000 N 
ATOM     31  H   UNL     1      -2.763  13.708  20.119  0.00  0.00    +0.000 HD
ATOM     32  H   UNL     1      -3.252  10.030  18.233  0.00  0.00    +0.000 HD
BRANCH  30  33
ATOM     33  C   UNL     1      -4.220  11.629  17.214  0.00  0.00    +0.000 C 
ATOM     34  C   UNL     1      -3.860  10.970  15.878  0.00  0.00    +0.000 C 
ATOM     35  C   UNL     1      -5.699  11.435  17.533  0.00  0.00    +0.000 C 
ENDBRANCH  30  33
ENDBRANCH  26  28
ENDBRANCH   3  22
TORSDOF 7
ENDMDL
MODEL 3
REMARK VINA RESULT:      -8.4      2.338      2.746
REMARK  Name = 
REMARK  12 active torsions:
REMARK  status: ('A' for Active; 'I' for Inactive)
REMARK    1  A    between atoms: C_1  and  O_2
REMARK    2  A    between atoms: O_2  and  C_3
REMARK    3  A    between atoms: C_6  and  C_7
REMARK    4  A    between atoms: N_9  and  C_10
REMARK    5  A    between atoms: C_10  and  C_11
REMARK    6  A    between atoms: C_10  and  C_12
REMARK    7  A    between atoms: C_14  and  C_15
REMARK    8  A    between atoms: N_17  and  C_18
REMARK    9  A    between atoms: C_22  and  C_23
REMARK   10  A    between atoms: N_25  and  C_26
REMARK   11  A    between atoms: C_26  and  C_27
REMARK   12  A    between atoms: C_26  and  C_28
REMARK                            x       y       z     vdW  Elec       q    Type
REMARK                         _______ _______ _______ _____ _____    ______ ____
ROOT
ATOM      1  C   UNL     1       2.302   6.819  18.691  0.00  0.00    +0.000 A 
ATOM      2  C   UNL     1       1.646   7.848  18.031  0.00  0.00    +0.000 A 
ATOM      3  N   UNL     1       1.311   8.751  18.979  0.00  0.00    +0.000 N 
ATOM      4  N   UNL     1       1.711   8.290  20.150  0.00  0.00    +0.000 NA
ATOM      5  N   UNL     1       2.303   7.121  20.004  0.00  0.00    +0.000 NA
ENDROOT
BRANCH   1  11
ATOM      6  C   UNL     1       2.481   4.337  18.358  0.00  0.00    +0.000 A 
ATOM      7  C   UNL     1       3.168   3.211  17.888  0.00  0.00    +0.000 A 
ATOM      8  C   UNL     1       4.324   3.351  17.137  0.00  0.00    +0.000 A 
ATOM      9  C   UNL     1       4.828   4.624  16.811  0.00  0.00    +0.000 A 
ATOM     10  C   UNL     1       4.161   5.758  17.347  0.00  0.00    +0.000 A 
ATOM     11  C   UNL     1       2.999   5.626  18.124  0.00  0.00    +0.000 A 
BRANCH   9  12
ATOM     12  C   UNL     1       5.985   4.777  15.853  0.00  0.00    +0.000 C 
ATOM     13  N   UNL     1       7.192   4.973  16.274  0.00  0.00    +0.000 NA
ATOM     14  N   UNL     1       5.786   4.598  14.452  0.00  0.00    +0.000 N 
ATOM     15  H   UNL     1       7.476   5.083  17.254  0.00  0.00    +0.000 HD
ATOM     16  H   UNL     1       4.853   4.695  14.034  0.00  0.00    +0.000 HD
BRANCH  14  17
ATOM     17  C   UNL     1       6.850   4.170  13.563  0.00  0.00    +0.000 C 
ATOM     18  C   UNL     1       6.227   3.459  12.357  0.00  0.00    +0.000 C 
ATOM     19  C   UNL     1       7.675   5.375  13.131  0.00  0.00    +0.000 C 
ENDBRANCH  14  17
ENDBRANCH   9  12
BRANCH   6  21
ATOM     20  C   UNL     1       1.096   3.402  20.094  0.00  0.00    +0.000 C 
ATOM     21  O   UNL     1       1.299   4.214  19.008  0.00  0.00    +0.000 OA
ENDBRANCH   6  21
ENDBRANCH   1  11
BRANCH   3  22
ATOM     22  C   UNL     1       0.726  10.052  18.810  0.00  0.00    +0.000 A 
ATOM     23  C   UNL     1       1.244  11.176  19.461  0.00  0.00    +0.000 A 
ATOM     24  C   UNL     1       0.625  12.414  19.306  0.00  0.00    +0.000 A 
ATOM     25  C   UNL     1      -0.537  12.537  18.540  0.00  0.00    +0.000 A 
ATOM     26  C   UNL     1      -1.104  11.418  17.887  0.00  0.00    +0.000 A 
ATOM     27  C   UNL     1      -0.430  10.184  18.017  0.00  0.00    +0.000 A 
BRANCH  26  28
ATOM     28  C   UNL     1      -2.436  11.530  17.164  0.00  0.00    +0.000 C 
ATOM     29  N   UNL     1      -2.549  11.262  15.907  0.00  0.00    +0.000 NA
ATOM     30  N   UNL     1      -3.624  11.861  17.887  0.00  0.00    +0.000 N 
ATOM     31  H   UNL     1      -1.784  10.978  15.287  0.00  0.00    +0.000 HD
ATOM     32  H   UNL     1      -3.570  12.359  18.783  0.00  0.00    +0.000 HD
BRANCH  30  33
ATOM     33  C   UNL     1      -4.945  11.429  17.451  0.00  0.00    +0.000 C 
ATOM     34  C   UNL     1      -5.569  10.568  18.554  0.00  0.00    +0.000 C 
ATOM     35  C   UNL     1      -5.829  12.634  17.138  0.00  0.00    +0.000 C 
ENDBRANCH  30  33
ENDBRANCH  26  28
ENDBRANCH   3  22
TORSDOF 7
ENDMDL
MODEL 4
REMARK VINA RESULT:      -8.3      4.020     11.448
REMARK  Name = 
REMARK  12 active torsions:
REMARK  status: ('A' for Active; 'I' for Inactive)
REMARK    1  A    between atoms: C_1  and  O_2
REMARK    2  A    between atoms: O_2  and  C_3
REMARK    3  A    between atoms: C_6  and  C_7
REMARK    4  A    between atoms: N_9  and  C_10
REMARK    5  A    between atoms: C_10  and  C_11
REMARK    6  A    between atoms: C_10  and  C_12
REMARK    7  A    between atoms: C_14  and  C_15
REMARK    8  A    between atoms: N_17  and  C_18
REMARK    9  A    between atoms: C_22  and  C_23
REMARK   10  A    between atoms: N_25  and  C_26
REMARK   11  A    between atoms: C_26  and  C_27
REMARK   12  A    between atoms: C_26  and  C_28
REMARK                            x       y       z     vdW  Elec       q    Type
REMARK                         _______ _______ _______ _____ _____    ______ ____
ROOT
ATOM      1  C   UNL     1      -0.421  11.432  22.218  0.00  0.00    +0.000 A 
ATOM      2  C   UNL     1       0.126  11.220  20.960  0.00  0.00    +0.000 A 
ATOM      3  N   UNL     1       0.703   9.999  21.001  0.00  0.00    +0.000 N 
ATOM      4  N   UNL     1       0.546   9.506  22.216  0.00  0.00    +0.000 NA
ATOM      5  N   UNL     1      -0.121  10.356  22.971  0.00  0.00    +0.000 NA
ENDROOT
BRANCH   1  11
ATOM      6  C   UNL     1      -0.730  13.837  22.865  0.00  0.00    +0.000 A 
ATOM      7  C   UNL     1      -1.517  14.876  23.379  0.00  0.00    +0.000 A 
ATOM      8  C   UNL     1      -2.857  14.672  23.666  0.00  0.00    +0.000 A 
ATOM      9  C   UNL     1      -3.469  13.425  23.432  0.00  0.00    +0.000 A 
ATOM     10  C   UNL     1      -2.647  12.361  22.972  0.00  0.00    +0.000 A 
ATOM     11  C   UNL     1      -1.284  12.553  22.696  0.00  0.00    +0.000 A 
BRANCH   9  12
ATOM     12  C   UNL     1      -4.961  13.254  23.582  0.00  0.00    +0.000 C 
ATOM     13  N   UNL     1      -5.642  13.957  24.427  0.00  0.00    +0.000 NA
ATOM     14  N   UNL     1      -5.675  12.379  22.710  0.00  0.00    +0.000 N 
ATOM     15  H   UNL     1      -5.257  14.645  25.084  0.00  0.00    +0.000 HD
ATOM     16  H   UNL     1      -5.193  11.623  22.210  0.00  0.00    +0.000 HD
BRANCH  14  17
ATOM     17  C   UNL     1      -7.079  12.567  22.399  0.00  0.00    +0.000 C 
ATOM     18  C   UNL     1      -7.269  12.429  20.885  0.00  0.00    +0.000 C 
ATOM     19  C   UNL     1      -7.916  11.546  23.158  0.00  0.00    +0.000 C 
ENDBRANCH  14  17
ENDBRANCH   9  12
BRANCH   6  21
ATOM     20  C   UNL     1       1.109  15.294  22.318  0.00  0.00    +0.000 C 
ATOM     21  O   UNL     1       0.553  14.052  22.490  0.00  0.00    +0.000 OA
ENDBRANCH   6  21
ENDBRANCH   1  11
BRANCH   3  22
ATOM     22  C   UNL     1       1.302   9.255  19.927  0.00  0.00    +0.000 A 
ATOM     23  C   UNL     1       1.338   9.757  18.623  0.00  0.00    +0.000 A 
ATOM     24  C   UNL     1       1.889   8.991  17.598  0.00  0.00    +0.000 A 
ATOM     25  C   UNL     1       2.369   7.704  17.854  0.00  0.00    +0.000 A 
ATOM     26  C   UNL     1       2.327   7.153  19.156  0.00  0.00    +0.000 A 
ATOM     27  C   UNL     1       1.811   7.969  20.187  0.00  0.00    +0.000 A 
BRANCH  26  28
ATOM     28  C   UNL     1       2.729   5.708  19.404  0.00  0.00    +0.000 C 
ATOM     29  N   UNL     1       3.776   5.406  20.095  0.00  0.00    +0.000 NA
ATOM     30  N   UNL     1       1.902   4.639  18.940  0.00  0.00    +0.000 N 
ATOM     31  H   UNL     1       4.428   6.077  20.514  0.00  0.00    +0.000 HD
ATOM     32  H   UNL     1       1.247   4.784  18.162  0.00  0.00    +0.000 HD
BRANCH  30  33
ATOM     33  C   UNL     1       1.869   3.340  19.598  0.00  0.00    +0.000 C 
ATOM     34  C   UNL     1       1.101   3.477  20.917  0.00  0.00    +0.000 C 
ATOM     35  C   UNL     1       1.215   2.297  18.696  0.00  0.00    +0.000 C 
ENDBRANCH  30  33
ENDBRANCH  26  28
ENDBRANCH   3  22
TORSDOF 7
ENDMDL
MODEL 5
REMARK VINA RESULT:      -8.2      1.438      1.820
REMARK  Name = 
REMARK  12 active torsions:
REMARK  status: ('A' for Active; 'I' for Inactive)
REMARK    1  A    between atoms: C_1  and  O_2
REMARK    2  A    between atoms: O_2  and  C_3
REMARK    3  A    between atoms: C_6  and  C_7
REMARK    4  A    between atoms: N_9  and  C_10
REMARK    5  A    between atoms: C_10  and  C_11
REMARK    6  A    between atoms: C_10  and  C_12
REMARK    7  A    between atoms: C_14  and  C_15
REMARK    8  A    between atoms: N_17  and  C_18
REMARK    9  A    between atoms: C_22  and  C_23
REMARK   10  A    between atoms: N_25  and  C_26
REMARK   11  A    between atoms: C_26  and  C_27
REMARK   12  A    between atoms: C_26  and  C_28
REMARK                            x       y       z     vdW  Elec       q    Type
REMARK                         _______ _______ _______ _____ _____    ______ ____
ROOT
ATOM      1  C   UNL     1       2.652   7.046  18.533  0.00  0.00    +0.000 A 
ATOM      2  C   UNL     1       2.214   7.376  19.808  0.00  0.00    +0.000 A 
ATOM      3  N   UNL     1       1.639   8.594  19.705  0.00  0.00    +0.000 N 
ATOM      4  N   UNL     1       1.745   8.998  18.452  0.00  0.00    +0.000 NA
ATOM      5  N   UNL     1       2.361   8.086  17.728  0.00  0.00    +0.000 NA
ENDROOT
BRANCH   1  11
ATOM      6  C   UNL     1       2.583   4.548  18.298  0.00  0.00    +0.000 A 
ATOM      7  C   UNL     1       3.165   3.338  17.896  0.00  0.00    +0.000 A 
ATOM      8  C   UNL     1       4.355   3.328  17.188  0.00  0.00    +0.000 A 
ATOM      9  C   UNL     1       5.001   4.529  16.835  0.00  0.00    +0.000 A 
ATOM     10  C   UNL     1       4.437   5.746  17.303  0.00  0.00    +0.000 A 
ATOM     11  C   UNL     1       3.241   5.766  18.038  0.00  0.00    +0.000 A 
BRANCH   9  12
ATOM     12  C   UNL     1       6.201   4.522  15.919  0.00  0.00    +0.000 C 
ATOM     13  N   UNL     1       7.381   4.223  16.351  0.00  0.00    +0.000 NA
ATOM     14  N   UNL     1       6.036   4.744  14.519  0.00  0.00    +0.000 N 
ATOM     15  H   UNL     1       7.629   4.008  17.324  0.00  0.00    +0.000 HD
ATOM     16  H   UNL     1       5.207   5.226  14.155  0.00  0.00    +0.000 HD
BRANCH  14  17
ATOM     17  C   UNL     1       6.962   4.219  13.534  0.00  0.00    +0.000 C 
ATOM     18  C   UNL     1       6.164   3.482  12.454  0.00  0.00    +0.000 C 
ATOM     19  C   UNL     1       7.783   5.355  12.940  0.00  0.00    +0.000 C 
ENDBRANCH  14  17
ENDBRANCH   9  12
BRANCH   6  21
ATOM     20  C   UNL     1       0.982   3.700  19.888  0.00  0.00    +0.000 C 
ATOM     21  O   UNL     1       1.372   4.574  18.905  0.00  0.00    +0.000 OA
ENDBRANCH   6  21
ENDBRANCH   1  11
BRANCH   3  22
ATOM     22  C   UNL     1       0.922   9.334  20.707  0.00  0.00    +0.000 A 
ATOM     23  C   UNL     1       0.471   8.723  21.881  0.00  0.00    +0.000 A 
ATOM     24  C   UNL     1      -0.257   9.460  22.812  0.00  0.00    +0.000 A 
ATOM     25  C   UNL     1      -0.580  10.797  22.563  0.00  0.00    +0.000 A 
ATOM     26  C   UNL     1      -0.164  11.441  21.375  0.00  0.00    +0.000 A 
ATOM     27  C   UNL     1       0.617  10.687  20.471  0.00  0.00    +0.000 A 
BRANCH  26  28
ATOM     28  C   UNL     1      -0.627  12.851  21.049  0.00  0.00    +0.000 C 
ATOM     29  N   UNL     1      -1.651  13.378  21.631  0.00  0.00    +0.000 NA
ATOM     30  N   UNL     1       0.118  13.664  20.140  0.00  0.00    +0.000 N 
ATOM     31  H   UNL     1      -2.246  12.916  22.327  0.00  0.00    +0.000 HD
ATOM     32  H   UNL     1       0.738  13.235  19.442  0.00  0.00    +0.000 HD
BRANCH  30  33
ATOM     33  C   UNL     1       0.117  15.118  20.217  0.00  0.00    +0.000 C 
ATOM     34  C   UNL     1       1.541  15.594  20.527  0.00  0.00    +0.000 C 
ATOM     35  C   UNL     1      -0.385  15.726  18.911  0.00  0.00    +0.000 C 
ENDBRANCH  30  33
ENDBRANCH  26  28
ENDBRANCH   3  22
TORSDOF 7
ENDMDL
MODEL 6
REMARK VINA RESULT:      -8.2      2.813     10.640
REMARK  Name = 
REMARK  12 active torsions:
REMARK  status: ('A' for Active; 'I' for Inactive)
REMARK    1  A    between atoms: C_1  and  O_2
REMARK    2  A    between atoms: O_2  and  C_3
REMARK    3  A    between atoms: C_6  and  C_7
REMARK    4  A    between atoms: N_9  and  C_10
REMARK    5  A    between atoms: C_10  and  C_11
REMARK    6  A    between atoms: C_10  and  C_12
REMARK    7  A    between atoms: C_14  and  C_15
REMARK    8  A    between atoms: N_17  and  C_18
REMARK    9  A    between atoms: C_22  and  C_23
REMARK   10  A    between atoms: N_25  and  C_26
REMARK   11  A    between atoms: C_26  and  C_27
REMARK   12  A    between atoms: C_26  and  C_28
REMARK                            x       y       z     vdW  Elec       q    Type
REMARK                         _______ _______ _______ _____ _____    ______ ____
ROOT
ATOM      1  C   UNL     1       1.040   9.615  18.202  0.00  0.00    +0.000 A 
ATOM      2  C   UNL     1       1.320   8.300  18.543  0.00  0.00    +0.000 A 
ATOM      3  N   UNL     1       2.548   8.034  18.047  0.00  0.00    +0.000 N 
ATOM      4  N   UNL     1       2.982   9.111  17.417  0.00  0.00    +0.000 NA
ATOM      5  N   UNL     1       2.086  10.075  17.488  0.00  0.00    +0.000 NA
ENDROOT
BRANCH   1  11
ATOM      6  C   UNL     1      -0.008  11.316  19.722  0.00  0.00    +0.000 A 
ATOM      7  C   UNL     1      -1.112  12.068  20.142  0.00  0.00    +0.000 A 
ATOM      8  C   UNL     1      -2.300  12.038  19.429  0.00  0.00    +0.000 A 
ATOM      9  C   UNL     1      -2.423  11.270  18.256  0.00  0.00    +0.000 A 
ATOM     10  C   UNL     1      -1.319  10.461  17.875  0.00  0.00    +0.000 A 
ATOM     11  C   UNL     1      -0.118  10.470  18.601  0.00  0.00    +0.000 A 
BRANCH   9  12
ATOM     12  C   UNL     1      -3.655  11.372  17.390  0.00  0.00    +0.000 C 
ATOM     13  N   UNL     1      -3.777  10.685  16.301  0.00  0.00    +0.000 NA
ATOM     14  N   UNL     1      -4.769  12.157  17.815  0.00  0.00    +0.000 N 
ATOM     15  H   UNL     1      -3.069  10.058  15.904  0.00  0.00    +0.000 HD
ATOM     16  H   UNL     1      -4.653  12.906  18.506  0.00  0.00    +0.000 HD
BRANCH  14  17
ATOM     17  C   UNL     1      -6.126  11.879  17.384  0.00  0.00    +0.000 C 
ATOM     18  C   UNL     1      -6.838  11.087  18.485  0.00  0.00    +0.000 C 
ATOM     19  C   UNL     1      -6.849  13.186  17.084  0.00  0.00    +0.000 C 
ENDBRANCH  14  17
ENDBRANCH   9  12
BRANCH   6  21
ATOM     20  C   UNL     1       1.836  12.596  20.599  0.00  0.00    +0.000 C 
ATOM     21  O   UNL     1       1.186  11.414  20.355  0.00  0.00    +0.000 OA
ENDBRANCH   6  21
ENDBRANCH   1  11
BRANCH   3  22
ATOM     22  C   UNL     1       3.351   6.857  18.227  0.00  0.00    +0.000 A 
ATOM     23  C   UNL     1       3.227   6.055  19.366  0.00  0.00    +0.000 A 
ATOM     24  C   UNL     1       4.051   4.944  19.527  0.00  0.00    +0.000 A 
ATOM     25  C   UNL     1       5.034   4.646  18.579  0.00  0.00    +0.000 A 
ATOM     26  C   UNL     1       5.206   5.447  17.427  0.00  0.00    +0.000 A 
ATOM     27  C   UNL     1       4.324   6.538  17.261  0.00  0.00    +0.000 A 
BRANCH  26  28
ATOM     28  C   UNL     1       6.358   5.196  16.468  0.00  0.00    +0.000 C 
ATOM     29  N   UNL     1       7.510   4.795  16.885  0.00  0.00    +0.000 NA
ATOM     30  N   UNL     1       6.163   5.322  15.058  0.00  0.00    +0.000 N 
ATOM     31  H   UNL     1       7.767   4.630  17.864  0.00  0.00    +0.000 HD
ATOM     32  H   UNL     1       5.401   5.901  14.684  0.00  0.00    +0.000 HD
BRANCH  30  33
ATOM     33  C   UNL     1       6.955   4.571  14.093  0.00  0.00    +0.000 C 
ATOM     34  C   UNL     1       6.008   3.743  13.219  0.00  0.00    +0.000 C 
ATOM     35  C   UNL     1       7.797   5.514  13.238  0.00  0.00    +0.000 C 
ENDBRANCH  30  33
ENDBRANCH  26  28
ENDBRANCH   3  22
TORSDOF 7
ENDMDL
MODEL 7
REMARK VINA RESULT:      -8.2      3.817     11.719
REMARK  Name = 
REMARK  12 active torsions:
REMARK  status: ('A' for Active; 'I' for Inactive)
REMARK    1  A    between atoms: C_1  and  O_2
REMARK    2  A    between atoms: O_2  and  C_3
REMARK    3  A    between atoms: C_6  and  C_7
REMARK    4  A    between atoms: N_9  and  C_10
REMARK    5  A    between atoms: C_10  and  C_11
REMARK    6  A    between atoms: C_10  and  C_12
REMARK    7  A    between atoms: C_14  and  C_15
REMARK    8  A    between atoms: N_17  and  C_18
REMARK    9  A    between atoms: C_22  and  C_23
REMARK   10  A    between atoms: N_25  and  C_26
REMARK   11  A    between atoms: C_26  and  C_27
REMARK   12  A    between atoms: C_26  and  C_28
REMARK                            x       y       z     vdW  Elec       q    Type
REMARK                         _______ _______ _______ _____ _____    ______ ____
ROOT
ATOM      1  C   UNL     1      -0.049  11.037  22.207  0.00  0.00    +0.000 A 
ATOM      2  C   UNL     1       0.398  10.618  20.962  0.00  0.00    +0.000 A 
ATOM      3  N   UNL     1       1.033   9.442  21.166  0.00  0.00    +0.000 N 
ATOM      4  N   UNL     1       1.002   9.173  22.459  0.00  0.00    +0.000 NA
ATOM      5  N   UNL     1       0.362  10.125  23.108  0.00  0.00    +0.000 NA
ENDROOT
BRANCH   1  11
ATOM      6  C   UNL     1      -0.433  13.511  22.389  0.00  0.00    +0.000 A 
ATOM      7  C   UNL     1      -1.219  14.603  22.779  0.00  0.00    +0.000 A 
ATOM      8  C   UNL     1      -2.500  14.413  23.270  0.00  0.00    +0.000 A 
ATOM      9  C   UNL     1      -3.054  13.122  23.372  0.00  0.00    +0.000 A 
ATOM     10  C   UNL     1      -2.226  12.018  23.036  0.00  0.00    +0.000 A 
ATOM     11  C   UNL     1      -0.920  12.200  22.555  0.00  0.00    +0.000 A 
BRANCH   9  12
ATOM     12  C   UNL     1      -4.504  12.930  23.744  0.00  0.00    +0.000 C 
ATOM     13  N   UNL     1      -4.860  12.125  24.691  0.00  0.00    +0.000 NA
ATOM     14  N   UNL     1      -5.516  13.722  23.123  0.00  0.00    +0.000 N 
ATOM     15  H   UNL     1      -4.232  11.527  25.239  0.00  0.00    +0.000 HD
ATOM     16  H   UNL     1      -5.350  14.176  22.217  0.00  0.00    +0.000 HD
BRANCH  14  17
ATOM     17  C   UNL     1      -6.780  14.018  23.771  0.00  0.00    +0.000 C 
ATOM     18  C   UNL     1      -6.965  15.538  23.816  0.00  0.00    +0.000 C 
ATOM     19  C   UNL     1      -7.916  13.342  23.015  0.00  0.00    +0.000 C 
ENDBRANCH  14  17
ENDBRANCH   9  12
BRANCH   6  21
ATOM     20  C   UNL     1       1.327  14.918  21.535  0.00  0.00    +0.000 C 
ATOM     21  O   UNL     1       0.781  13.692  21.817  0.00  0.00    +0.000 OA
ENDBRANCH   6  21
ENDBRANCH   1  11
BRANCH   3  22
ATOM     22  C   UNL     1       1.573   8.535  20.192  0.00  0.00    +0.000 A 
ATOM     23  C   UNL     1       1.746   8.916  18.857  0.00  0.00    +0.000 A 
ATOM     24  C   UNL     1       2.233   7.997  17.931  0.00  0.00    +0.000 A 
ATOM     25  C   UNL     1       2.510   6.682  18.313  0.00  0.00    +0.000 A 
ATOM     26  C   UNL     1       2.323   6.254  19.648  0.00  0.00    +0.000 A 
ATOM     27  C   UNL     1       1.878   7.217  20.580  0.00  0.00    +0.000 A 
BRANCH  26  28
ATOM     28  C   UNL     1       2.501   4.793  20.030  0.00  0.00    +0.000 C 
ATOM     29  N   UNL     1       2.275   4.375  21.229  0.00  0.00    +0.000 NA
ATOM     30  N   UNL     1       2.849   3.825  19.038  0.00  0.00    +0.000 N 
ATOM     31  H   UNL     1       1.984   4.959  22.020  0.00  0.00    +0.000 HD
ATOM     32  H   UNL     1       3.319   4.110  18.170  0.00  0.00    +0.000 HD
BRANCH  30  33
ATOM     33  C   UNL     1       2.475   2.422  19.156  0.00  0.00    +0.000 C 
ATOM     34  C   UNL     1       1.031   2.257  18.669  0.00  0.00    +0.000 C 
ATOM     35  C   UNL     1       3.423   1.543  18.346  0.00  0.00    +0.000 C 
ENDBRANCH  30  33
ENDBRANCH  26  28
ENDBRANCH   3  22
TORSDOF 7
ENDMDL
MODEL 8
REMARK VINA RESULT:      -8.1      1.305      1.477
REMARK  Name = 
REMARK  12 active torsions:
REMARK  status: ('A' for Active; 'I' for Inactive)
REMARK    1  A    between atoms: C_1  and  O_2
REMARK    2  A    between atoms: O_2  and  C_3
REMARK    3  A    between atoms: C_6  and  C_7
REMARK    4  A    between atoms: N_9  and  C_10
REMARK    5  A    between atoms: C_10  and  C_11
REMARK    6  A    between atoms: C_10  and  C_12
REMARK    7  A    between atoms: C_14  and  C_15
REMARK    8  A    between atoms: N_17  and  C_18
REMARK    9  A    between atoms: C_22  and  C_23
REMARK   10  A    between atoms: N_25  and  C_26
REMARK   11  A    between atoms: C_26  and  C_27
REMARK   12  A    between atoms: C_26  and  C_28
REMARK                            x       y       z     vdW  Elec       q    Type
REMARK                         _______ _______ _______ _____ _____    ______ ____
ROOT
ATOM      1  C   UNL     1       2.577   7.029  18.595  0.00  0.00    +0.000 A 
ATOM      2  C   UNL     1       2.174   7.391  19.873  0.00  0.00    +0.000 A 
ATOM      3  N   UNL     1       1.552   8.585  19.748  0.00  0.00    +0.000 N 
ATOM      4  N   UNL     1       1.598   8.945  18.479  0.00  0.00    +0.000 NA
ATOM      5  N   UNL     1       2.219   8.027  17.765  0.00  0.00    +0.000 NA
ENDROOT
BRANCH   1  11
ATOM      6  C   UNL     1       2.644   4.521  18.534  0.00  0.00    +0.000 A 
ATOM      7  C   UNL     1       3.258   3.321  18.152  0.00  0.00    +0.000 A 
ATOM      8  C   UNL     1       4.366   3.327  17.320  0.00  0.00    +0.000 A 
ATOM      9  C   UNL     1       4.893   4.534  16.822  0.00  0.00    +0.000 A 
ATOM     10  C   UNL     1       4.304   5.748  17.267  0.00  0.00    +0.000 A 
ATOM     11  C   UNL     1       3.192   5.752  18.125  0.00  0.00    +0.000 A 
BRANCH   9  12
ATOM     12  C   UNL     1       5.988   4.530  15.784  0.00  0.00    +0.000 C 
ATOM     13  N   UNL     1       7.237   4.489  16.116  0.00  0.00    +0.000 NA
ATOM     14  N   UNL     1       5.662   4.462  14.396  0.00  0.00    +0.000 N 
ATOM     15  H   UNL     1       7.604   4.496  17.075  0.00  0.00    +0.000 HD
ATOM     16  H   UNL     1       4.736   4.744  14.057  0.00  0.00    +0.000 HD
BRANCH  14  17
ATOM     17  C   UNL     1       6.568   3.901  13.411  0.00  0.00    +0.000 C 
ATOM     18  C   UNL     1       5.742   3.340  12.249  0.00  0.00    +0.000 C 
ATOM     19  C   UNL     1       7.539   4.973  12.935  0.00  0.00    +0.000 C 
ENDBRANCH  14  17
ENDBRANCH   9  12
BRANCH   6  21
ATOM     20  C   UNL     1       0.863   3.388  19.696  0.00  0.00    +0.000 C 
ATOM     21  O   UNL     1       1.504   4.521  19.265  0.00  0.00    +0.000 OA
ENDBRANCH   6  21
ENDBRANCH   1  11
BRANCH   3  22
ATOM     22  C   UNL     1       0.847   9.336  20.749  0.00  0.00    +0.000 A 
ATOM     23  C   UNL     1       0.232   8.706  21.836  0.00  0.00    +0.000 A 
ATOM     24  C   UNL     1      -0.479   9.462  22.765  0.00  0.00    +0.000 A 
ATOM     25  C   UNL     1      -0.621  10.842  22.599  0.00  0.00    +0.000 A 
ATOM     26  C   UNL     1      -0.035  11.509  21.499  0.00  0.00    +0.000 A 
ATOM     27  C   UNL     1       0.724  10.730  20.598  0.00  0.00    +0.000 A 
BRANCH  26  28
ATOM     28  C   UNL     1      -0.301  12.985  21.251  0.00  0.00    +0.000 C 
ATOM     29  N   UNL     1      -1.143  13.381  20.357  0.00  0.00    +0.000 NA
ATOM     30  N   UNL     1       0.323  13.978  22.068  0.00  0.00    +0.000 N 
ATOM     31  H   UNL     1      -1.682  12.771  19.734  0.00  0.00    +0.000 HD
ATOM     32  H   UNL     1       1.192  13.769  22.574  0.00  0.00    +0.000 HD
BRANCH  30  33
ATOM     33  C   UNL     1      -0.282  15.282  22.305  0.00  0.00    +0.000 C 
ATOM     34  C   UNL     1      -0.991  15.255  23.663  0.00  0.00    +0.000 C 
ATOM     35  C   UNL     1       0.778  16.380  22.269  0.00  0.00    +0.000 C 
ENDBRANCH  30  33
ENDBRANCH  26  28
ENDBRANCH   3  22
TORSDOF 7
ENDMDL
MODEL 9
REMARK VINA RESULT:      -8.1      2.110      2.509
REMARK  Name = 
REMARK  12 active torsions:
REMARK  status: ('A' for Active; 'I' for Inactive)
REMARK    1  A    between atoms: C_1  and  O_2
REMARK    2  A    between atoms: O_2  and  C_3
REMARK    3  A    between atoms: C_6  and  C_7
REMARK    4  A    between atoms: N_9  and  C_10
REMARK    5  A    between atoms: C_10  and  C_11
REMARK    6  A    between atoms: C_10  and  C_12
REMARK    7  A    between atoms: C_14  and  C_15
REMARK    8  A    between atoms: N_17  and  C_18
REMARK    9  A    between atoms: C_22  and  C_23
REMARK   10  A    between atoms: N_25  and  C_26
REMARK   11  A    between atoms: C_26  and  C_27
REMARK   12  A    between atoms: C_26  and  C_28
REMARK                            x       y       z     vdW  Elec       q    Type
REMARK                         _______ _______ _______ _____ _____    ______ ____
ROOT
ATOM      1  C   UNL     1       2.680   7.925  18.140  0.00  0.00    +0.000 A 
ATOM      2  C   UNL     1       1.696   8.336  19.029  0.00  0.00    +0.000 A 
ATOM      3  N   UNL     1       1.271   9.541  18.590  0.00  0.00    +0.000 N 
ATOM      4  N   UNL     1       1.971   9.862  17.517  0.00  0.00    +0.000 NA
ATOM      5  N   UNL     1       2.834   8.907  17.232  0.00  0.00    +0.000 NA
ENDROOT
BRANCH   1  11
ATOM      6  C   UNL     1       2.983   5.544  18.874  0.00  0.00    +0.000 A 
ATOM      7  C   UNL     1       3.697   4.339  18.859  0.00  0.00    +0.000 A 
ATOM      8  C   UNL     1       4.776   4.167  18.008  0.00  0.00    +0.000 A 
ATOM      9  C   UNL     1       5.173   5.189  17.123  0.00  0.00    +0.000 A 
ATOM     10  C   UNL     1       4.484   6.430  17.193  0.00  0.00    +0.000 A 
ATOM     11  C   UNL     1       3.401   6.619  18.065  0.00  0.00    +0.000 A 
BRANCH   9  12
ATOM     12  C   UNL     1       6.236   4.941  16.080  0.00  0.00    +0.000 C 
ATOM     13  N   UNL     1       7.450   4.644  16.408  0.00  0.00    +0.000 NA
ATOM     14  N   UNL     1       5.892   4.923  14.695  0.00  0.00    +0.000 N 
ATOM     15  H   UNL     1       7.818   4.588  17.364  0.00  0.00    +0.000 HD
ATOM     16  H   UNL     1       5.042   5.387  14.356  0.00  0.00    +0.000 HD
BRANCH  14  17
ATOM     17  C   UNL     1       6.652   4.171  13.715  0.00  0.00    +0.000 C 
ATOM     18  C   UNL     1       5.674   3.476  12.762  0.00  0.00    +0.000 C 
ATOM     19  C   UNL     1       7.590   5.105  12.963  0.00  0.00    +0.000 C 
ENDBRANCH  14  17
ENDBRANCH   9  12
BRANCH   6  21
ATOM     20  C   UNL     1       1.548   4.880  20.692  0.00  0.00    +0.000 C 
ATOM     21  O   UNL     1       1.869   5.687  19.630  0.00  0.00    +0.000 OA
ENDBRANCH   6  21
ENDBRANCH   1  11
BRANCH   3  22
ATOM     22  C   UNL     1       0.183  10.340  19.081  0.00  0.00    +0.000 A 
ATOM     23  C   UNL     1       0.186  10.857  20.380  0.00  0.00    +0.000 A 
ATOM     24  C   UNL     1      -0.906  11.592  20.837  0.00  0.00    +0.000 A 
ATOM     25  C   UNL     1      -2.025  11.783  20.023  0.00  0.00    +0.000 A 
ATOM     26  C   UNL     1      -2.074  11.253  18.713  0.00  0.00    +0.000 A 
ATOM     27  C   UNL     1      -0.935  10.556  18.253  0.00  0.00    +0.000 A 
BRANCH  26  28
ATOM     28  C   UNL     1      -3.342  11.351  17.880  0.00  0.00    +0.000 C 
ATOM     29  N   UNL     1      -3.502  10.654  16.806  0.00  0.00    +0.000 NA
ATOM     30  N   UNL     1      -4.431  12.166  18.317  0.00  0.00    +0.000 N 
ATOM     31  H   UNL     1      -2.815  10.005  16.408  0.00  0.00    +0.000 HD
ATOM     32  H   UNL     1      -4.274  12.946  18.967  0.00  0.00    +0.000 HD
BRANCH  30  33
ATOM     33  C   UNL     1      -5.812  11.880  17.952  0.00  0.00    +0.000 C 
ATOM     34  C   UNL     1      -6.619  11.642  19.232  0.00  0.00    +0.000 C 
ATOM     35  C   UNL     1      -6.405  13.031  17.144  0.00  0.00    +0.000 C 
ENDBRANCH  30  33
ENDBRANCH  26  28
ENDBRANCH   3  22
TORSDOF 7
ENDMDL
