MODEL 1
REMARK VINA RESULT:      -7.0      0.000      0.000
REMARK  Name = 
REMARK  4 active torsions:
REMARK  status: ('A' for Active; 'I' for Inactive)
REMARK    1  A    between atoms: C_1  and  C_2
REMARK    2  A    between atoms: C_4  and  C_5
REMARK    3  A    between atoms: C_9  and  C_11
REMARK    4  A    between atoms: C_15  and  C_16
REMARK                            x       y       z     vdW  Elec       q    Type
REMARK                         _______ _______ _______ _____ _____    ______ ____
ROOT
ATOM      1  C   UNL     1       4.479   6.157  16.965  0.00  0.00    +0.000 A 
ATOM      2  S   UNL     1       4.209   7.856  17.053  0.00  0.00    +0.000 S 
ATOM      3  C   UNL     1       2.982   7.589  18.205  0.00  0.00    +0.000 A 
ATOM      4  N   UNL     1       2.338   8.715  18.637  0.00  0.00    +0.000 N 
ATOM      5  C   UNL     1       1.421   8.674  19.659  0.00  0.00    +0.000 C 
ATOM      6  O   UNL     1       1.073   7.704  20.318  0.00  0.00    +0.000 OA
ATOM      7  N   UNL     1       2.790   6.350  18.565  0.00  0.00    +0.000 NA
ATOM      8  C   UNL     1       3.671   5.512  17.893  0.00  0.00    +0.000 A 
ATOM      9  H   UNL     1       2.597   9.590  18.210  0.00  0.00    +0.000 HD
ENDROOT
BRANCH   1  13
ATOM     10  C   UNL     1       6.485   3.786  13.104  0.00  0.00    +0.000 C 
ATOM     11  C   UNL     1       6.210   4.504  14.360  0.00  0.00    +0.000 A 
ATOM     12  N   UNL     1       5.091   4.647  15.035  0.00  0.00    +0.000 NA
ATOM     13  C   UNL     1       5.458   5.541  16.019  0.00  0.00    +0.000 A 
ATOM     14  N   UNL     1       6.763   5.849  16.011  0.00  0.00    +0.000 NA
ATOM     15  O   UNL     1       7.262   5.170  14.910  0.00  0.00    +0.000 OA
ENDBRANCH   1  13
BRANCH   8  16
ATOM     16  C   UNL     1       3.697   4.094  18.259  0.00  0.00    +0.000 A 
ATOM     17  C   UNL     1       2.936   3.181  17.519  0.00  0.00    +0.000 A 
ATOM     18  C   UNL     1       2.935   1.821  17.848  0.00  0.00    +0.000 A 
ATOM     19  C   UNL     1       3.699   1.359  18.918  0.00  0.00    +0.000 A 
ATOM     20  C   UNL     1       4.435   2.260  19.682  0.00  0.00    +0.000 A 
ATOM     21  C   UNL     1       4.408   3.622  19.373  0.00  0.00    +0.000 A 
ENDBRANCH   8  16
BRANCH   5  22
ATOM     22  C   UNL     1       0.856  10.021  19.985  0.00  0.00    +0.000 C 
ATOM     23  C   UNL     1      -0.492  10.445  19.440  0.00  0.00    +0.000 C 
ATOM     24  C   UNL     1      -0.348  10.114  20.897  0.00  0.00    +0.000 C 
ENDBRANCH   5  22
TORSDOF 3
ENDMDL
MODEL 2
REMARK VINA RESULT:      -7.0      1.876      6.660
REMARK  Name = 
REMARK  4 active torsions:
REMARK  status: ('A' for Active; 'I' for Inactive)
REMARK    1  A    between atoms: C_1  and  C_2
REMARK    2  A    between atoms: C_4  and  C_5
REMARK    3  A    between atoms: C_9  and  C_11
REMARK    4  A    between atoms: C_15  and  C_16
REMARK                            x       y       z     vdW  Elec       q    Type
REMARK                         _______ _______ _______ _____ _____    ______ ____
ROOT
ATOM      1  C   UNL     1       3.110   6.699  18.213  0.00  0.00    +0.000 A 
ATOM      2  S   UNL     1       4.079   7.195  16.877  0.00  0.00    +0.000 S 
ATOM      3  C   UNL     1       4.675   5.606  16.736  0.00  0.00    +0.000 A 
ATOM      4  N   UNL     1       5.607   5.421  15.752  0.00  0.00    +0.000 N 
ATOM      5  C   UNL     1       6.079   4.173  15.431  0.00  0.00    +0.000 C 
ATOM      6  O   UNL     1       5.753   3.098  15.915  0.00  0.00    +0.000 OA
ATOM      7  N   UNL     1       4.180   4.728  17.565  0.00  0.00    +0.000 NA
ATOM      8  C   UNL     1       3.245   5.330  18.398  0.00  0.00    +0.000 A 
ATOM      9  H   UNL     1       5.901   6.234  15.234  0.00  0.00    +0.000 HD
ENDROOT
BRANCH   1  13
ATOM     10  C   UNL     1       0.926   9.121  21.944  0.00  0.00    +0.000 C 
ATOM     11  C   UNL     1       1.378   8.600  20.643  0.00  0.00    +0.000 A 
ATOM     12  N   UNL     1       1.985   7.475  20.337  0.00  0.00    +0.000 NA
ATOM     13  C   UNL     1       2.269   7.651  18.999  0.00  0.00    +0.000 A 
ATOM     14  N   UNL     1       1.767   8.784  18.485  0.00  0.00    +0.000 NA
ATOM     15  O   UNL     1       1.184   9.417  19.572  0.00  0.00    +0.000 OA
ENDBRANCH   1  13
BRANCH   8  16
ATOM     16  C   UNL     1       2.481   4.478  19.313  0.00  0.00    +0.000 A 
ATOM     17  C   UNL     1       2.917   4.331  20.636  0.00  0.00    +0.000 A 
ATOM     18  C   UNL     1       2.214   3.520  21.533  0.00  0.00    +0.000 A 
ATOM     19  C   UNL     1       1.064   2.851  21.118  0.00  0.00    +0.000 A 
ATOM     20  C   UNL     1       0.638   2.963  19.798  0.00  0.00    +0.000 A 
ATOM     21  C   UNL     1       1.360   3.746  18.895  0.00  0.00    +0.000 A 
ENDBRANCH   8  16
BRANCH   5  22
ATOM     22  C   UNL     1       7.074   4.199  14.312  0.00  0.00    +0.000 C 
ATOM     23  C   UNL     1       6.648   3.879  12.894  0.00  0.00    +0.000 C 
ATOM     24  C   UNL     1       6.983   5.294  13.271  0.00  0.00    +0.000 C 
ENDBRANCH   5  22
TORSDOF 3
ENDMDL
MODEL 3
REMARK VINA RESULT:      -7.0      1.884      6.587
REMARK  Name = 
REMARK  4 active torsions:
REMARK  status: ('A' for Active; 'I' for Inactive)
REMARK    1  A    between atoms: C_1  and  C_2
REMARK    2  A    between atoms: C_4  and  C_5
REMARK    3  A    between atoms: C_9  and  C_11
REMARK    4  A    between atoms: C_15  and  C_16
REMARK                            x       y       z     vdW  Elec       q    Type
REMARK                         _______ _______ _______ _____ _____    ______ ____
ROOT
ATOM      1  C   UNL     1       3.104   6.703  18.233  0.00  0.00    +0.000 A 
ATOM      2  S   UNL     1       4.052   7.201  16.883  0.00  0.00    +0.000 S 
ATOM      3  C   UNL     1       4.670   5.619  16.749  0.00  0.00    +0.000 A 
ATOM      4  N   UNL     1       5.593   5.440  15.756  0.00  0.00    +0.000 N 
ATOM      5  C   UNL     1       6.080   4.196  15.441  0.00  0.00    +0.000 C 
ATOM      6  O   UNL     1       5.774   3.120  15.937  0.00  0.00    +0.000 OA
ATOM      7  N   UNL     1       4.196   4.742  17.590  0.00  0.00    +0.000 NA
ATOM      8  C   UNL     1       3.261   5.337  18.428  0.00  0.00    +0.000 A 
ATOM      9  H   UNL     1       5.870   6.252  15.228  0.00  0.00    +0.000 HD
ENDROOT
BRANCH   1  13
ATOM     10  C   UNL     1       0.888   9.091  21.967  0.00  0.00    +0.000 C 
ATOM     11  C   UNL     1       1.353   8.583  20.665  0.00  0.00    +0.000 A 
ATOM     12  N   UNL     1       1.959   7.459  20.353  0.00  0.00    +0.000 NA
ATOM     13  C   UNL     1       2.258   7.649  19.021  0.00  0.00    +0.000 A 
ATOM     14  N   UNL     1       1.767   8.790  18.514  0.00  0.00    +0.000 NA
ATOM     15  O   UNL     1       1.174   9.413  19.601  0.00  0.00    +0.000 OA
ENDBRANCH   1  13
BRANCH   8  16
ATOM     16  C   UNL     1       2.520   4.482  19.360  0.00  0.00    +0.000 A 
ATOM     17  C   UNL     1       1.377   3.810  18.909  0.00  0.00    +0.000 A 
ATOM     18  C   UNL     1       0.643   2.992  19.774  0.00  0.00    +0.000 A 
ATOM     19  C   UNL     1       1.047   2.834  21.099  0.00  0.00    +0.000 A 
ATOM     20  C   UNL     1       2.161   3.523  21.568  0.00  0.00    +0.000 A 
ATOM     21  C   UNL     1       2.874   4.366  20.711  0.00  0.00    +0.000 A 
ENDBRANCH   8  16
BRANCH   5  22
ATOM     22  C   UNL     1       7.061   4.226  14.310  0.00  0.00    +0.000 C 
ATOM     23  C   UNL     1       6.633   3.857  12.906  0.00  0.00    +0.000 C 
ATOM     24  C   UNL     1       6.923   5.290  13.243  0.00  0.00    +0.000 C 
ENDBRANCH   5  22
TORSDOF 3
ENDMDL
MODEL 4
REMARK VINA RESULT:      -7.0      2.002      2.167
REMARK  Name = 
REMARK  4 active torsions:
REMARK  status: ('A' for Active; 'I' for Inactive)
REMARK    1  A    between atoms: C_1  and  C_2
REMARK    2  A    between atoms: C_4  and  C_5
REMARK    3  A    between atoms: C_9  and  C_11
REMARK    4  A    between atoms: C_15  and  C_16
REMARK                            x       y       z     vdW  Elec       q    Type
REMARK                         _______ _______ _______ _____ _____    ______ ____
ROOT
ATOM      1  C   UNL     1       3.459   6.439  18.036  0.00  0.00    +0.000 A 
ATOM      2  S   UNL     1       3.518   8.110  17.619  0.00  0.00    +0.000 S 
ATOM      3  C   UNL     1       2.096   8.373  18.520  0.00  0.00    +0.000 A 
ATOM      4  N   UNL     1       1.626   9.657  18.500  0.00  0.00    +0.000 N 
ATOM      5  C   UNL     1       0.569  10.050  19.283  0.00  0.00    +0.000 C 
ATOM      6  O   UNL     1      -0.063   9.377  20.086  0.00  0.00    +0.000 OA
ATOM      7  N   UNL     1       1.608   7.335  19.143  0.00  0.00    +0.000 NA
ATOM      8  C   UNL     1       2.402   6.219  18.910  0.00  0.00    +0.000 A 
ATOM      9  H   UNL     1       2.117  10.321  17.923  0.00  0.00    +0.000 HD
ENDROOT
BRANCH   1  13
ATOM     10  C   UNL     1       6.370   3.800  15.017  0.00  0.00    +0.000 C 
ATOM     11  C   UNL     1       5.615   4.365  16.149  0.00  0.00    +0.000 A 
ATOM     12  N   UNL     1       4.558   5.147  16.165  0.00  0.00    +0.000 NA
ATOM     13  C   UNL     1       4.434   5.439  17.507  0.00  0.00    +0.000 A 
ATOM     14  N   UNL     1       5.307   4.784  18.287  0.00  0.00    +0.000 NA
ATOM     15  O   UNL     1       6.095   4.078  17.389  0.00  0.00    +0.000 OA
ENDBRANCH   1  13
BRANCH   8  16
ATOM     16  C   UNL     1       2.091   4.982  19.632  0.00  0.00    +0.000 A 
ATOM     17  C   UNL     1       1.382   3.968  18.976  0.00  0.00    +0.000 A 
ATOM     18  C   UNL     1       1.063   2.778  19.639  0.00  0.00    +0.000 A 
ATOM     19  C   UNL     1       1.453   2.588  20.963  0.00  0.00    +0.000 A 
ATOM     20  C   UNL     1       2.130   3.601  21.636  0.00  0.00    +0.000 A 
ATOM     21  C   UNL     1       2.418   4.802  20.983  0.00  0.00    +0.000 A 
ENDBRANCH   8  16
BRANCH   5  22
ATOM     22  C   UNL     1       0.236  11.500  19.122  0.00  0.00    +0.000 C 
ATOM     23  C   UNL     1      -1.019  11.927  18.390  0.00  0.00    +0.000 C 
ATOM     24  C   UNL     1      -0.940  12.075  19.882  0.00  0.00    +0.000 C 
ENDBRANCH   5  22
TORSDOF 3
ENDMDL
MODEL 5
REMARK VINA RESULT:      -6.9      2.401      4.173
REMARK  Name = 
REMARK  4 active torsions:
REMARK  status: ('A' for Active; 'I' for Inactive)
REMARK    1  A    between atoms: C_1  and  C_2
REMARK    2  A    between atoms: C_4  and  C_5
REMARK    3  A    between atoms: C_9  and  C_11
REMARK    4  A    between atoms: C_15  and  C_16
REMARK                            x       y       z     vdW  Elec       q    Type
REMARK                         _______ _______ _______ _____ _____    ______ ____
ROOT
ATOM      1  C   UNL     1       3.501   4.877  18.774  0.00  0.00    +0.000 A 
ATOM      2  S   UNL     1       2.217   5.680  19.597  0.00  0.00    +0.000 S 
ATOM      3  C   UNL     1       2.537   7.089  18.695  0.00  0.00    +0.000 A 
ATOM      4  N   UNL     1       1.750   8.165  19.002  0.00  0.00    +0.000 N 
ATOM      5  C   UNL     1       1.799   9.326  18.271  0.00  0.00    +0.000 C 
ATOM      6  O   UNL     1       2.481   9.566  17.284  0.00  0.00    +0.000 OA
ATOM      7  N   UNL     1       3.483   7.000  17.800  0.00  0.00    +0.000 NA
ATOM      8  C   UNL     1       4.024   5.720  17.802  0.00  0.00    +0.000 A 
ATOM      9  H   UNL     1       1.094   8.058  19.759  0.00  0.00    +0.000 HD
ENDROOT
BRANCH   1  13
ATOM     10  C   UNL     1       5.356   0.913  21.097  0.00  0.00    +0.000 C 
ATOM     11  C   UNL     1       4.755   1.871  20.154  0.00  0.00    +0.000 A 
ATOM     12  N   UNL     1       4.801   3.185  20.123  0.00  0.00    +0.000 NA
ATOM     13  C   UNL     1       3.925   3.483  19.101  0.00  0.00    +0.000 A 
ATOM     14  N   UNL     1       3.446   2.402  18.467  0.00  0.00    +0.000 NA
ATOM     15  O   UNL     1       3.988   1.334  19.166  0.00  0.00    +0.000 OA
ENDBRANCH   1  13
BRANCH   8  16
ATOM     16  C   UNL     1       5.013   5.383  16.774  0.00  0.00    +0.000 A 
ATOM     17  C   UNL     1       4.636   4.564  15.703  0.00  0.00    +0.000 A 
ATOM     18  C   UNL     1       5.559   4.219  14.710  0.00  0.00    +0.000 A 
ATOM     19  C   UNL     1       6.867   4.693  14.775  0.00  0.00    +0.000 A 
ATOM     20  C   UNL     1       7.264   5.481  15.852  0.00  0.00    +0.000 A 
ATOM     21  C   UNL     1       6.350   5.797  16.860  0.00  0.00    +0.000 A 
ENDBRANCH   8  16
BRANCH   5  22
ATOM     22  C   UNL     1       0.840  10.363  18.766  0.00  0.00    +0.000 C 
ATOM     23  C   UNL     1      -0.613  10.338  18.339  0.00  0.00    +0.000 C 
ATOM     24  C   UNL     1      -0.242   9.960  19.743  0.00  0.00    +0.000 C 
ENDBRANCH   5  22
TORSDOF 3
ENDMDL
MODEL 6
REMARK VINA RESULT:      -6.9      2.396      4.291
REMARK  Name = 
REMARK  4 active torsions:
REMARK  status: ('A' for Active; 'I' for Inactive)
REMARK    1  A    between atoms: C_1  and  C_2
REMARK    2  A    between atoms: C_4  and  C_5
REMARK    3  A    between atoms: C_9  and  C_11
REMARK    4  A    between atoms: C_15  and  C_16
REMARK                            x       y       z     vdW  Elec       q    Type
REMARK                         _______ _______ _______ _____ _____    ______ ____
ROOT
ATOM      1  C   UNL     1       3.500   4.850  18.775  0.00  0.00    +0.000 A 
ATOM      2  S   UNL     1       2.229   5.658  19.611  0.00  0.00    +0.000 S 
ATOM      3  C   UNL     1       2.546   7.066  18.705  0.00  0.00    +0.000 A 
ATOM      4  N   UNL     1       1.768   8.146  19.021  0.00  0.00    +0.000 N 
ATOM      5  C   UNL     1       1.815   9.307  18.289  0.00  0.00    +0.000 C 
ATOM      6  O   UNL     1       2.488   9.543  17.296  0.00  0.00    +0.000 OA
ATOM      7  N   UNL     1       3.482   6.972  17.802  0.00  0.00    +0.000 NA
ATOM      8  C   UNL     1       4.017   5.690  17.797  0.00  0.00    +0.000 A 
ATOM      9  H   UNL     1       1.119   8.042  19.784  0.00  0.00    +0.000 HD
ENDROOT
BRANCH   1  13
ATOM     10  C   UNL     1       5.353   0.876  21.083  0.00  0.00    +0.000 C 
ATOM     11  C   UNL     1       4.750   1.837  20.144  0.00  0.00    +0.000 A 
ATOM     12  N   UNL     1       4.801   3.150  20.116  0.00  0.00    +0.000 NA
ATOM     13  C   UNL     1       3.921   3.453  19.098  0.00  0.00    +0.000 A 
ATOM     14  N   UNL     1       3.435   2.375  18.465  0.00  0.00    +0.000 NA
ATOM     15  O   UNL     1       3.976   1.304  19.160  0.00  0.00    +0.000 OA
ENDBRANCH   1  13
BRANCH   8  16
ATOM     16  C   UNL     1       4.995   5.348  16.760  0.00  0.00    +0.000 A 
ATOM     17  C   UNL     1       6.285   5.887  16.832  0.00  0.00    +0.000 A 
ATOM     18  C   UNL     1       7.240   5.587  15.855  0.00  0.00    +0.000 A 
ATOM     19  C   UNL     1       6.915   4.740  14.797  0.00  0.00    +0.000 A 
ATOM     20  C   UNL     1       5.626   4.223  14.696  0.00  0.00    +0.000 A 
ATOM     21  C   UNL     1       4.665   4.551  15.655  0.00  0.00    +0.000 A 
ENDBRANCH   8  16
BRANCH   5  22
ATOM     22  C   UNL     1       0.866  10.349  18.793  0.00  0.00    +0.000 C 
ATOM     23  C   UNL     1      -0.589  10.334  18.375  0.00  0.00    +0.000 C 
ATOM     24  C   UNL     1      -0.213   9.949  19.776  0.00  0.00    +0.000 C 
ENDBRANCH   5  22
TORSDOF 3
ENDMDL
MODEL 7
REMARK VINA RESULT:      -6.9      0.056      1.006
REMARK  Name = 
REMARK  4 active torsions:
REMARK  status: ('A' for Active; 'I' for Inactive)
REMARK    1  A    between atoms: C_1  and  C_2
REMARK    2  A    between atoms: C_4  and  C_5
REMARK    3  A    between atoms: C_9  and  C_11
REMARK    4  A    between atoms: C_15  and  C_16
REMARK                            x       y       z     vdW  Elec       q    Type
REMARK                         _______ _______ _______ _____ _____    ______ ____
ROOT
ATOM      1  C   UNL     1       4.463   6.187  16.984  0.00  0.00    +0.000 A 
ATOM      2  S   UNL     1       4.202   7.888  17.083  0.00  0.00    +0.000 S 
ATOM      3  C   UNL     1       2.958   7.618  18.216  0.00  0.00    +0.000 A 
ATOM      4  N   UNL     1       2.315   8.744  18.650  0.00  0.00    +0.000 N 
ATOM      5  C   UNL     1       1.385   8.700  19.658  0.00  0.00    +0.000 C 
ATOM      6  O   UNL     1       1.022   7.727  20.305  0.00  0.00    +0.000 OA
ATOM      7  N   UNL     1       2.753   6.377  18.563  0.00  0.00    +0.000 NA
ATOM      8  C   UNL     1       3.637   5.540  17.895  0.00  0.00    +0.000 A 
ATOM      9  H   UNL     1       2.586   9.621  18.234  0.00  0.00    +0.000 HD
ENDROOT
BRANCH   1  13
ATOM     10  C   UNL     1       6.503   3.815  13.142  0.00  0.00    +0.000 C 
ATOM     11  C   UNL     1       6.217   4.535  14.394  0.00  0.00    +0.000 A 
ATOM     12  N   UNL     1       5.093   4.675  15.062  0.00  0.00    +0.000 NA
ATOM     13  C   UNL     1       5.450   5.574  16.046  0.00  0.00    +0.000 A 
ATOM     14  N   UNL     1       6.754   5.887  16.045  0.00  0.00    +0.000 NA
ATOM     15  O   UNL     1       7.263   5.207  14.948  0.00  0.00    +0.000 OA
ENDBRANCH   1  13
BRANCH   8  16
ATOM     16  C   UNL     1       3.650   4.118  18.249  0.00  0.00    +0.000 A 
ATOM     17  C   UNL     1       4.415   3.692  19.342  0.00  0.00    +0.000 A 
ATOM     18  C   UNL     1       4.454   2.341  19.703  0.00  0.00    +0.000 A 
ATOM     19  C   UNL     1       3.725   1.402  18.976  0.00  0.00    +0.000 A 
ATOM     20  C   UNL     1       2.987   1.807  17.868  0.00  0.00    +0.000 A 
ATOM     21  C   UNL     1       2.976   3.152  17.489  0.00  0.00    +0.000 A 
ENDBRANCH   8  16
BRANCH   5  22
ATOM     22  C   UNL     1       0.824  10.048  19.989  0.00  0.00    +0.000 C 
ATOM     23  C   UNL     1      -0.551  10.453  19.501  0.00  0.00    +0.000 C 
ATOM     24  C   UNL     1      -0.337  10.147  20.955  0.00  0.00    +0.000 C 
ENDBRANCH   5  22
TORSDOF 3
ENDMDL
MODEL 8
REMARK VINA RESULT:      -6.9      1.986      2.365
REMARK  Name = 
REMARK  4 active torsions:
REMARK  status: ('A' for Active; 'I' for Inactive)
REMARK    1  A    between atoms: C_1  and  C_2
REMARK    2  A    between atoms: C_4  and  C_5
REMARK    3  A    between atoms: C_9  and  C_11
REMARK    4  A    between atoms: C_15  and  C_16
REMARK                            x       y       z     vdW  Elec       q    Type
REMARK                         _______ _______ _______ _____ _____    ______ ____
ROOT
ATOM      1  C   UNL     1       3.469   6.460  17.960  0.00  0.00    +0.000 A 
ATOM      2  S   UNL     1       3.560   8.135  17.564  0.00  0.00    +0.000 S 
ATOM      3  C   UNL     1       2.129   8.408  18.449  0.00  0.00    +0.000 A 
ATOM      4  N   UNL     1       1.679   9.699  18.437  0.00  0.00    +0.000 N 
ATOM      5  C   UNL     1       0.617  10.099  19.211  0.00  0.00    +0.000 C 
ATOM      6  O   UNL     1      -0.036   9.427  19.997  0.00  0.00    +0.000 OA
ATOM      7  N   UNL     1       1.618   7.371  19.053  0.00  0.00    +0.000 NA
ATOM      8  C   UNL     1       2.398   6.246  18.817  0.00  0.00    +0.000 A 
ATOM      9  H   UNL     1       2.188  10.363  17.875  0.00  0.00    +0.000 HD
ENDROOT
BRANCH   1  13
ATOM     10  C   UNL     1       6.467   3.881  14.974  0.00  0.00    +0.000 C 
ATOM     11  C   UNL     1       5.662   4.410  16.088  0.00  0.00    +0.000 A 
ATOM     12  N   UNL     1       4.638   5.235  16.086  0.00  0.00    +0.000 NA
ATOM     13  C   UNL     1       4.437   5.451  17.434  0.00  0.00    +0.000 A 
ATOM     14  N   UNL     1       5.229   4.712  18.225  0.00  0.00    +0.000 NA
ATOM     15  O   UNL     1       6.046   4.028  17.337  0.00  0.00    +0.000 OA
ENDBRANCH   1  13
BRANCH   8  16
ATOM     16  C   UNL     1       2.058   5.006  19.520  0.00  0.00    +0.000 A 
ATOM     17  C   UNL     1       2.432   4.854  20.861  0.00  0.00    +0.000 A 
ATOM     18  C   UNL     1       2.128   3.680  21.558  0.00  0.00    +0.000 A 
ATOM     19  C   UNL     1       1.443   2.647  20.923  0.00  0.00    +0.000 A 
ATOM     20  C   UNL     1       1.093   2.771  19.581  0.00  0.00    +0.000 A 
ATOM     21  C   UNL     1       1.427   3.931  18.877  0.00  0.00    +0.000 A 
ENDBRANCH   8  16
BRANCH   5  22
ATOM     22  C   UNL     1       0.308  11.557  19.062  0.00  0.00    +0.000 C 
ATOM     23  C   UNL     1      -0.980  12.009  18.407  0.00  0.00    +0.000 C 
ATOM     24  C   UNL     1      -0.805  12.162  19.890  0.00  0.00    +0.000 C 
ENDBRANCH   5  22
TORSDOF 3
ENDMDL
MODEL 9
REMARK VINA RESULT:      -6.8      1.610      6.615
REMARK  Name = 
REMARK  4 active torsions:
REMARK  status: ('A' for Active; 'I' for Inactive)
REMARK    1  A    between atoms: C_1  and  C_2
REMARK    2  A    between atoms: C_4  and  C_5
REMARK    3  A    between atoms: C_9  and  C_11
REMARK    4  A    between atoms: C_15  and  C_16
REMARK                            x       y       z     vdW  Elec       q    Type
REMARK                         _______ _______ _______ _____ _____    ______ ____
ROOT
ATOM      1  C   UNL     1       3.371   6.809  17.813  0.00  0.00    +0.000 A 
ATOM      2  S   UNL     1       4.419   7.343  16.554  0.00  0.00    +0.000 S 
ATOM      3  C   UNL     1       4.971   5.744  16.352  0.00  0.00    +0.000 A 
ATOM      4  N   UNL     1       5.943   5.582  15.404  0.00  0.00    +0.000 N 
ATOM      5  C   UNL     1       6.390   4.337  15.035  0.00  0.00    +0.000 C 
ATOM      6  O   UNL     1       6.006   3.249  15.442  0.00  0.00    +0.000 OA
ATOM      7  N   UNL     1       4.408   4.840  17.106  0.00  0.00    +0.000 NA
ATOM      8  C   UNL     1       3.453   5.427  17.927  0.00  0.00    +0.000 A 
ATOM      9  H   UNL     1       6.287   6.411  14.947  0.00  0.00    +0.000 HD
ENDROOT
BRANCH   1  13
ATOM     10  C   UNL     1       0.188  10.377  19.115  0.00  0.00    +0.000 C 
ATOM     11  C   UNL     1       1.180   9.289  19.063  0.00  0.00    +0.000 A 
ATOM     12  N   UNL     1       1.946   8.877  18.077  0.00  0.00    +0.000 NA
ATOM     13  C   UNL     1       2.524   7.745  18.611  0.00  0.00    +0.000 A 
ATOM     14  N   UNL     1       2.208   7.532  19.898  0.00  0.00    +0.000 NA
ATOM     15  O   UNL     1       1.313   8.549  20.197  0.00  0.00    +0.000 OA
ENDBRANCH   1  13
BRANCH   8  16
ATOM     16  C   UNL     1       2.618   4.554  18.756  0.00  0.00    +0.000 A 
ATOM     17  C   UNL     1       2.982   4.324  20.088  0.00  0.00    +0.000 A 
ATOM     18  C   UNL     1       2.210   3.490  20.905  0.00  0.00    +0.000 A 
ATOM     19  C   UNL     1       1.064   2.881  20.398  0.00  0.00    +0.000 A 
ATOM     20  C   UNL     1       0.709   3.076  19.066  0.00  0.00    +0.000 A 
ATOM     21  C   UNL     1       1.499   3.882  18.243  0.00  0.00    +0.000 A 
ENDBRANCH   8  16
BRANCH   5  22
ATOM     22  C   UNL     1       7.437   4.390  13.967  0.00  0.00    +0.000 C 
ATOM     23  C   UNL     1       7.083   4.100  12.524  0.00  0.00    +0.000 C 
ATOM     24  C   UNL     1       7.394   5.506  12.947  0.00  0.00    +0.000 C 
ENDBRANCH   5  22
TORSDOF 3
ENDMDL
