MODEL 1
REMARK VINA RESULT:      -5.4      0.000      0.000
REMARK  Name = 
REMARK  2 active torsions:
REMARK  status: ('A' for Active; 'I' for Inactive)
REMARK    1  A    between atoms: C_1  and  C_2
REMARK    2  A    between atoms: C_2  and  N_3
REMARK                            x       y       z     vdW  Elec       q    Type
REMARK                         _______ _______ _______ _____ _____    ______ ____
ROOT
ATOM      1  N   UNL     1       6.570   4.105  18.194  0.00  0.00    +0.000 N 
ATOM      2  C   UNL     1       5.228   4.418  18.320  0.00  0.00    +0.000 A 
ATOM      3  N   UNL     1       4.713   5.425  17.644  0.00  0.00    +0.000 NA
ATOM      4  C   UNL     1       3.369   5.718  17.791  0.00  0.00    +0.000 A 
ATOM      5  C   UNL     1       2.532   5.046  18.598  0.00  0.00    +0.000 A 
ATOM      6  N   UNL     1       3.047   3.994  19.325  0.00  0.00    +0.000 N 
ATOM      7  C   UNL     1       2.488   3.139  20.233  0.00  0.00    +0.000 A 
ATOM      8  C   UNL     1       3.523   2.321  20.636  0.00  0.00    +0.000 A 
ATOM      9  N   UNL     1       4.699   2.647  19.999  0.00  0.00    +0.000 NA
ATOM     10  C   UNL     1       4.368   3.652  19.212  0.00  0.00    +0.000 A 
ATOM     11  H   UNL     1       6.877   3.433  18.894  0.00  0.00    +0.000 HD
ENDROOT
BRANCH   1  13
ATOM     12  C   UNL     1       7.916   5.947  19.046  0.00  0.00    +0.000 C 
ATOM     13  C   UNL     1       7.538   5.119  17.831  0.00  0.00    +0.000 C 
ENDBRANCH   1  13
TORSDOF 1
ENDMDL
MODEL 2
REMARK VINA RESULT:      -5.4      2.768      4.504
REMARK  Name = 
REMARK  2 active torsions:
REMARK  status: ('A' for Active; 'I' for Inactive)
REMARK    1  A    between atoms: C_1  and  C_2
REMARK    2  A    between atoms: C_2  and  N_3
REMARK                            x       y       z     vdW  Elec       q    Type
REMARK                         _______ _______ _______ _____ _____    ______ ____
ROOT
ATOM      1  N   UNL     1       7.612   7.416  17.050  0.00  0.00    +0.000 N 
ATOM      2  C   UNL     1       6.770   6.319  17.053  0.00  0.00    +0.000 A 
ATOM      3  N   UNL     1       6.053   6.033  18.121  0.00  0.00    +0.000 NA
ATOM      4  C   UNL     1       5.220   4.929  18.098  0.00  0.00    +0.000 A 
ATOM      5  C   UNL     1       5.092   4.100  17.049  0.00  0.00    +0.000 A 
ATOM      6  N   UNL     1       5.838   4.370  15.923  0.00  0.00    +0.000 N 
ATOM      7  C   UNL     1       5.958   3.731  14.721  0.00  0.00    +0.000 A 
ATOM      8  C   UNL     1       6.883   4.470  14.014  0.00  0.00    +0.000 A 
ATOM      9  N   UNL     1       7.332   5.546  14.746  0.00  0.00    +0.000 NA
ATOM     10  C   UNL     1       6.672   5.455  15.884  0.00  0.00    +0.000 A 
ATOM     11  H   UNL     1       8.234   7.423  16.244  0.00  0.00    +0.000 HD
ENDROOT
BRANCH   1  13
ATOM     12  C   UNL     1       8.443   9.411  18.172  0.00  0.00    +0.000 C 
ATOM     13  C   UNL     1       8.179   7.921  18.284  0.00  0.00    +0.000 C 
ENDBRANCH   1  13
TORSDOF 1
ENDMDL
MODEL 3
REMARK VINA RESULT:      -5.3      2.286      3.314
REMARK  Name = 
REMARK  2 active torsions:
REMARK  status: ('A' for Active; 'I' for Inactive)
REMARK    1  A    between atoms: C_1  and  C_2
REMARK    2  A    between atoms: C_2  and  N_3
REMARK                            x       y       z     vdW  Elec       q    Type
REMARK                         _______ _______ _______ _____ _____    ______ ____
ROOT
ATOM      1  N   UNL     1       7.577   7.212  18.166  0.00  0.00    +0.000 N 
ATOM      2  C   UNL     1       7.036   6.185  17.413  0.00  0.00    +0.000 A 
ATOM      3  N   UNL     1       7.380   6.032  16.150  0.00  0.00    +0.000 NA
ATOM      4  C   UNL     1       6.823   4.998  15.420  0.00  0.00    +0.000 A 
ATOM      5  C   UNL     1       5.926   4.126  15.907  0.00  0.00    +0.000 A 
ATOM      6  N   UNL     1       5.540   4.269  17.222  0.00  0.00    +0.000 N 
ATOM      7  C   UNL     1       4.653   3.582  18.003  0.00  0.00    +0.000 A 
ATOM      8  C   UNL     1       4.684   4.223  19.225  0.00  0.00    +0.000 A 
ATOM      9  N   UNL     1       5.566   5.279  19.217  0.00  0.00    +0.000 NA
ATOM     10  C   UNL     1       6.067   5.267  17.996  0.00  0.00    +0.000 A 
ATOM     11  H   UNL     1       7.101   7.328  19.058  0.00  0.00    +0.000 HD
ENDROOT
BRANCH   1  13
ATOM     12  C   UNL     1       8.663   9.354  18.565  0.00  0.00    +0.000 C 
ATOM     13  C   UNL     1       8.037   8.432  17.536  0.00  0.00    +0.000 C 
ENDBRANCH   1  13
TORSDOF 1
ENDMDL
MODEL 4
REMARK VINA RESULT:      -5.3      1.494      4.101
REMARK  Name = 
REMARK  2 active torsions:
REMARK  status: ('A' for Active; 'I' for Inactive)
REMARK    1  A    between atoms: C_1  and  C_2
REMARK    2  A    between atoms: C_2  and  N_3
REMARK                            x       y       z     vdW  Elec       q    Type
REMARK                         _______ _______ _______ _____ _____    ______ ____
ROOT
ATOM      1  N   UNL     1       3.541   5.318  20.117  0.00  0.00    +0.000 N 
ATOM      2  C   UNL     1       4.152   4.914  18.943  0.00  0.00    +0.000 A 
ATOM      3  N   UNL     1       3.431   4.434  17.949  0.00  0.00    +0.000 NA
ATOM      4  C   UNL     1       4.067   4.036  16.786  0.00  0.00    +0.000 A 
ATOM      5  C   UNL     1       5.395   4.091  16.594  0.00  0.00    +0.000 A 
ATOM      6  N   UNL     1       6.173   4.578  17.621  0.00  0.00    +0.000 N 
ATOM      7  C   UNL     1       7.523   4.743  17.758  0.00  0.00    +0.000 A 
ATOM      8  C   UNL     1       7.694   5.250  19.030  0.00  0.00    +0.000 A 
ATOM      9  N   UNL     1       6.488   5.404  19.676  0.00  0.00    +0.000 NA
ATOM     10  C   UNL     1       5.598   4.997  18.791  0.00  0.00    +0.000 A 
ATOM     11  H   UNL     1       4.214   5.496  20.859  0.00  0.00    +0.000 HD
ENDROOT
BRANCH   1  13
ATOM     12  C   UNL     1       2.525   3.480  21.349  0.00  0.00    +0.000 C 
ATOM     13  C   UNL     1       2.282   4.738  20.537  0.00  0.00    +0.000 C 
ENDBRANCH   1  13
TORSDOF 1
ENDMDL
MODEL 5
REMARK VINA RESULT:      -5.3      2.808      3.930
REMARK  Name = 
REMARK  2 active torsions:
REMARK  status: ('A' for Active; 'I' for Inactive)
REMARK    1  A    between atoms: C_1  and  C_2
REMARK    2  A    between atoms: C_2  and  N_3
REMARK                            x       y       z     vdW  Elec       q    Type
REMARK                         _______ _______ _______ _____ _____    ______ ____
ROOT
ATOM      1  N   UNL     1       5.544   4.285  14.484  0.00  0.00    +0.000 N 
ATOM      2  C   UNL     1       5.946   4.417  15.800  0.00  0.00    +0.000 A 
ATOM      3  N   UNL     1       7.183   4.771  16.087  0.00  0.00    +0.000 NA
ATOM      4  C   UNL     1       7.560   4.895  17.412  0.00  0.00    +0.000 A 
ATOM      5  C   UNL     1       6.745   4.665  18.454  0.00  0.00    +0.000 A 
ATOM      6  N   UNL     1       5.449   4.283  18.184  0.00  0.00    +0.000 N 
ATOM      7  C   UNL     1       4.395   3.958  18.991  0.00  0.00    +0.000 A 
ATOM      8  C   UNL     1       3.370   3.633  18.127  0.00  0.00    +0.000 A 
ATOM      9  N   UNL     1       3.763   3.752  16.813  0.00  0.00    +0.000 NA
ATOM     10  C   UNL     1       5.017   4.155  16.891  0.00  0.00    +0.000 A 
ATOM     11  H   UNL     1       4.633   3.839  14.402  0.00  0.00    +0.000 HD
ENDROOT
BRANCH   1  13
ATOM     12  C   UNL     1       5.800   3.279  12.280  0.00  0.00    +0.000 C 
ATOM     13  C   UNL     1       6.499   3.956  13.445  0.00  0.00    +0.000 C 
ENDBRANCH   1  13
TORSDOF 1
ENDMDL
MODEL 6
REMARK VINA RESULT:      -5.2      1.419      1.581
REMARK  Name = 
REMARK  2 active torsions:
REMARK  status: ('A' for Active; 'I' for Inactive)
REMARK    1  A    between atoms: C_1  and  C_2
REMARK    2  A    between atoms: C_2  and  N_3
REMARK                            x       y       z     vdW  Elec       q    Type
REMARK                         _______ _______ _______ _____ _____    ______ ____
ROOT
ATOM      1  N   UNL     1       5.445   3.643  18.962  0.00  0.00    +0.000 N 
ATOM      2  C   UNL     1       4.080   3.638  18.735  0.00  0.00    +0.000 A 
ATOM      3  N   UNL     1       3.599   4.014  17.567  0.00  0.00    +0.000 NA
ATOM      4  C   UNL     1       2.230   4.002  17.367  0.00  0.00    +0.000 A 
ATOM      5  C   UNL     1       1.333   3.640  18.298  0.00  0.00    +0.000 A 
ATOM      6  N   UNL     1       1.808   3.253  19.532  0.00  0.00    +0.000 N 
ATOM      7  C   UNL     1       1.181   2.857  20.680  0.00  0.00    +0.000 A 
ATOM      8  C   UNL     1       2.199   2.629  21.582  0.00  0.00    +0.000 A 
ATOM      9  N   UNL     1       3.432   2.870  21.021  0.00  0.00    +0.000 NA
ATOM     10  C   UNL     1       3.153   3.235  19.784  0.00  0.00    +0.000 A 
ATOM     11  H   UNL     1       5.672   3.507  19.945  0.00  0.00    +0.000 HD
ENDROOT
BRANCH   1  13
ATOM     12  C   UNL     1       6.931   5.559  19.179  0.00  0.00    +0.000 C 
ATOM     13  C   UNL     1       6.316   4.543  18.235  0.00  0.00    +0.000 C 
ENDBRANCH   1  13
TORSDOF 1
ENDMDL
MODEL 7
REMARK VINA RESULT:      -5.1      1.699      2.371
REMARK  Name = 
REMARK  2 active torsions:
REMARK  status: ('A' for Active; 'I' for Inactive)
REMARK    1  A    between atoms: C_1  and  C_2
REMARK    2  A    between atoms: C_2  and  N_3
REMARK                            x       y       z     vdW  Elec       q    Type
REMARK                         _______ _______ _______ _____ _____    ______ ____
ROOT
ATOM      1  N   UNL     1       5.282   4.404  18.478  0.00  0.00    +0.000 N 
ATOM      2  C   UNL     1       4.078   3.722  18.497  0.00  0.00    +0.000 A 
ATOM      3  N   UNL     1       3.880   2.699  17.690  0.00  0.00    +0.000 NA
ATOM      4  C   UNL     1       2.666   2.036  17.728  0.00  0.00    +0.000 A 
ATOM      5  C   UNL     1       1.647   2.371  18.535  0.00  0.00    +0.000 A 
ATOM      6  N   UNL     1       1.823   3.444  19.381  0.00  0.00    +0.000 N 
ATOM      7  C   UNL     1       1.000   4.047  20.291  0.00  0.00    +0.000 A 
ATOM      8  C   UNL     1       1.740   5.092  20.804  0.00  0.00    +0.000 A 
ATOM      9  N   UNL     1       2.994   5.145  20.239  0.00  0.00    +0.000 NA
ATOM     10  C   UNL     1       3.006   4.131  19.395  0.00  0.00    +0.000 A 
ATOM     11  H   UNL     1       5.242   5.270  19.011  0.00  0.00    +0.000 HD
ENDROOT
BRANCH   1  13
ATOM     12  C   UNL     1       7.554   4.664  17.642  0.00  0.00    +0.000 C 
ATOM     13  C   UNL     1       6.097   4.439  17.281  0.00  0.00    +0.000 C 
ENDBRANCH   1  13
TORSDOF 1
ENDMDL
MODEL 8
REMARK VINA RESULT:      -5.1      1.779      1.981
REMARK  Name = 
REMARK  2 active torsions:
REMARK  status: ('A' for Active; 'I' for Inactive)
REMARK    1  A    between atoms: C_1  and  C_2
REMARK    2  A    between atoms: C_2  and  N_3
REMARK                            x       y       z     vdW  Elec       q    Type
REMARK                         _______ _______ _______ _____ _____    ______ ____
ROOT
ATOM      1  N   UNL     1       5.590   3.679  16.407  0.00  0.00    +0.000 N 
ATOM      2  C   UNL     1       4.554   4.261  17.113  0.00  0.00    +0.000 A 
ATOM      3  N   UNL     1       4.431   5.573  17.156  0.00  0.00    +0.000 NA
ATOM      4  C   UNL     1       3.386   6.129  17.872  0.00  0.00    +0.000 A 
ATOM      5  C   UNL     1       2.474   5.419  18.553  0.00  0.00    +0.000 A 
ATOM      6  N   UNL     1       2.584   4.045  18.535  0.00  0.00    +0.000 N 
ATOM      7  C   UNL     1       1.854   3.053  19.126  0.00  0.00    +0.000 A 
ATOM      8  C   UNL     1       2.479   1.881  18.754  0.00  0.00    +0.000 A 
ATOM      9  N   UNL     1       3.568   2.125  17.950  0.00  0.00    +0.000 NA
ATOM     10  C   UNL     1       3.592   3.439  17.834  0.00  0.00    +0.000 A 
ATOM     11  H   UNL     1       5.677   2.683  16.599  0.00  0.00    +0.000 HD
ENDROOT
BRANCH   1  13
ATOM     12  C   UNL     1       6.985   4.769  14.734  0.00  0.00    +0.000 C 
ATOM     13  C   UNL     1       6.836   4.387  16.195  0.00  0.00    +0.000 C 
ENDBRANCH   1  13
TORSDOF 1
ENDMDL
MODEL 9
REMARK VINA RESULT:      -5.1      1.549      4.241
REMARK  Name = 
REMARK  2 active torsions:
REMARK  status: ('A' for Active; 'I' for Inactive)
REMARK    1  A    between atoms: C_1  and  C_2
REMARK    2  A    between atoms: C_2  and  N_3
REMARK                            x       y       z     vdW  Elec       q    Type
REMARK                         _______ _______ _______ _____ _____    ______ ____
ROOT
ATOM      1  N   UNL     1       4.265   3.224  19.278  0.00  0.00    +0.000 N 
ATOM      2  C   UNL     1       4.858   3.935  18.251  0.00  0.00    +0.000 A 
ATOM      3  N   UNL     1       4.404   3.828  17.018  0.00  0.00    +0.000 NA
ATOM      4  C   UNL     1       5.017   4.549  16.009  0.00  0.00    +0.000 A 
ATOM      5  C   UNL     1       6.071   5.360  16.192  0.00  0.00    +0.000 A 
ATOM      6  N   UNL     1       6.573   5.483  17.470  0.00  0.00    +0.000 N 
ATOM      7  C   UNL     1       7.624   6.189  17.984  0.00  0.00    +0.000 A 
ATOM      8  C   UNL     1       7.637   5.879  19.329  0.00  0.00    +0.000 A 
ATOM      9  N   UNL     1       6.623   5.008  19.654  0.00  0.00    +0.000 NA
ATOM     10  C   UNL     1       6.001   4.801  18.510  0.00  0.00    +0.000 A 
ATOM     11  H   UNL     1       4.814   3.254  20.135  0.00  0.00    +0.000 HD
ENDROOT
BRANCH   1  13
ATOM     12  C   UNL     1       2.085   2.139  19.239  0.00  0.00    +0.000 C 
ATOM     13  C   UNL     1       3.577   1.976  19.017  0.00  0.00    +0.000 C 
ENDBRANCH   1  13
TORSDOF 1
ENDMDL
