MODEL 1
REMARK VINA RESULT:      -7.7      0.000      0.000
REMARK  Name = 
REMARK  6 active torsions:
REMARK  status: ('A' for Active; 'I' for Inactive)
REMARK    1  A    between atoms: C_1  and  C_2
REMARK    2  A    between atoms: C_16  and  C_17
REMARK    3  A    between atoms: C_17  and  C_18
REMARK    4  A    between atoms: C_18  and  C_19
REMARK    5  A    between atoms: C_19  and  C_20
REMARK    6  A    between atoms: C_19  and  C_21
REMARK                            x       y       z     vdW  Elec       q    Type
REMARK                         _______ _______ _______ _____ _____    ______ ____
ROOT
ATOM      1  C   UNL     1       4.396   6.821  16.793  0.00  0.00    +0.000 C 
ATOM      2  C   UNL     1       3.432   6.764  17.930  0.00  0.00    +0.000 C 
ATOM      3  N   UNL     1       2.868   7.824  18.429  0.00  0.00    +0.000 NA
ATOM      4  N   UNL     1       2.182   7.386  19.540  0.00  0.00    +0.000 N 
ATOM      5  C   UNL     1       1.468   8.254  20.328  0.00  0.00    +0.000 A 
ATOM      6  N   UNL     1       0.866   8.030  21.475  0.00  0.00    +0.000 NA
ATOM      7  C   UNL     1       0.273   9.216  21.824  0.00  0.00    +0.000 A 
ATOM      8  C   UNL     1      -0.483   9.538  22.958  0.00  0.00    +0.000 A 
ATOM      9  C   UNL     1      -1.014  10.830  23.065  0.00  0.00    +0.000 A 
ATOM     10  C   UNL     1      -0.801  11.777  22.060  0.00  0.00    +0.000 A 
ATOM     11  C   UNL     1      -0.037  11.477  20.925  0.00  0.00    +0.000 A 
ATOM     12  C   UNL     1       0.492  10.187  20.854  0.00  0.00    +0.000 A 
ATOM     13  N   UNL     1       1.286   9.557  19.934  0.00  0.00    +0.000 N 
ATOM     14  C   UNL     1       2.297   6.020  19.809  0.00  0.00    +0.000 C 
ATOM     15  O   UNL     1       1.885   5.333  20.729  0.00  0.00    +0.000 OA
ATOM     16  C   UNL     1       3.034   5.476  18.604  0.00  0.00    +0.000 C 
ATOM     17  H   UNL     1       1.658   9.938  19.076  0.00  0.00    +0.000 HD
ENDROOT
BRANCH  16  18
ATOM     18  C   UNL     1       2.046   4.651  17.770  0.00  0.00    +0.000 C 
BRANCH  18  19
ATOM     19  C   UNL     1       2.585   3.339  17.191  0.00  0.00    +0.000 C 
BRANCH  19  20
ATOM     20  C   UNL     1       2.336   2.090  18.051  0.00  0.00    +0.000 C 
ATOM     21  C   UNL     1       3.521   1.806  18.975  0.00  0.00    +0.000 C 
ATOM     22  C   UNL     1       1.057   2.271  18.870  0.00  0.00    +0.000 C 
ENDBRANCH  19  20
ENDBRANCH  18  19
ENDBRANCH  16  18
TORSDOF 3
ENDMDL
MODEL 2
REMARK VINA RESULT:      -7.4      1.834      3.484
REMARK  Name = 
REMARK  6 active torsions:
REMARK  status: ('A' for Active; 'I' for Inactive)
REMARK    1  A    between atoms: C_1  and  C_2
REMARK    2  A    between atoms: C_16  and  C_17
REMARK    3  A    between atoms: C_17  and  C_18
REMARK    4  A    between atoms: C_18  and  C_19
REMARK    5  A    between atoms: C_19  and  C_20
REMARK    6  A    between atoms: C_19  and  C_21
REMARK                            x       y       z     vdW  Elec       q    Type
REMARK                         _______ _______ _______ _____ _____    ______ ____
ROOT
ATOM      1  C   UNL     1       3.547   4.227  18.834  0.00  0.00    +0.000 C 
ATOM      2  C   UNL     1       3.138   5.660  18.773  0.00  0.00    +0.000 C 
ATOM      3  N   UNL     1       2.449   6.236  19.714  0.00  0.00    +0.000 NA
ATOM      4  N   UNL     1       2.143   7.488  19.230  0.00  0.00    +0.000 N 
ATOM      5  C   UNL     1       1.404   8.380  19.967  0.00  0.00    +0.000 A 
ATOM      6  N   UNL     1       0.923   9.551  19.615  0.00  0.00    +0.000 NA
ATOM      7  C   UNL     1       0.292  10.046  20.727  0.00  0.00    +0.000 A 
ATOM      8  C   UNL     1      -0.401  11.251  20.900  0.00  0.00    +0.000 A 
ATOM      9  C   UNL     1      -0.934  11.542  22.162  0.00  0.00    +0.000 A 
ATOM     10  C   UNL     1      -0.774  10.654  23.229  0.00  0.00    +0.000 A 
ATOM     11  C   UNL     1      -0.096   9.439  23.072  0.00  0.00    +0.000 A 
ATOM     12  C   UNL     1       0.411   9.169  21.799  0.00  0.00    +0.000 A 
ATOM     13  N   UNL     1       1.090   8.102  21.275  0.00  0.00    +0.000 N 
ATOM     14  C   UNL     1       2.612   7.759  17.941  0.00  0.00    +0.000 C 
ATOM     15  O   UNL     1       2.462   8.719  17.205  0.00  0.00    +0.000 OA
ATOM     16  C   UNL     1       3.480   6.563  17.616  0.00  0.00    +0.000 C 
ATOM     17  H   UNL     1       1.370   7.257  21.750  0.00  0.00    +0.000 HD
ENDROOT
BRANCH  16  18
ATOM     18  C   UNL     1       4.945   7.017  17.631  0.00  0.00    +0.000 C 
BRANCH  18  19
ATOM     19  C   UNL     1       5.868   6.348  16.607  0.00  0.00    +0.000 C 
BRANCH  19  20
ATOM     20  C   UNL     1       7.302   6.083  17.091  0.00  0.00    +0.000 C 
ATOM     21  C   UNL     1       7.750   7.132  18.108  0.00  0.00    +0.000 C 
ATOM     22  C   UNL     1       7.393   4.682  17.699  0.00  0.00    +0.000 C 
ENDBRANCH  19  20
ENDBRANCH  18  19
ENDBRANCH  16  18
TORSDOF 3
ENDMDL
MODEL 3
REMARK VINA RESULT:      -7.3      1.903      3.588
REMARK  Name = 
REMARK  6 active torsions:
REMARK  status: ('A' for Active; 'I' for Inactive)
REMARK    1  A    between atoms: C_1  and  C_2
REMARK    2  A    between atoms: C_16  and  C_17
REMARK    3  A    between atoms: C_17  and  C_18
REMARK    4  A    between atoms: C_18  and  C_19
REMARK    5  A    between atoms: C_19  and  C_20
REMARK    6  A    between atoms: C_19  and  C_21
REMARK                            x       y       z     vdW  Elec       q    Type
REMARK                         _______ _______ _______ _____ _____    ______ ____
ROOT
ATOM      1  C   UNL     1       3.416   2.927  20.106  0.00  0.00    +0.000 C 
ATOM      2  C   UNL     1       3.308   4.371  19.749  0.00  0.00    +0.000 C 
ATOM      3  N   UNL     1       2.550   5.203  20.400  0.00  0.00    +0.000 NA
ATOM      4  N   UNL     1       2.601   6.380  19.687  0.00  0.00    +0.000 N 
ATOM      5  C   UNL     1       1.898   7.490  20.087  0.00  0.00    +0.000 A 
ATOM      6  N   UNL     1       1.737   8.638  19.468  0.00  0.00    +0.000 NA
ATOM      7  C   UNL     1       0.981   9.413  20.310  0.00  0.00    +0.000 A 
ATOM      8  C   UNL     1       0.507  10.720  20.137  0.00  0.00    +0.000 A 
ATOM      9  C   UNL     1      -0.227  11.309  21.174  0.00  0.00    +0.000 A 
ATOM     10  C   UNL     1      -0.477  10.613  22.360  0.00  0.00    +0.000 A 
ATOM     11  C   UNL     1      -0.023   9.301  22.545  0.00  0.00    +0.000 A 
ATOM     12  C   UNL     1       0.692   8.735  21.488  0.00  0.00    +0.000 A 
ATOM     13  N   UNL     1       1.257   7.502  21.302  0.00  0.00    +0.000 N 
ATOM     14  C   UNL     1       3.384   6.342  18.531  0.00  0.00    +0.000 C 
ATOM     15  O   UNL     1       3.585   7.167  17.655  0.00  0.00    +0.000 OA
ATOM     16  C   UNL     1       4.062   4.990  18.599  0.00  0.00    +0.000 C 
ATOM     17  H   UNL     1       1.261   6.723  21.943  0.00  0.00    +0.000 HD
ENDROOT
BRANCH  16  18
ATOM     18  C   UNL     1       5.546   5.215  18.914  0.00  0.00    +0.000 C 
BRANCH  18  19
ATOM     19  C   UNL     1       6.544   4.593  17.933  0.00  0.00    +0.000 C 
BRANCH  19  20
ATOM     20  C   UNL     1       7.036   5.527  16.816  0.00  0.00    +0.000 C 
ATOM     21  C   UNL     1       6.051   5.564  15.648  0.00  0.00    +0.000 C 
ATOM     22  C   UNL     1       7.250   6.935  17.375  0.00  0.00    +0.000 C 
ENDBRANCH  19  20
ENDBRANCH  18  19
ENDBRANCH  16  18
TORSDOF 3
ENDMDL
MODEL 4
REMARK VINA RESULT:      -7.2      1.455      2.067
REMARK  Name = 
REMARK  6 active torsions:
REMARK  status: ('A' for Active; 'I' for Inactive)
REMARK    1  A    between atoms: C_1  and  C_2
REMARK    2  A    between atoms: C_16  and  C_17
REMARK    3  A    between atoms: C_17  and  C_18
REMARK    4  A    between atoms: C_18  and  C_19
REMARK    5  A    between atoms: C_19  and  C_20
REMARK    6  A    between atoms: C_19  and  C_21
REMARK                            x       y       z     vdW  Elec       q    Type
REMARK                         _______ _______ _______ _____ _____    ______ ____
ROOT
ATOM      1  C   UNL     1       5.710   5.648  15.504  0.00  0.00    +0.000 C 
ATOM      2  C   UNL     1       4.838   5.747  16.710  0.00  0.00    +0.000 C 
ATOM      3  N   UNL     1       4.054   6.761  16.931  0.00  0.00    +0.000 NA
ATOM      4  N   UNL     1       3.543   6.561  18.194  0.00  0.00    +0.000 N 
ATOM      5  C   UNL     1       2.673   7.456  18.764  0.00  0.00    +0.000 A 
ATOM      6  N   UNL     1       2.194   7.483  19.988  0.00  0.00    +0.000 NA
ATOM      7  C   UNL     1       1.344   8.559  20.032  0.00  0.00    +0.000 A 
ATOM      8  C   UNL     1       0.581   9.052  21.098  0.00  0.00    +0.000 A 
ATOM      9  C   UNL     1      -0.244  10.162  20.875  0.00  0.00    +0.000 A 
ATOM     10  C   UNL     1      -0.312  10.761  19.614  0.00  0.00    +0.000 A 
ATOM     11  C   UNL     1       0.453  10.290  18.540  0.00  0.00    +0.000 A 
ATOM     12  C   UNL     1       1.278   9.193  18.797  0.00  0.00    +0.000 A 
ATOM     13  N   UNL     1       2.162   8.492  18.022  0.00  0.00    +0.000 N 
ATOM     14  C   UNL     1       4.000   5.411  18.845  0.00  0.00    +0.000 C 
ATOM     15  O   UNL     1       3.807   4.981  19.970  0.00  0.00    +0.000 OA
ATOM     16  C   UNL     1       4.796   4.687  17.780  0.00  0.00    +0.000 C 
ATOM     17  H   UNL     1       2.392   8.652  17.052  0.00  0.00    +0.000 HD
ENDROOT
BRANCH  16  18
ATOM     18  C   UNL     1       4.005   3.444  17.354  0.00  0.00    +0.000 C 
BRANCH  18  19
ATOM     19  C   UNL     1       2.479   3.578  17.374  0.00  0.00    +0.000 C 
BRANCH  19  20
ATOM     20  C   UNL     1       1.742   2.563  18.261  0.00  0.00    +0.000 C 
ATOM     21  C   UNL     1       2.723   1.638  18.981  0.00  0.00    +0.000 C 
ATOM     22  C   UNL     1       0.866   3.299  19.275  0.00  0.00    +0.000 C 
ENDBRANCH  19  20
ENDBRANCH  18  19
ENDBRANCH  16  18
TORSDOF 3
ENDMDL
MODEL 5
REMARK VINA RESULT:      -7.1      1.854      3.304
REMARK  Name = 
REMARK  6 active torsions:
REMARK  status: ('A' for Active; 'I' for Inactive)
REMARK    1  A    between atoms: C_1  and  C_2
REMARK    2  A    between atoms: C_16  and  C_17
REMARK    3  A    between atoms: C_17  and  C_18
REMARK    4  A    between atoms: C_18  and  C_19
REMARK    5  A    between atoms: C_19  and  C_20
REMARK    6  A    between atoms: C_19  and  C_21
REMARK                            x       y       z     vdW  Elec       q    Type
REMARK                         _______ _______ _______ _____ _____    ______ ____
ROOT
ATOM      1  C   UNL     1       3.428   3.698  19.396  0.00  0.00    +0.000 C 
ATOM      2  C   UNL     1       3.103   5.142  19.211  0.00  0.00    +0.000 C 
ATOM      3  N   UNL     1       2.433   5.831  20.087  0.00  0.00    +0.000 NA
ATOM      4  N   UNL     1       2.208   7.054  19.496  0.00  0.00    +0.000 N 
ATOM      5  C   UNL     1       1.509   8.043  20.142  0.00  0.00    +0.000 A 
ATOM      6  N   UNL     1       1.102   9.206  19.686  0.00  0.00    +0.000 NA
ATOM      7  C   UNL     1       0.482   9.826  20.740  0.00  0.00    +0.000 A 
ATOM      8  C   UNL     1      -0.143  11.078  20.800  0.00  0.00    +0.000 A 
ATOM      9  C   UNL     1      -0.680  11.502  22.022  0.00  0.00    +0.000 A 
ATOM     10  C   UNL     1      -0.590  10.697  23.161  0.00  0.00    +0.000 A 
ATOM     11  C   UNL     1       0.020   9.436  23.117  0.00  0.00    +0.000 A 
ATOM     12  C   UNL     1       0.532   9.035  21.882  0.00  0.00    +0.000 A 
ATOM     13  N   UNL     1       1.157   7.892  21.461  0.00  0.00    +0.000 N 
ATOM     14  C   UNL     1       2.713   7.191  18.200  0.00  0.00    +0.000 C 
ATOM     15  O   UNL     1       2.632   8.095  17.385  0.00  0.00    +0.000 OA
ATOM     16  C   UNL     1       3.517   5.926  17.992  0.00  0.00    +0.000 C 
ATOM     17  H   UNL     1       1.380   7.074  22.009  0.00  0.00    +0.000 HD
ENDROOT
BRANCH  16  18
ATOM     18  C   UNL     1       5.005   6.297  18.001  0.00  0.00    +0.000 C 
BRANCH  18  19
ATOM     19  C   UNL     1       5.747   6.136  16.671  0.00  0.00    +0.000 C 
BRANCH  19  20
ATOM     20  C   UNL     1       6.437   4.778  16.464  0.00  0.00    +0.000 C 
ATOM     21  C   UNL     1       6.886   4.598  15.014  0.00  0.00    +0.000 C 
ATOM     22  C   UNL     1       7.633   4.655  17.409  0.00  0.00    +0.000 C 
ENDBRANCH  19  20
ENDBRANCH  18  19
ENDBRANCH  16  18
TORSDOF 3
ENDMDL
MODEL 6
REMARK VINA RESULT:      -7.1      2.471      7.209
REMARK  Name = 
REMARK  6 active torsions:
REMARK  status: ('A' for Active; 'I' for Inactive)
REMARK    1  A    between atoms: C_1  and  C_2
REMARK    2  A    between atoms: C_16  and  C_17
REMARK    3  A    between atoms: C_17  and  C_18
REMARK    4  A    between atoms: C_18  and  C_19
REMARK    5  A    between atoms: C_19  and  C_20
REMARK    6  A    between atoms: C_19  and  C_21
REMARK                            x       y       z     vdW  Elec       q    Type
REMARK                         _______ _______ _______ _____ _____    ______ ____
ROOT
ATOM      1  C   UNL     1       0.140   9.966  22.568  0.00  0.00    +0.000 C 
ATOM      2  C   UNL     1       0.634   9.470  21.251  0.00  0.00    +0.000 C 
ATOM      3  N   UNL     1       1.256   8.337  21.114  0.00  0.00    +0.000 NA
ATOM      4  N   UNL     1       1.680   8.307  19.805  0.00  0.00    +0.000 N 
ATOM      5  C   UNL     1       2.392   7.244  19.306  0.00  0.00    +0.000 A 
ATOM      6  N   UNL     1       2.972   7.110  18.134  0.00  0.00    +0.000 NA
ATOM      7  C   UNL     1       3.516   5.851  18.129  0.00  0.00    +0.000 A 
ATOM      8  C   UNL     1       4.255   5.201  17.132  0.00  0.00    +0.000 A 
ATOM      9  C   UNL     1       4.675   3.885  17.361  0.00  0.00    +0.000 A 
ATOM     10  C   UNL     1       4.359   3.229  18.554  0.00  0.00    +0.000 A 
ATOM     11  C   UNL     1       3.631   3.867  19.567  0.00  0.00    +0.000 A 
ATOM     12  C   UNL     1       3.240   5.184  19.317  0.00  0.00    +0.000 A 
ATOM     13  N   UNL     1       2.557   6.108  20.060  0.00  0.00    +0.000 N 
ATOM     14  C   UNL     1       1.360   9.439  19.050  0.00  0.00    +0.000 C 
ATOM     15  O   UNL     1       1.637   9.762  17.907  0.00  0.00    +0.000 OA
ATOM     16  C   UNL     1       0.461  10.241  19.967  0.00  0.00    +0.000 C 
ATOM     17  H   UNL     1       2.183   5.996  20.990  0.00  0.00    +0.000 HD
ENDROOT
BRANCH  16  18
ATOM     18  C   UNL     1      -0.969  10.168  19.419  0.00  0.00    +0.000 C 
BRANCH  18  19
ATOM     19  C   UNL     1      -1.523  11.460  18.812  0.00  0.00    +0.000 C 
BRANCH  19  20
ATOM     20  C   UNL     1      -2.402  11.275  17.565  0.00  0.00    +0.000 C 
ATOM     21  C   UNL     1      -2.062   9.978  16.832  0.00  0.00    +0.000 C 
ATOM     22  C   UNL     1      -3.878  11.288  17.964  0.00  0.00    +0.000 C 
ENDBRANCH  19  20
ENDBRANCH  18  19
ENDBRANCH  16  18
TORSDOF 3
ENDMDL
MODEL 7
REMARK VINA RESULT:      -7.0      4.720      6.821
REMARK  Name = 
REMARK  6 active torsions:
REMARK  status: ('A' for Active; 'I' for Inactive)
REMARK    1  A    between atoms: C_1  and  C_2
REMARK    2  A    between atoms: C_16  and  C_17
REMARK    3  A    between atoms: C_17  and  C_18
REMARK    4  A    between atoms: C_18  and  C_19
REMARK    5  A    between atoms: C_19  and  C_20
REMARK    6  A    between atoms: C_19  and  C_21
REMARK                            x       y       z     vdW  Elec       q    Type
REMARK                         _______ _______ _______ _____ _____    ______ ____
ROOT
ATOM      1  C   UNL     1       5.630   4.738  15.160  0.00  0.00    +0.000 C 
ATOM      2  C   UNL     1       6.296   5.338  16.352  0.00  0.00    +0.000 C 
ATOM      3  N   UNL     1       6.663   6.585  16.400  0.00  0.00    +0.000 NA
ATOM      4  N   UNL     1       7.365   6.715  17.578  0.00  0.00    +0.000 N 
ATOM      5  C   UNL     1       7.917   7.915  17.953  0.00  0.00    +0.000 A 
ATOM      6  N   UNL     1       8.711   8.182  18.965  0.00  0.00    +0.000 NA
ATOM      7  C   UNL     1       8.944   9.533  18.910  0.00  0.00    +0.000 A 
ATOM      8  C   UNL     1       9.732  10.338  19.742  0.00  0.00    +0.000 A 
ATOM      9  C   UNL     1       9.780  11.716  19.491  0.00  0.00    +0.000 A 
ATOM     10  C   UNL     1       9.053  12.277  18.438  0.00  0.00    +0.000 A 
ATOM     11  C   UNL     1       8.270  11.486  17.588  0.00  0.00    +0.000 A 
ATOM     12  C   UNL     1       8.254  10.115  17.853  0.00  0.00    +0.000 A 
ATOM     13  N   UNL     1       7.641   9.056  17.240  0.00  0.00    +0.000 N 
ATOM     14  C   UNL     1       7.494   5.542  18.326  0.00  0.00    +0.000 C 
ATOM     15  O   UNL     1       8.098   5.295  19.357  0.00  0.00    +0.000 OA
ATOM     16  C   UNL     1       6.608   4.553  17.600  0.00  0.00    +0.000 C 
ATOM     17  H   UNL     1       7.043   9.076  16.428  0.00  0.00    +0.000 HD
ENDROOT
BRANCH  16  18
ATOM     18  C   UNL     1       5.368   4.296  18.465  0.00  0.00    +0.000 C 
BRANCH  18  19
ATOM     19  C   UNL     1       4.688   5.537  19.052  0.00  0.00    +0.000 C 
BRANCH  19  20
ATOM     20  C   UNL     1       3.275   5.823  18.523  0.00  0.00    +0.000 C 
ATOM     21  C   UNL     1       2.658   4.580  17.880  0.00  0.00    +0.000 C 
ATOM     22  C   UNL     1       2.386   6.327  19.661  0.00  0.00    +0.000 C 
ENDBRANCH  19  20
ENDBRANCH  18  19
ENDBRANCH  16  18
TORSDOF 3
ENDMDL
MODEL 8
REMARK VINA RESULT:      -7.0      2.738      6.945
REMARK  Name = 
REMARK  6 active torsions:
REMARK  status: ('A' for Active; 'I' for Inactive)
REMARK    1  A    between atoms: C_1  and  C_2
REMARK    2  A    between atoms: C_16  and  C_17
REMARK    3  A    between atoms: C_17  and  C_18
REMARK    4  A    between atoms: C_18  and  C_19
REMARK    5  A    between atoms: C_19  and  C_20
REMARK    6  A    between atoms: C_19  and  C_21
REMARK                            x       y       z     vdW  Elec       q    Type
REMARK                         _______ _______ _______ _____ _____    ______ ____
ROOT
ATOM      1  C   UNL     1      -0.146  10.828  21.165  0.00  0.00    +0.000 C 
ATOM      2  C   UNL     1       0.524   9.839  20.273  0.00  0.00    +0.000 C 
ATOM      3  N   UNL     1       0.898   8.662  20.681  0.00  0.00    +0.000 NA
ATOM      4  N   UNL     1       1.602   8.117  19.631  0.00  0.00    +0.000 N 
ATOM      5  C   UNL     1       2.161   6.866  19.717  0.00  0.00    +0.000 A 
ATOM      6  N   UNL     1       2.958   6.252  18.871  0.00  0.00    +0.000 NA
ATOM      7  C   UNL     1       3.198   5.016  19.413  0.00  0.00    +0.000 A 
ATOM      8  C   UNL     1       3.991   3.967  18.931  0.00  0.00    +0.000 A 
ATOM      9  C   UNL     1       4.047   2.776  19.665  0.00  0.00    +0.000 A 
ATOM     10  C   UNL     1       3.322   2.632  20.852  0.00  0.00    +0.000 A 
ATOM     11  C   UNL     1       2.534   3.675  21.356  0.00  0.00    +0.000 A 
ATOM     12  C   UNL     1       2.511   4.855  20.611  0.00  0.00    +0.000 A 
ATOM     13  N   UNL     1       1.891   6.060  20.797  0.00  0.00    +0.000 N 
ATOM     14  C   UNL     1       1.725   8.938  18.507  0.00  0.00    +0.000 C 
ATOM     15  O   UNL     1       2.328   8.796  17.456  0.00  0.00    +0.000 OA
ATOM     16  C   UNL     1       0.833  10.118  18.824  0.00  0.00    +0.000 C 
ATOM     17  H   UNL     1       1.292   6.334  21.562  0.00  0.00    +0.000 HD
ENDROOT
BRANCH  16  18
ATOM     18  C   UNL     1      -0.408  10.036  17.926  0.00  0.00    +0.000 C 
BRANCH  18  19
ATOM     19  C   UNL     1      -1.336  11.254  17.946  0.00  0.00    +0.000 C 
BRANCH  19  20
ATOM     20  C   UNL     1      -2.735  11.024  17.355  0.00  0.00    +0.000 C 
ATOM     21  C   UNL     1      -2.712  11.088  15.828  0.00  0.00    +0.000 C 
ATOM     22  C   UNL     1      -3.278   9.672  17.821  0.00  0.00    +0.000 C 
ENDBRANCH  19  20
ENDBRANCH  18  19
ENDBRANCH  16  18
TORSDOF 3
ENDMDL
MODEL 9
REMARK VINA RESULT:      -7.0      1.095      1.430
REMARK  Name = 
REMARK  6 active torsions:
REMARK  status: ('A' for Active; 'I' for Inactive)
REMARK    1  A    between atoms: C_1  and  C_2
REMARK    2  A    between atoms: C_16  and  C_17
REMARK    3  A    between atoms: C_17  and  C_18
REMARK    4  A    between atoms: C_18  and  C_19
REMARK    5  A    between atoms: C_19  and  C_20
REMARK    6  A    between atoms: C_19  and  C_21
REMARK                            x       y       z     vdW  Elec       q    Type
REMARK                         _______ _______ _______ _____ _____    ______ ____
ROOT
ATOM      1  C   UNL     1       4.719   6.655  16.674  0.00  0.00    +0.000 C 
ATOM      2  C   UNL     1       3.634   6.928  17.661  0.00  0.00    +0.000 C 
ATOM      3  N   UNL     1       3.057   8.088  17.770  0.00  0.00    +0.000 NA
ATOM      4  N   UNL     1       2.237   7.987  18.871  0.00  0.00    +0.000 N 
ATOM      5  C   UNL     1       1.472   9.046  19.294  0.00  0.00    +0.000 A 
ATOM      6  N   UNL     1       0.740   9.160  20.379  0.00  0.00    +0.000 NA
ATOM      7  C   UNL     1       0.155  10.398  20.307  0.00  0.00    +0.000 A 
ATOM      8  C   UNL     1      -0.709  11.033  21.208  0.00  0.00    +0.000 A 
ATOM      9  C   UNL     1      -1.202  12.303  20.883  0.00  0.00    +0.000 A 
ATOM     10  C   UNL     1      -0.845  12.923  19.682  0.00  0.00    +0.000 A 
ATOM     11  C   UNL     1       0.028  12.310  18.775  0.00  0.00    +0.000 A 
ATOM     12  C   UNL     1       0.515  11.051  19.133  0.00  0.00    +0.000 A 
ATOM     13  N   UNL     1       1.382  10.183  18.528  0.00  0.00    +0.000 N 
ATOM     14  C   UNL     1       2.272   6.754  19.528  0.00  0.00    +0.000 C 
ATOM     15  O   UNL     1       1.737   6.359  20.551  0.00  0.00    +0.000 OA
ATOM     16  C   UNL     1       3.118   5.886  18.620  0.00  0.00    +0.000 C 
ATOM     17  H   UNL     1       1.859  10.302  17.647  0.00  0.00    +0.000 HD
ENDROOT
BRANCH  16  18
ATOM     18  C   UNL     1       2.199   4.861  17.946  0.00  0.00    +0.000 C 
BRANCH  18  19
ATOM     19  C   UNL     1       2.891   3.652  17.310  0.00  0.00    +0.000 C 
BRANCH  19  20
ATOM     20  C   UNL     1       2.394   2.281  17.794  0.00  0.00    +0.000 C 
ATOM     21  C   UNL     1       3.499   1.511  18.518  0.00  0.00    +0.000 C 
ATOM     22  C   UNL     1       1.185   2.462  18.713  0.00  0.00    +0.000 C 
ENDBRANCH  19  20
ENDBRANCH  18  19
ENDBRANCH  16  18
TORSDOF 3
ENDMDL
