MODEL 1
REMARK VINA RESULT:      -6.0      0.000      0.000
REMARK  Name = 
REMARK  6 active torsions:
REMARK  status: ('A' for Active; 'I' for Inactive)
REMARK    1  A    between atoms: C_2  and  C_3
REMARK    2  A    between atoms: C_4  and  C_5
REMARK    3  A    between atoms: C_8  and  O_9
REMARK    4  A    between atoms: N_12  and  C_13
REMARK    5  A    between atoms: C_13  and  C_14
REMARK    6  A    between atoms: C_14  and  O_15
REMARK                            x       y       z     vdW  Elec       q    Type
REMARK                         _______ _______ _______ _____ _____    ______ ____
ROOT
ATOM      1  C   UNL     1       8.193   8.925  17.773  0.00  0.00    +0.000 C 
ATOM      2  C   UNL     1       8.892   9.473  18.778  0.00  0.00    +0.000 C 
ENDROOT
BRANCH   2   3
ATOM      3  C   UNL     1       9.388  10.846  18.695  0.00  0.00    +0.000 A 
ATOM      4  C   UNL     1      10.454  11.262  19.501  0.00  0.00    +0.000 A 
ATOM      5  C   UNL     1      10.914  12.581  19.438  0.00  0.00    +0.000 A 
ATOM      6  C   UNL     1      10.302  13.477  18.567  0.00  0.00    +0.000 A 
ATOM      7  C   UNL     1       9.246  13.075  17.756  0.00  0.00    +0.000 A 
ATOM      8  C   UNL     1       8.788  11.758  17.820  0.00  0.00    +0.000 A 
BRANCH   6   9
ATOM      9  O   UNL     1      10.711  14.774  18.478  0.00  0.00    +0.000 OA
ATOM     10  H   UNL     1      10.068  15.336  18.943  0.00  0.00    +0.000 HD
ENDBRANCH   6   9
ENDBRANCH   2   3
BRANCH   1  12
ATOM     11  O   UNL     1       8.085   6.756  18.753  0.00  0.00    +0.000 OA
ATOM     12  C   UNL     1       7.705   7.528  17.883  0.00  0.00    +0.000 C 
ATOM     13  N   UNL     1       6.781   7.208  16.919  0.00  0.00    +0.000 N 
ATOM     14  H   UNL     1       6.555   7.875  16.194  0.00  0.00    +0.000 HD
BRANCH  13  15
ATOM     15  C   UNL     1       6.232   5.866  16.790  0.00  0.00    +0.000 C 
BRANCH  15  16
ATOM     16  C   UNL     1       7.162   4.902  16.050  0.00  0.00    +0.000 C 
BRANCH  16  17
ATOM     17  O   UNL     1       7.951   4.168  16.987  0.00  0.00    +0.000 OA
ATOM     18  H   UNL     1       8.867   4.241  16.664  0.00  0.00    +0.000 HD
ENDBRANCH  16  17
ENDBRANCH  15  16
ENDBRANCH  13  15
ENDBRANCH   1  12
TORSDOF 6
ENDMDL
MODEL 2
REMARK VINA RESULT:      -6.0      6.840      8.096
REMARK  Name = 
REMARK  6 active torsions:
REMARK  status: ('A' for Active; 'I' for Inactive)
REMARK    1  A    between atoms: C_2  and  C_3
REMARK    2  A    between atoms: C_4  and  C_5
REMARK    3  A    between atoms: C_8  and  O_9
REMARK    4  A    between atoms: N_12  and  C_13
REMARK    5  A    between atoms: C_13  and  C_14
REMARK    6  A    between atoms: C_14  and  O_15
REMARK                            x       y       z     vdW  Elec       q    Type
REMARK                         _______ _______ _______ _____ _____    ______ ____
ROOT
ATOM      1  C   UNL     1       5.960   5.056  15.598  0.00  0.00    +0.000 C 
ATOM      2  C   UNL     1       4.975   4.264  16.047  0.00  0.00    +0.000 C 
ENDROOT
BRANCH   2   3
ATOM      3  C   UNL     1       4.288   4.549  17.306  0.00  0.00    +0.000 A 
ATOM      4  C   UNL     1       4.973   5.165  18.360  0.00  0.00    +0.000 A 
ATOM      5  C   UNL     1       4.323   5.418  19.572  0.00  0.00    +0.000 A 
ATOM      6  C   UNL     1       2.990   5.050  19.723  0.00  0.00    +0.000 A 
ATOM      7  C   UNL     1       2.296   4.442  18.681  0.00  0.00    +0.000 A 
ATOM      8  C   UNL     1       2.946   4.191  17.471  0.00  0.00    +0.000 A 
BRANCH   6   9
ATOM      9  O   UNL     1       2.318   5.268  20.888  0.00  0.00    +0.000 OA
ATOM     10  H   UNL     1       2.266   6.227  21.042  0.00  0.00    +0.000 HD
ENDBRANCH   6   9
ENDBRANCH   2   3
BRANCH   1  12
ATOM     11  O   UNL     1       7.655   5.316  13.945  0.00  0.00    +0.000 OA
ATOM     12  C   UNL     1       6.642   4.741  14.319  0.00  0.00    +0.000 C 
ATOM     13  N   UNL     1       6.024   3.736  13.618  0.00  0.00    +0.000 N 
ATOM     14  H   UNL     1       5.156   3.343  13.957  0.00  0.00    +0.000 HD
BRANCH  13  15
ATOM     15  C   UNL     1       6.477   3.322  12.298  0.00  0.00    +0.000 C 
BRANCH  15  16
ATOM     16  C   UNL     1       5.503   2.373  11.596  0.00  0.00    +0.000 C 
BRANCH  16  17
ATOM     17  O   UNL     1       6.110   1.092  11.421  0.00  0.00    +0.000 OA
ATOM     18  H   UNL     1       6.860   1.075  12.042  0.00  0.00    +0.000 HD
ENDBRANCH  16  17
ENDBRANCH  15  16
ENDBRANCH  13  15
ENDBRANCH   1  12
TORSDOF 6
ENDMDL
MODEL 3
REMARK VINA RESULT:      -6.0      7.009      8.961
REMARK  Name = 
REMARK  6 active torsions:
REMARK  status: ('A' for Active; 'I' for Inactive)
REMARK    1  A    between atoms: C_2  and  C_3
REMARK    2  A    between atoms: C_4  and  C_5
REMARK    3  A    between atoms: C_8  and  O_9
REMARK    4  A    between atoms: N_12  and  C_13
REMARK    5  A    between atoms: C_13  and  C_14
REMARK    6  A    between atoms: C_14  and  O_15
REMARK                            x       y       z     vdW  Elec       q    Type
REMARK                         _______ _______ _______ _____ _____    ______ ____
ROOT
ATOM      1  C   UNL     1       5.655   4.333  16.620  0.00  0.00    +0.000 C 
ATOM      2  C   UNL     1       4.378   3.928  16.559  0.00  0.00    +0.000 C 
ENDROOT
BRANCH   2   3
ATOM      3  C   UNL     1       3.583   3.744  17.773  0.00  0.00    +0.000 A 
ATOM      4  C   UNL     1       4.162   3.179  18.916  0.00  0.00    +0.000 A 
ATOM      5  C   UNL     1       3.396   2.982  20.069  0.00  0.00    +0.000 A 
ATOM      6  C   UNL     1       2.055   3.350  20.071  0.00  0.00    +0.000 A 
ATOM      7  C   UNL     1       1.470   3.916  18.944  0.00  0.00    +0.000 A 
ATOM      8  C   UNL     1       2.234   4.114  17.792  0.00  0.00    +0.000 A 
BRANCH   6   9
ATOM      9  O   UNL     1       1.269   3.168  21.170  0.00  0.00    +0.000 OA
ATOM     10  H   UNL     1       1.298   2.231  21.423  0.00  0.00    +0.000 HD
ENDBRANCH   6   9
ENDBRANCH   2   3
BRANCH   1  12
ATOM     11  O   UNL     1       7.377   5.289  15.278  0.00  0.00    +0.000 OA
ATOM     12  C   UNL     1       6.439   4.509  15.372  0.00  0.00    +0.000 C 
ATOM     13  N   UNL     1       6.007   3.698  14.352  0.00  0.00    +0.000 N 
ATOM     14  H   UNL     1       5.188   3.118  14.478  0.00  0.00    +0.000 HD
BRANCH  13  15
ATOM     15  C   UNL     1       6.580   3.765  13.015  0.00  0.00    +0.000 C 
BRANCH  15  16
ATOM     16  C   UNL     1       5.683   3.144  11.942  0.00  0.00    +0.000 C 
BRANCH  16  17
ATOM     17  O   UNL     1       6.030   1.773  11.749  0.00  0.00    +0.000 OA
ATOM     18  H   UNL     1       6.487   1.741  10.890  0.00  0.00    +0.000 HD
ENDBRANCH  16  17
ENDBRANCH  15  16
ENDBRANCH  13  15
ENDBRANCH   1  12
TORSDOF 6
ENDMDL
MODEL 4
REMARK VINA RESULT:      -5.9      6.752      9.101
REMARK  Name = 
REMARK  6 active torsions:
REMARK  status: ('A' for Active; 'I' for Inactive)
REMARK    1  A    between atoms: C_2  and  C_3
REMARK    2  A    between atoms: C_4  and  C_5
REMARK    3  A    between atoms: C_8  and  O_9
REMARK    4  A    between atoms: N_12  and  C_13
REMARK    5  A    between atoms: C_13  and  C_14
REMARK    6  A    between atoms: C_14  and  O_15
REMARK                            x       y       z     vdW  Elec       q    Type
REMARK                         _______ _______ _______ _____ _____    ______ ____
ROOT
ATOM      1  C   UNL     1       5.579   4.466  16.867  0.00  0.00    +0.000 C 
ATOM      2  C   UNL     1       4.540   3.658  16.606  0.00  0.00    +0.000 C 
ENDROOT
BRANCH   2   3
ATOM      3  C   UNL     1       3.420   3.540  17.540  0.00  0.00    +0.000 A 
ATOM      4  C   UNL     1       2.848   4.687  18.105  0.00  0.00    +0.000 A 
ATOM      5  C   UNL     1       1.792   4.573  19.014  0.00  0.00    +0.000 A 
ATOM      6  C   UNL     1       1.315   3.311  19.354  0.00  0.00    +0.000 A 
ATOM      7  C   UNL     1       1.871   2.165  18.796  0.00  0.00    +0.000 A 
ATOM      8  C   UNL     1       2.925   2.279  17.887  0.00  0.00    +0.000 A 
BRANCH   6   9
ATOM      9  O   UNL     1       0.293   3.152  20.242  0.00  0.00    +0.000 OA
ATOM     10  H   UNL     1       0.060   4.022  20.608  0.00  0.00    +0.000 HD
ENDBRANCH   6   9
ENDBRANCH   2   3
BRANCH   1  12
ATOM     11  O   UNL     1       7.877   4.476  16.239  0.00  0.00    +0.000 OA
ATOM     12  C   UNL     1       6.703   4.563  15.904  0.00  0.00    +0.000 C 
ATOM     13  N   UNL     1       6.283   4.746  14.610  0.00  0.00    +0.000 N 
ATOM     14  H   UNL     1       5.300   4.869  14.410  0.00  0.00    +0.000 HD
BRANCH  13  15
ATOM     15  C   UNL     1       7.221   4.950  13.514  0.00  0.00    +0.000 C 
BRANCH  15  16
ATOM     16  C   UNL     1       7.002   3.985  12.347  0.00  0.00    +0.000 C 
BRANCH  16  17
ATOM     17  O   UNL     1       6.258   2.848  12.785  0.00  0.00    +0.000 OA
ATOM     18  H   UNL     1       6.154   2.289  11.995  0.00  0.00    +0.000 HD
ENDBRANCH  16  17
ENDBRANCH  15  16
ENDBRANCH  13  15
ENDBRANCH   1  12
TORSDOF 6
ENDMDL
MODEL 5
REMARK VINA RESULT:      -5.8      7.188      8.999
REMARK  Name = 
REMARK  6 active torsions:
REMARK  status: ('A' for Active; 'I' for Inactive)
REMARK    1  A    between atoms: C_2  and  C_3
REMARK    2  A    between atoms: C_4  and  C_5
REMARK    3  A    between atoms: C_8  and  O_9
REMARK    4  A    between atoms: N_12  and  C_13
REMARK    5  A    between atoms: C_13  and  C_14
REMARK    6  A    between atoms: C_14  and  O_15
REMARK                            x       y       z     vdW  Elec       q    Type
REMARK                         _______ _______ _______ _____ _____    ______ ____
ROOT
ATOM      1  C   UNL     1       5.047   4.122  16.810  0.00  0.00    +0.000 C 
ATOM      2  C   UNL     1       3.943   4.685  17.323  0.00  0.00    +0.000 C 
ENDROOT
BRANCH   2   3
ATOM      3  C   UNL     1       3.345   4.189  18.562  0.00  0.00    +0.000 A 
ATOM      4  C   UNL     1       2.182   4.779  19.071  0.00  0.00    +0.000 A 
ATOM      5  C   UNL     1       1.623   4.320  20.267  0.00  0.00    +0.000 A 
ATOM      6  C   UNL     1       2.234   3.272  20.950  0.00  0.00    +0.000 A 
ATOM      7  C   UNL     1       3.387   2.674  20.452  0.00  0.00    +0.000 A 
ATOM      8  C   UNL     1       3.944   3.132  19.257  0.00  0.00    +0.000 A 
BRANCH   6   9
ATOM      9  O   UNL     1       1.730   2.797  22.123  0.00  0.00    +0.000 OA
ATOM     10  H   UNL     1       1.097   2.087  21.925  0.00  0.00    +0.000 HD
ENDBRANCH   6   9
ENDBRANCH   2   3
BRANCH   1  12
ATOM     11  O   UNL     1       5.733   5.838  15.307  0.00  0.00    +0.000 OA
ATOM     12  C   UNL     1       5.630   4.643  15.550  0.00  0.00    +0.000 C 
ATOM     13  N   UNL     1       6.048   3.647  14.703  0.00  0.00    +0.000 N 
ATOM     14  H   UNL     1       5.880   2.678  14.940  0.00  0.00    +0.000 HD
BRANCH  13  15
ATOM     15  C   UNL     1       6.575   3.931  13.376  0.00  0.00    +0.000 C 
BRANCH  15  16
ATOM     16  C   UNL     1       5.810   3.219  12.258  0.00  0.00    +0.000 C 
BRANCH  16  17
ATOM     17  O   UNL     1       6.580   2.125  11.759  0.00  0.00    +0.000 OA
ATOM     18  H   UNL     1       6.536   1.442  12.451  0.00  0.00    +0.000 HD
ENDBRANCH  16  17
ENDBRANCH  15  16
ENDBRANCH  13  15
ENDBRANCH   1  12
TORSDOF 6
ENDMDL
MODEL 6
REMARK VINA RESULT:      -5.8      6.347      8.399
REMARK  Name = 
REMARK  6 active torsions:
REMARK  status: ('A' for Active; 'I' for Inactive)
REMARK    1  A    between atoms: C_2  and  C_3
REMARK    2  A    between atoms: C_4  and  C_5
REMARK    3  A    between atoms: C_8  and  O_9
REMARK    4  A    between atoms: N_12  and  C_13
REMARK    5  A    between atoms: C_13  and  C_14
REMARK    6  A    between atoms: C_14  and  O_15
REMARK                            x       y       z     vdW  Elec       q    Type
REMARK                         _______ _______ _______ _____ _____    ______ ____
ROOT
ATOM      1  C   UNL     1       2.817   4.024  17.329  0.00  0.00    +0.000 C 
ATOM      2  C   UNL     1       4.113   3.723  17.500  0.00  0.00    +0.000 C 
ENDROOT
BRANCH   2   3
ATOM      3  C   UNL     1       5.130   4.196  16.562  0.00  0.00    +0.000 A 
ATOM      4  C   UNL     1       5.075   3.824  15.213  0.00  0.00    +0.000 A 
ATOM      5  C   UNL     1       6.060   4.259  14.321  0.00  0.00    +0.000 A 
ATOM      6  C   UNL     1       7.097   5.062  14.784  0.00  0.00    +0.000 A 
ATOM      7  C   UNL     1       7.161   5.443  16.121  0.00  0.00    +0.000 A 
ATOM      8  C   UNL     1       6.176   5.009  17.012  0.00  0.00    +0.000 A 
BRANCH   6   9
ATOM      9  O   UNL     1       8.083   5.501  13.953  0.00  0.00    +0.000 OA
ATOM     10  H   UNL     1       8.116   6.472  13.995  0.00  0.00    +0.000 HD
ENDBRANCH   6   9
ENDBRANCH   2   3
BRANCH   1  12
ATOM     11  O   UNL     1       0.983   2.667  18.014  0.00  0.00    +0.000 OA
ATOM     12  C   UNL     1       1.806   3.527  18.295  0.00  0.00    +0.000 C 
ATOM     13  N   UNL     1       1.907   4.125  19.527  0.00  0.00    +0.000 N 
ATOM     14  H   UNL     1       2.573   4.871  19.675  0.00  0.00    +0.000 HD
BRANCH  13  15
ATOM     15  C   UNL     1       0.962   3.847  20.600  0.00  0.00    +0.000 C 
BRANCH  15  16
ATOM     16  C   UNL     1       1.386   2.676  21.488  0.00  0.00    +0.000 C 
BRANCH  16  17
ATOM     17  O   UNL     1       2.512   3.049  22.284  0.00  0.00    +0.000 OA
ATOM     18  H   UNL     1       3.211   3.282  21.648  0.00  0.00    +0.000 HD
ENDBRANCH  16  17
ENDBRANCH  15  16
ENDBRANCH  13  15
ENDBRANCH   1  12
TORSDOF 6
ENDMDL
MODEL 7
REMARK VINA RESULT:      -5.8      6.875      8.096
REMARK  Name = 
REMARK  6 active torsions:
REMARK  status: ('A' for Active; 'I' for Inactive)
REMARK    1  A    between atoms: C_2  and  C_3
REMARK    2  A    between atoms: C_4  and  C_5
REMARK    3  A    between atoms: C_8  and  O_9
REMARK    4  A    between atoms: N_12  and  C_13
REMARK    5  A    between atoms: C_13  and  C_14
REMARK    6  A    between atoms: C_14  and  O_15
REMARK                            x       y       z     vdW  Elec       q    Type
REMARK                         _______ _______ _______ _____ _____    ______ ____
ROOT
ATOM      1  C   UNL     1       6.031   5.030  15.717  0.00  0.00    +0.000 C 
ATOM      2  C   UNL     1       5.099   4.189  16.190  0.00  0.00    +0.000 C 
ENDROOT
BRANCH   2   3
ATOM      3  C   UNL     1       4.432   4.440  17.467  0.00  0.00    +0.000 A 
ATOM      4  C   UNL     1       4.132   3.377  18.328  0.00  0.00    +0.000 A 
ATOM      5  C   UNL     1       3.474   3.614  19.538  0.00  0.00    +0.000 A 
ATOM      6  C   UNL     1       3.118   4.914  19.881  0.00  0.00    +0.000 A 
ATOM      7  C   UNL     1       3.415   5.980  19.037  0.00  0.00    +0.000 A 
ATOM      8  C   UNL     1       4.073   5.743  17.828  0.00  0.00    +0.000 A 
BRANCH   6   9
ATOM      9  O   UNL     1       2.469   5.191  21.046  0.00  0.00    +0.000 OA
ATOM     10  H   UNL     1       2.028   4.383  21.357  0.00  0.00    +0.000 HD
ENDBRANCH   6   9
ENDBRANCH   2   3
BRANCH   1  12
ATOM     11  O   UNL     1       7.698   5.340  14.043  0.00  0.00    +0.000 OA
ATOM     12  C   UNL     1       6.695   4.750  14.420  0.00  0.00    +0.000 C 
ATOM     13  N   UNL     1       6.072   3.756  13.706  0.00  0.00    +0.000 N 
ATOM     14  H   UNL     1       5.212   3.349  14.049  0.00  0.00    +0.000 HD
BRANCH  13  15
ATOM     15  C   UNL     1       6.506   3.376  12.369  0.00  0.00    +0.000 C 
BRANCH  15  16
ATOM     16  C   UNL     1       5.484   2.515  11.625  0.00  0.00    +0.000 C 
BRANCH  16  17
ATOM     17  O   UNL     1       4.246   3.217  11.507  0.00  0.00    +0.000 OA
ATOM     18  H   UNL     1       4.490   4.157  11.429  0.00  0.00    +0.000 HD
ENDBRANCH  16  17
ENDBRANCH  15  16
ENDBRANCH  13  15
ENDBRANCH   1  12
TORSDOF 6
ENDMDL
MODEL 8
REMARK VINA RESULT:      -5.8      7.015      8.783
REMARK  Name = 
REMARK  6 active torsions:
REMARK  status: ('A' for Active; 'I' for Inactive)
REMARK    1  A    between atoms: C_2  and  C_3
REMARK    2  A    between atoms: C_4  and  C_5
REMARK    3  A    between atoms: C_8  and  O_9
REMARK    4  A    between atoms: N_12  and  C_13
REMARK    5  A    between atoms: C_13  and  C_14
REMARK    6  A    between atoms: C_14  and  O_15
REMARK                            x       y       z     vdW  Elec       q    Type
REMARK                         _______ _______ _______ _____ _____    ______ ____
ROOT
ATOM      1  C   UNL     1       5.670   4.602  16.277  0.00  0.00    +0.000 C 
ATOM      2  C   UNL     1       4.473   3.999  16.315  0.00  0.00    +0.000 C 
ENDROOT
BRANCH   2   3
ATOM      3  C   UNL     1       3.660   4.006  17.531  0.00  0.00    +0.000 A 
ATOM      4  C   UNL     1       2.271   3.854  17.453  0.00  0.00    +0.000 A 
ATOM      5  C   UNL     1       1.491   3.883  18.613  0.00  0.00    +0.000 A 
ATOM      6  C   UNL     1       2.108   4.066  19.847  0.00  0.00    +0.000 A 
ATOM      7  C   UNL     1       3.488   4.212  19.939  0.00  0.00    +0.000 A 
ATOM      8  C   UNL     1       4.266   4.182  18.780  0.00  0.00    +0.000 A 
BRANCH   6   9
ATOM      9  O   UNL     1       1.388   4.109  21.003  0.00  0.00    +0.000 OA
ATOM     10  H   UNL     1       0.656   3.473  20.938  0.00  0.00    +0.000 HD
ENDBRANCH   6   9
ENDBRANCH   2   3
BRANCH   1  12
ATOM     11  O   UNL     1       7.484   5.252  14.875  0.00  0.00    +0.000 OA
ATOM     12  C   UNL     1       6.475   4.576  15.031  0.00  0.00    +0.000 C 
ATOM     13  N   UNL     1       5.976   3.710  14.091  0.00  0.00    +0.000 N 
ATOM     14  H   UNL     1       5.105   3.225  14.262  0.00  0.00    +0.000 HD
BRANCH  13  15
ATOM     15  C   UNL     1       6.562   3.587  12.764  0.00  0.00    +0.000 C 
BRANCH  15  16
ATOM     16  C   UNL     1       5.649   2.873  11.765  0.00  0.00    +0.000 C 
BRANCH  16  17
ATOM     17  O   UNL     1       6.019   1.497  11.663  0.00  0.00    +0.000 OA
ATOM     18  H   UNL     1       6.438   1.279  12.514  0.00  0.00    +0.000 HD
ENDBRANCH  16  17
ENDBRANCH  15  16
ENDBRANCH  13  15
ENDBRANCH   1  12
TORSDOF 6
ENDMDL
MODEL 9
REMARK VINA RESULT:      -5.8      1.376      1.427
REMARK  Name = 
REMARK  6 active torsions:
REMARK  status: ('A' for Active; 'I' for Inactive)
REMARK    1  A    between atoms: C_2  and  C_3
REMARK    2  A    between atoms: C_4  and  C_5
REMARK    3  A    between atoms: C_8  and  O_9
REMARK    4  A    between atoms: N_12  and  C_13
REMARK    5  A    between atoms: C_13  and  C_14
REMARK    6  A    between atoms: C_14  and  O_15
REMARK                            x       y       z     vdW  Elec       q    Type
REMARK                         _______ _______ _______ _____ _____    ______ ____
ROOT
ATOM      1  C   UNL     1       8.312   9.142  17.773  0.00  0.00    +0.000 C 
ATOM      2  C   UNL     1       8.926   9.454  18.924  0.00  0.00    +0.000 C 
ENDROOT
BRANCH   2   3
ATOM      3  C   UNL     1       9.709  10.682  19.056  0.00  0.00    +0.000 A 
ATOM      4  C   UNL     1       9.984  11.211  20.323  0.00  0.00    +0.000 A 
ATOM      5  C   UNL     1      10.714  12.397  20.448  0.00  0.00    +0.000 A 
ATOM      6  C   UNL     1      11.163  13.048  19.304  0.00  0.00    +0.000 A 
ATOM      7  C   UNL     1      10.901  12.530  18.040  0.00  0.00    +0.000 A 
ATOM      8  C   UNL     1      10.173  11.345  17.915  0.00  0.00    +0.000 A 
BRANCH   6   9
ATOM      9  O   UNL     1      11.870  14.211  19.377  0.00  0.00    +0.000 OA
ATOM     10  H   UNL     1      11.761  14.586  20.267  0.00  0.00    +0.000 HD
ENDBRANCH   6   9
ENDBRANCH   2   3
BRANCH   1  12
ATOM     11  O   UNL     1       6.637   7.727  16.842  0.00  0.00    +0.000 OA
ATOM     12  C   UNL     1       7.527   7.888  17.667  0.00  0.00    +0.000 C 
ATOM     13  N   UNL     1       7.916   6.936  18.576  0.00  0.00    +0.000 N 
ATOM     14  H   UNL     1       8.619   7.155  19.268  0.00  0.00    +0.000 HD
BRANCH  13  15
ATOM     15  C   UNL     1       7.226   5.660  18.702  0.00  0.00    +0.000 C 
BRANCH  15  16
ATOM     16  C   UNL     1       7.464   4.726  17.514  0.00  0.00    +0.000 C 
BRANCH  16  17
ATOM     17  O   UNL     1       8.589   3.885  17.771  0.00  0.00    +0.000 OA
ATOM     18  H   UNL     1       9.369   4.456  17.649  0.00  0.00    +0.000 HD
ENDBRANCH  16  17
ENDBRANCH  15  16
ENDBRANCH  13  15
ENDBRANCH   1  12
TORSDOF 6
ENDMDL
