MODEL 1
REMARK VINA RESULT:      -7.0      0.000      0.000
REMARK  Name = 
REMARK  2 active torsions:
REMARK  status: ('A' for Active; 'I' for Inactive)
REMARK    1  A    between atoms: C_8  and  C_9
REMARK    2  A    between atoms: C_9  and  N_10
REMARK                            x       y       z     vdW  Elec       q    Type
REMARK                         _______ _______ _______ _____ _____    ______ ____
ROOT
ATOM      1  F   UNL     1       4.710   2.101  20.641  0.00  0.00    +0.000 F 
ATOM      2  C   UNL     1       3.507   2.655  20.419  0.00  0.00    +0.000 A 
ATOM      3  C   UNL     1       2.567   2.603  21.446  0.00  0.00    +0.000 A 
ATOM      4  C   UNL     1       1.302   3.156  21.257  0.00  0.00    +0.000 A 
ATOM      5  C   UNL     1       0.994   3.739  20.032  0.00  0.00    +0.000 A 
ATOM      6  C   UNL     1       1.937   3.771  18.994  0.00  0.00    +0.000 A 
ATOM      7 CL   UNL     1       1.409   4.440  17.491  0.00  0.00    +0.000 Cl
ATOM      8  C   UNL     1       3.233   3.245  19.178  0.00  0.00    +0.000 A 
ENDROOT
BRANCH   8   9
ATOM      9  C   UNL     1       4.291   3.215  18.092  0.00  0.00    +0.000 C 
BRANCH   9  10
ATOM     10  N   UNL     1       4.717   4.548  17.658  0.00  0.00    +0.000 NA
ATOM     11  C   UNL     1       5.869   5.086  18.398  0.00  0.00    +0.000 C 
ATOM     12  C   UNL     1       7.244   4.571  17.924  0.00  0.00    +0.000 C 
ATOM     13  N   UNL     1       7.473   4.786  16.491  0.00  0.00    +0.000 NA
ATOM     14  C   UNL     1       6.356   4.263  15.694  0.00  0.00    +0.000 C 
ATOM     15  C   UNL     1       4.950   4.648  16.207  0.00  0.00    +0.000 C 
ATOM     16  H   UNL     1       8.339   4.328  16.209  0.00  0.00    +0.000 HD
ENDBRANCH   9  10
ENDBRANCH   8   9
TORSDOF 2
ENDMDL
MODEL 2
REMARK VINA RESULT:      -6.7      1.914      2.116
REMARK  Name = 
REMARK  2 active torsions:
REMARK  status: ('A' for Active; 'I' for Inactive)
REMARK    1  A    between atoms: C_8  and  C_9
REMARK    2  A    between atoms: C_9  and  N_10
REMARK                            x       y       z     vdW  Elec       q    Type
REMARK                         _______ _______ _______ _____ _____    ______ ____
ROOT
ATOM      1  F   UNL     1       3.148   6.211  20.046  0.00  0.00    +0.000 F 
ATOM      2  C   UNL     1       2.649   4.973  19.900  0.00  0.00    +0.000 A 
ATOM      3  C   UNL     1       1.411   4.697  20.477  0.00  0.00    +0.000 A 
ATOM      4  C   UNL     1       0.860   3.423  20.360  0.00  0.00    +0.000 A 
ATOM      5  C   UNL     1       1.568   2.438  19.678  0.00  0.00    +0.000 A 
ATOM      6  C   UNL     1       2.824   2.715  19.116  0.00  0.00    +0.000 A 
ATOM      7 CL   UNL     1       3.647   1.389  18.374  0.00  0.00    +0.000 Cl
ATOM      8  C   UNL     1       3.383   4.008  19.198  0.00  0.00    +0.000 A 
ENDROOT
BRANCH   8   9
ATOM      9  C   UNL     1       4.748   4.371  18.644  0.00  0.00    +0.000 C 
BRANCH   9  10
ATOM     10  N   UNL     1       4.693   4.965  17.306  0.00  0.00    +0.000 NA
ATOM     11  C   UNL     1       5.069   6.387  17.259  0.00  0.00    +0.000 C 
ATOM     12  C   UNL     1       6.589   6.656  17.238  0.00  0.00    +0.000 C 
ATOM     13  N   UNL     1       7.279   5.958  16.149  0.00  0.00    +0.000 NA
ATOM     14  C   UNL     1       6.948   4.527  16.145  0.00  0.00    +0.000 C 
ATOM     15  C   UNL     1       5.444   4.204  16.293  0.00  0.00    +0.000 C 
ATOM     16  H   UNL     1       8.286   6.075  16.249  0.00  0.00    +0.000 HD
ENDBRANCH   9  10
ENDBRANCH   8   9
TORSDOF 2
ENDMDL
MODEL 3
REMARK VINA RESULT:      -6.7      1.601      1.690
REMARK  Name = 
REMARK  2 active torsions:
REMARK  status: ('A' for Active; 'I' for Inactive)
REMARK    1  A    between atoms: C_8  and  C_9
REMARK    2  A    between atoms: C_9  and  N_10
REMARK                            x       y       z     vdW  Elec       q    Type
REMARK                         _______ _______ _______ _____ _____    ______ ____
ROOT
ATOM      1  F   UNL     1       4.418   2.254  19.507  0.00  0.00    +0.000 F 
ATOM      2  C   UNL     1       3.394   3.061  19.832  0.00  0.00    +0.000 A 
ATOM      3  C   UNL     1       2.218   2.469  20.289  0.00  0.00    +0.000 A 
ATOM      4  C   UNL     1       1.127   3.266  20.627  0.00  0.00    +0.000 A 
ATOM      5  C   UNL     1       1.226   4.647  20.486  0.00  0.00    +0.000 A 
ATOM      6  C   UNL     1       2.406   5.237  20.006  0.00  0.00    +0.000 A 
ATOM      7 CL   UNL     1       2.378   6.951  19.788  0.00  0.00    +0.000 Cl
ATOM      8  C   UNL     1       3.532   4.448  19.688  0.00  0.00    +0.000 A 
ENDROOT
BRANCH   8   9
ATOM      9  C   UNL     1       4.825   5.013  19.134  0.00  0.00    +0.000 C 
BRANCH   9  10
ATOM     10  N   UNL     1       4.784   5.248  17.688  0.00  0.00    +0.000 NA
ATOM     11  C   UNL     1       5.102   6.628  17.289  0.00  0.00    +0.000 C 
ATOM     12  C   UNL     1       6.608   6.955  17.227  0.00  0.00    +0.000 C 
ATOM     13  N   UNL     1       7.359   6.039  16.362  0.00  0.00    +0.000 NA
ATOM     14  C   UNL     1       7.088   4.639  16.715  0.00  0.00    +0.000 C 
ATOM     15  C   UNL     1       5.595   4.292  16.914  0.00  0.00    +0.000 C 
ATOM     16  H   UNL     1       8.357   6.226  16.447  0.00  0.00    +0.000 HD
ENDBRANCH   9  10
ENDBRANCH   8   9
TORSDOF 2
ENDMDL
MODEL 4
REMARK VINA RESULT:      -6.7      2.403      3.082
REMARK  Name = 
REMARK  2 active torsions:
REMARK  status: ('A' for Active; 'I' for Inactive)
REMARK    1  A    between atoms: C_8  and  C_9
REMARK    2  A    between atoms: C_9  and  N_10
REMARK                            x       y       z     vdW  Elec       q    Type
REMARK                         _______ _______ _______ _____ _____    ______ ____
ROOT
ATOM      1  F   UNL     1       2.797   6.097  17.740  0.00  0.00    +0.000 F 
ATOM      2  C   UNL     1       2.679   4.835  18.185  0.00  0.00    +0.000 A 
ATOM      3  C   UNL     1       1.505   4.147  17.885  0.00  0.00    +0.000 A 
ATOM      4  C   UNL     1       1.334   2.840  18.336  0.00  0.00    +0.000 A 
ATOM      5  C   UNL     1       2.338   2.247  19.095  0.00  0.00    +0.000 A 
ATOM      6  C   UNL     1       3.509   2.952  19.412  0.00  0.00    +0.000 A 
ATOM      7 CL   UNL     1       4.643   2.145  20.436  0.00  0.00    +0.000 Cl
ATOM      8  C   UNL     1       3.714   4.266  18.938  0.00  0.00    +0.000 A 
ENDROOT
BRANCH   8   9
ATOM      9  C   UNL     1       4.938   5.098  19.268  0.00  0.00    +0.000 C 
BRANCH   9  10
ATOM     10  N   UNL     1       6.156   4.630  18.600  0.00  0.00    +0.000 NA
ATOM     11  C   UNL     1       6.027   4.476  17.143  0.00  0.00    +0.000 C 
ATOM     12  C   UNL     1       6.174   5.783  16.337  0.00  0.00    +0.000 C 
ATOM     13  N   UNL     1       7.426   6.493  16.619  0.00  0.00    +0.000 NA
ATOM     14  C   UNL     1       7.611   6.684  18.063  0.00  0.00    +0.000 C 
ATOM     15  C   UNL     1       7.349   5.429  18.927  0.00  0.00    +0.000 C 
ATOM     16  H   UNL     1       7.421   7.399  16.152  0.00  0.00    +0.000 HD
ENDBRANCH   9  10
ENDBRANCH   8   9
TORSDOF 2
ENDMDL
MODEL 5
REMARK VINA RESULT:      -6.6      1.787      2.224
REMARK  Name = 
REMARK  2 active torsions:
REMARK  status: ('A' for Active; 'I' for Inactive)
REMARK    1  A    between atoms: C_8  and  C_9
REMARK    2  A    between atoms: C_9  and  N_10
REMARK                            x       y       z     vdW  Elec       q    Type
REMARK                         _______ _______ _______ _____ _____    ______ ____
ROOT
ATOM      1  F   UNL     1       2.834   2.119  17.394  0.00  0.00    +0.000 F 
ATOM      2  C   UNL     1       2.385   2.924  18.372  0.00  0.00    +0.000 A 
ATOM      3  C   UNL     1       1.493   2.387  19.299  0.00  0.00    +0.000 A 
ATOM      4  C   UNL     1       0.993   3.188  20.323  0.00  0.00    +0.000 A 
ATOM      5  C   UNL     1       1.383   4.522  20.392  0.00  0.00    +0.000 A 
ATOM      6  C   UNL     1       2.266   5.063  19.444  0.00  0.00    +0.000 A 
ATOM      7 CL   UNL     1       2.605   6.751  19.581  0.00  0.00    +0.000 Cl
ATOM      8  C   UNL     1       2.807   4.259  18.419  0.00  0.00    +0.000 A 
ENDROOT
BRANCH   8   9
ATOM      9  C   UNL     1       3.738   4.782  17.342  0.00  0.00    +0.000 C 
BRANCH   9  10
ATOM     10  N   UNL     1       5.115   4.300  17.480  0.00  0.00    +0.000 NA
ATOM     11  C   UNL     1       5.775   3.978  16.205  0.00  0.00    +0.000 C 
ATOM     12  C   UNL     1       6.351   5.192  15.447  0.00  0.00    +0.000 C 
ATOM     13  N   UNL     1       7.278   5.987  16.260  0.00  0.00    +0.000 NA
ATOM     14  C   UNL     1       6.674   6.347  17.550  0.00  0.00    +0.000 C 
ATOM     15  C   UNL     1       5.970   5.186  18.289  0.00  0.00    +0.000 C 
ATOM     16  H   UNL     1       7.538   6.834  15.756  0.00  0.00    +0.000 HD
ENDBRANCH   9  10
ENDBRANCH   8   9
TORSDOF 2
ENDMDL
MODEL 6
REMARK VINA RESULT:      -6.6      1.749      1.857
REMARK  Name = 
REMARK  2 active torsions:
REMARK  status: ('A' for Active; 'I' for Inactive)
REMARK    1  A    between atoms: C_8  and  C_9
REMARK    2  A    between atoms: C_9  and  N_10
REMARK                            x       y       z     vdW  Elec       q    Type
REMARK                         _______ _______ _______ _____ _____    ______ ____
ROOT
ATOM      1  F   UNL     1       3.703   1.632  17.790  0.00  0.00    +0.000 F 
ATOM      2  C   UNL     1       2.894   2.455  18.477  0.00  0.00    +0.000 A 
ATOM      3  C   UNL     1       1.630   1.982  18.827  0.00  0.00    +0.000 A 
ATOM      4  C   UNL     1       0.753   2.804  19.531  0.00  0.00    +0.000 A 
ATOM      5  C   UNL     1       1.151   4.097  19.858  0.00  0.00    +0.000 A 
ATOM      6  C   UNL     1       2.416   4.576  19.484  0.00  0.00    +0.000 A 
ATOM      7 CL   UNL     1       2.761   6.225  19.866  0.00  0.00    +0.000 Cl
ATOM      8  C   UNL     1       3.330   3.747  18.799  0.00  0.00    +0.000 A 
ENDROOT
BRANCH   8   9
ATOM      9  C   UNL     1       4.698   4.207  18.336  0.00  0.00    +0.000 C 
BRANCH   9  10
ATOM     10  N   UNL     1       4.686   4.819  17.004  0.00  0.00    +0.000 NA
ATOM     11  C   UNL     1       4.982   6.260  16.998  0.00  0.00    +0.000 C 
ATOM     12  C   UNL     1       6.482   6.615  17.068  0.00  0.00    +0.000 C 
ATOM     13  N   UNL     1       7.272   5.975  16.011  0.00  0.00    +0.000 NA
ATOM     14  C   UNL     1       7.024   4.528  15.969  0.00  0.00    +0.000 C 
ATOM     15  C   UNL     1       5.535   4.118  16.026  0.00  0.00    +0.000 C 
ATOM     16  H   UNL     1       8.264   6.147  16.170  0.00  0.00    +0.000 HD
ENDBRANCH   9  10
ENDBRANCH   8   9
TORSDOF 2
ENDMDL
MODEL 7
REMARK VINA RESULT:      -6.6      1.921      2.410
REMARK  Name = 
REMARK  2 active torsions:
REMARK  status: ('A' for Active; 'I' for Inactive)
REMARK    1  A    between atoms: C_8  and  C_9
REMARK    2  A    between atoms: C_9  and  N_10
REMARK                            x       y       z     vdW  Elec       q    Type
REMARK                         _______ _______ _______ _____ _____    ______ ____
ROOT
ATOM      1  F   UNL     1       3.034   6.718  19.631  0.00  0.00    +0.000 F 
ATOM      2  C   UNL     1       2.500   5.486  19.597  0.00  0.00    +0.000 A 
ATOM      3  C   UNL     1       1.664   5.110  20.647  0.00  0.00    +0.000 A 
ATOM      4  C   UNL     1       1.096   3.839  20.660  0.00  0.00    +0.000 A 
ATOM      5  C   UNL     1       1.388   2.955  19.626  0.00  0.00    +0.000 A 
ATOM      6  C   UNL     1       2.247   3.331  18.581  0.00  0.00    +0.000 A 
ATOM      7 CL   UNL     1       2.607   2.118  17.404  0.00  0.00    +0.000 Cl
ATOM      8  C   UNL     1       2.807   4.625  18.535  0.00  0.00    +0.000 A 
ENDROOT
BRANCH   8   9
ATOM      9  C   UNL     1       3.768   5.089  17.457  0.00  0.00    +0.000 C 
BRANCH   9  10
ATOM     10  N   UNL     1       5.134   4.594  17.645  0.00  0.00    +0.000 NA
ATOM     11  C   UNL     1       5.766   4.080  16.420  0.00  0.00    +0.000 C 
ATOM     12  C   UNL     1       6.361   5.161  15.493  0.00  0.00    +0.000 C 
ATOM     13  N   UNL     1       7.319   6.036  16.177  0.00  0.00    +0.000 NA
ATOM     14  C   UNL     1       6.744   6.588  17.410  0.00  0.00    +0.000 C 
ATOM     15  C   UNL     1       6.023   5.560  18.312  0.00  0.00    +0.000 C 
ATOM     16  H   UNL     1       7.593   6.797  15.557  0.00  0.00    +0.000 HD
ENDBRANCH   9  10
ENDBRANCH   8   9
TORSDOF 2
ENDMDL
MODEL 8
REMARK VINA RESULT:      -6.6      1.894      2.261
REMARK  Name = 
REMARK  2 active torsions:
REMARK  status: ('A' for Active; 'I' for Inactive)
REMARK    1  A    between atoms: C_8  and  C_9
REMARK    2  A    between atoms: C_9  and  N_10
REMARK                            x       y       z     vdW  Elec       q    Type
REMARK                         _______ _______ _______ _____ _____    ______ ____
ROOT
ATOM      1  F   UNL     1       1.535   4.659  17.713  0.00  0.00    +0.000 F 
ATOM      2  C   UNL     1       1.881   4.015  18.841  0.00  0.00    +0.000 A 
ATOM      3  C   UNL     1       1.017   4.102  19.931  0.00  0.00    +0.000 A 
ATOM      4  C   UNL     1       1.341   3.460  21.124  0.00  0.00    +0.000 A 
ATOM      5  C   UNL     1       2.536   2.754  21.211  0.00  0.00    +0.000 A 
ATOM      6  C   UNL     1       3.413   2.687  20.117  0.00  0.00    +0.000 A 
ATOM      7 CL   UNL     1       4.907   1.858  20.375  0.00  0.00    +0.000 Cl
ATOM      8  C   UNL     1       3.087   3.304  18.891  0.00  0.00    +0.000 A 
ENDROOT
BRANCH   8   9
ATOM      9  C   UNL     1       4.000   3.302  17.679  0.00  0.00    +0.000 C 
BRANCH   9  10
ATOM     10  N   UNL     1       4.536   4.626  17.353  0.00  0.00    +0.000 NA
ATOM     11  C   UNL     1       5.545   5.121  18.302  0.00  0.00    +0.000 C 
ATOM     12  C   UNL     1       6.969   4.569  18.082  0.00  0.00    +0.000 C 
ATOM     13  N   UNL     1       7.466   4.791  16.720  0.00  0.00    +0.000 NA
ATOM     14  C   UNL     1       6.501   4.311  15.722  0.00  0.00    +0.000 C 
ATOM     15  C   UNL     1       5.036   4.734  15.972  0.00  0.00    +0.000 C 
ATOM     16  H   UNL     1       8.355   4.310  16.595  0.00  0.00    +0.000 HD
ENDBRANCH   9  10
ENDBRANCH   8   9
TORSDOF 2
ENDMDL
MODEL 9
REMARK VINA RESULT:      -6.6      1.071      1.608
REMARK  Name = 
REMARK  2 active torsions:
REMARK  status: ('A' for Active; 'I' for Inactive)
REMARK    1  A    between atoms: C_8  and  C_9
REMARK    2  A    between atoms: C_9  and  N_10
REMARK                            x       y       z     vdW  Elec       q    Type
REMARK                         _______ _______ _______ _____ _____    ______ ____
ROOT
ATOM      1  F   UNL     1       4.720   2.166  20.546  0.00  0.00    +0.000 F 
ATOM      2  C   UNL     1       3.497   2.692  20.368  0.00  0.00    +0.000 A 
ATOM      3  C   UNL     1       2.593   2.609  21.426  0.00  0.00    +0.000 A 
ATOM      4  C   UNL     1       1.309   3.131  21.283  0.00  0.00    +0.000 A 
ATOM      5  C   UNL     1       0.945   3.713  20.073  0.00  0.00    +0.000 A 
ATOM      6  C   UNL     1       1.852   3.775  19.003  0.00  0.00    +0.000 A 
ATOM      7 CL   UNL     1       1.256   4.439  17.524  0.00  0.00    +0.000 Cl
ATOM      8  C   UNL     1       3.166   3.281  19.140  0.00  0.00    +0.000 A 
ENDROOT
BRANCH   8   9
ATOM      9  C   UNL     1       4.188   3.284  18.019  0.00  0.00    +0.000 C 
BRANCH   9  10
ATOM     10  N   UNL     1       5.220   4.312  18.176  0.00  0.00    +0.000 NA
ATOM     11  C   UNL     1       6.125   4.442  17.024  0.00  0.00    +0.000 C 
ATOM     12  C   UNL     1       5.570   5.280  15.854  0.00  0.00    +0.000 C 
ATOM     13  N   UNL     1       5.144   6.623  16.262  0.00  0.00    +0.000 NA
ATOM     14  C   UNL     1       4.230   6.561  17.410  0.00  0.00    +0.000 C 
ATOM     15  C   UNL     1       4.684   5.630  18.558  0.00  0.00    +0.000 C 
ATOM     16  H   UNL     1       4.683   7.090  15.482  0.00  0.00    +0.000 HD
ENDBRANCH   9  10
ENDBRANCH   8   9
TORSDOF 2
ENDMDL
