MODEL 1
REMARK VINA RESULT:      -7.6      0.000      0.000
REMARK  Name = 
REMARK  1 active torsions:
REMARK  status: ('A' for Active; 'I' for Inactive)
REMARK    1  A    between atoms: C_2  and  C_3
REMARK                            x       y       z     vdW  Elec       q    Type
REMARK                         _______ _______ _______ _____ _____    ______ ____
ROOT
ATOM      1  C   UNL     1       3.350   3.375  17.124  0.00  0.00    +0.000 C 
ATOM      2  C   UNL     1       4.223   4.401  17.104  0.00  0.00    +0.000 C 
ATOM      3  C   UNL     1       4.006   5.359  18.264  0.00  0.00    +0.000 C 
ATOM      4  C   UNL     1       2.840   4.717  18.954  0.00  0.00    +0.000 A 
ATOM      5  C   UNL     1       2.165   5.124  20.091  0.00  0.00    +0.000 A 
ATOM      6  C   UNL     1       1.103   4.333  20.540  0.00  0.00    +0.000 A 
ATOM      7  C   UNL     1       0.737   3.162  19.854  0.00  0.00    +0.000 A 
ATOM      8  C   UNL     1       1.428   2.763  18.706  0.00  0.00    +0.000 A 
ATOM      9  C   UNL     1       2.475   3.552  18.270  0.00  0.00    +0.000 A 
ENDROOT
BRANCH   2  10
ATOM     10  C   UNL     1       5.287   4.592  16.115  0.00  0.00    +0.000 A 
ATOM     11  C   UNL     1       5.239   3.971  14.862  0.00  0.00    +0.000 A 
ATOM     12  C   UNL     1       6.258   4.179  13.935  0.00  0.00    +0.000 A 
ATOM     13  C   UNL     1       7.306   5.011  14.286  0.00  0.00    +0.000 A 
ATOM     14  N   UNL     1       7.394   5.637  15.476  0.00  0.00    +0.000 NA
ATOM     15  C   UNL     1       6.385   5.414  16.357  0.00  0.00    +0.000 A 
ENDBRANCH   2  10
TORSDOF 1
ENDMDL
MODEL 2
REMARK VINA RESULT:      -7.5      0.221      1.529
REMARK  Name = 
REMARK  1 active torsions:
REMARK  status: ('A' for Active; 'I' for Inactive)
REMARK    1  A    between atoms: C_2  and  C_3
REMARK                            x       y       z     vdW  Elec       q    Type
REMARK                         _______ _______ _______ _____ _____    ______ ____
ROOT
ATOM      1  C   UNL     1       4.197   5.039  18.361  0.00  0.00    +0.000 C 
ATOM      2  C   UNL     1       4.287   4.368  17.196  0.00  0.00    +0.000 C 
ATOM      3  C   UNL     1       3.154   3.370  17.022  0.00  0.00    +0.000 C 
ATOM      4  C   UNL     1       2.398   3.567  18.300  0.00  0.00    +0.000 A 
ATOM      5  C   UNL     1       1.250   2.934  18.744  0.00  0.00    +0.000 A 
ATOM      6  C   UNL     1       0.733   3.312  19.987  0.00  0.00    +0.000 A 
ATOM      7  C   UNL     1       1.363   4.304  20.757  0.00  0.00    +0.000 A 
ATOM      8  C   UNL     1       2.522   4.935  20.297  0.00  0.00    +0.000 A 
ATOM      9  C   UNL     1       3.025   4.554  19.068  0.00  0.00    +0.000 A 
ENDROOT
BRANCH   2  10
ATOM     10  C   UNL     1       5.323   4.567  16.178  0.00  0.00    +0.000 A 
ATOM     11  C   UNL     1       5.259   3.926  14.936  0.00  0.00    +0.000 A 
ATOM     12  C   UNL     1       6.252   4.142  13.981  0.00  0.00    +0.000 A 
ATOM     13  C   UNL     1       7.288   5.003  14.295  0.00  0.00    +0.000 A 
ATOM     14  N   UNL     1       7.390   5.649  15.474  0.00  0.00    +0.000 NA
ATOM     15  C   UNL     1       6.408   5.417  16.382  0.00  0.00    +0.000 A 
ENDBRANCH   2  10
TORSDOF 1
ENDMDL
MODEL 3
REMARK VINA RESULT:      -7.4      1.331      1.358
REMARK  Name = 
REMARK  1 active torsions:
REMARK  status: ('A' for Active; 'I' for Inactive)
REMARK    1  A    between atoms: C_2  and  C_3
REMARK                            x       y       z     vdW  Elec       q    Type
REMARK                         _______ _______ _______ _____ _____    ______ ____
ROOT
ATOM      1  C   UNL     1       3.045   4.085  17.660  0.00  0.00    +0.000 C 
ATOM      2  C   UNL     1       4.377   3.939  17.802  0.00  0.00    +0.000 C 
ATOM      3  C   UNL     1       4.750   3.394  19.170  0.00  0.00    +0.000 C 
ATOM      4  C   UNL     1       3.399   3.264  19.806  0.00  0.00    +0.000 A 
ATOM      5  C   UNL     1       3.069   2.817  21.074  0.00  0.00    +0.000 A 
ATOM      6  C   UNL     1       1.716   2.784  21.425  0.00  0.00    +0.000 A 
ATOM      7  C   UNL     1       0.727   3.192  20.515  0.00  0.00    +0.000 A 
ATOM      8  C   UNL     1       1.074   3.641  19.237  0.00  0.00    +0.000 A 
ATOM      9  C   UNL     1       2.414   3.671  18.901  0.00  0.00    +0.000 A 
ENDROOT
BRANCH   2  10
ATOM     10  C   UNL     1       5.377   4.234  16.773  0.00  0.00    +0.000 A 
ATOM     11  C   UNL     1       5.027   4.342  15.423  0.00  0.00    +0.000 A 
ATOM     12  C   UNL     1       5.996   4.636  14.465  0.00  0.00    +0.000 A 
ATOM     13  C   UNL     1       7.301   4.818  14.887  0.00  0.00    +0.000 A 
ATOM     14  N   UNL     1       7.688   4.732  16.175  0.00  0.00    +0.000 NA
ATOM     15  C   UNL     1       6.720   4.445  17.083  0.00  0.00    +0.000 A 
ENDBRANCH   2  10
TORSDOF 1
ENDMDL
MODEL 4
REMARK VINA RESULT:      -7.2      2.567      6.153
REMARK  Name = 
REMARK  1 active torsions:
REMARK  status: ('A' for Active; 'I' for Inactive)
REMARK    1  A    between atoms: C_2  and  C_3
REMARK                            x       y       z     vdW  Elec       q    Type
REMARK                         _______ _______ _______ _____ _____    ______ ____
ROOT
ATOM      1  C   UNL     1       5.329   4.179  18.650  0.00  0.00    +0.000 C 
ATOM      2  C   UNL     1       4.044   3.801  18.497  0.00  0.00    +0.000 C 
ATOM      3  C   UNL     1       3.640   3.727  17.034  0.00  0.00    +0.000 C 
ATOM      4  C   UNL     1       4.912   4.145  16.362  0.00  0.00    +0.000 A 
ATOM      5  C   UNL     1       5.185   4.280  15.012  0.00  0.00    +0.000 A 
ATOM      6  C   UNL     1       6.472   4.682  14.641  0.00  0.00    +0.000 A 
ATOM      7  C   UNL     1       7.454   4.937  15.612  0.00  0.00    +0.000 A 
ATOM      8  C   UNL     1       7.166   4.797  16.973  0.00  0.00    +0.000 A 
ATOM      9  C   UNL     1       5.891   4.400  17.329  0.00  0.00    +0.000 A 
ENDROOT
BRANCH   2  10
ATOM     10  C   UNL     1       3.122   3.466  19.586  0.00  0.00    +0.000 A 
ATOM     11  C   UNL     1       1.760   3.775  19.510  0.00  0.00    +0.000 A 
ATOM     12  C   UNL     1       0.902   3.434  20.555  0.00  0.00    +0.000 A 
ATOM     13  C   UNL     1       1.434   2.786  21.655  0.00  0.00    +0.000 A 
ATOM     14  N   UNL     1       2.736   2.460  21.773  0.00  0.00    +0.000 NA
ATOM     15  C   UNL     1       3.545   2.806  20.738  0.00  0.00    +0.000 A 
ENDBRANCH   2  10
TORSDOF 1
ENDMDL
MODEL 5
REMARK VINA RESULT:      -7.2      2.557      6.017
REMARK  Name = 
REMARK  1 active torsions:
REMARK  status: ('A' for Active; 'I' for Inactive)
REMARK    1  A    between atoms: C_2  and  C_3
REMARK                            x       y       z     vdW  Elec       q    Type
REMARK                         _______ _______ _______ _____ _____    ______ ____
ROOT
ATOM      1  C   UNL     1       3.767   3.666  17.152  0.00  0.00    +0.000 C 
ATOM      2  C   UNL     1       4.049   3.763  18.466  0.00  0.00    +0.000 C 
ATOM      3  C   UNL     1       5.457   4.276  18.713  0.00  0.00    +0.000 C 
ATOM      4  C   UNL     1       5.952   4.445  17.309  0.00  0.00    +0.000 A 
ATOM      5  C   UNL     1       7.186   4.886  16.863  0.00  0.00    +0.000 A 
ATOM      6  C   UNL     1       7.396   4.962  15.483  0.00  0.00    +0.000 A 
ATOM      7  C   UNL     1       6.381   4.601  14.580  0.00  0.00    +0.000 A 
ATOM      8  C   UNL     1       5.139   4.158  15.044  0.00  0.00    +0.000 A 
ATOM      9  C   UNL     1       4.943   4.086  16.410  0.00  0.00    +0.000 A 
ENDROOT
BRANCH   2  10
ATOM     10  C   UNL     1       3.124   3.447  19.559  0.00  0.00    +0.000 A 
ATOM     11  C   UNL     1       1.764   3.765  19.479  0.00  0.00    +0.000 A 
ATOM     12  C   UNL     1       0.904   3.442  20.527  0.00  0.00    +0.000 A 
ATOM     13  C   UNL     1       1.430   2.803  21.635  0.00  0.00    +0.000 A 
ATOM     14  N   UNL     1       2.730   2.469  21.756  0.00  0.00    +0.000 NA
ATOM     15  C   UNL     1       3.541   2.797  20.718  0.00  0.00    +0.000 A 
ENDBRANCH   2  10
TORSDOF 1
ENDMDL
MODEL 6
REMARK VINA RESULT:      -7.1      1.149      1.180
REMARK  Name = 
REMARK  1 active torsions:
REMARK  status: ('A' for Active; 'I' for Inactive)
REMARK    1  A    between atoms: C_2  and  C_3
REMARK                            x       y       z     vdW  Elec       q    Type
REMARK                         _______ _______ _______ _____ _____    ______ ____
ROOT
ATOM      1  C   UNL     1       4.657   3.352  18.591  0.00  0.00    +0.000 C 
ATOM      2  C   UNL     1       4.457   4.230  17.589  0.00  0.00    +0.000 C 
ATOM      3  C   UNL     1       3.132   4.961  17.726  0.00  0.00    +0.000 C 
ATOM      4  C   UNL     1       2.588   4.341  18.977  0.00  0.00    +0.000 A 
ATOM      5  C   UNL     1       1.393   4.589  19.629  0.00  0.00    +0.000 A 
ATOM      6  C   UNL     1       1.123   3.872  20.799  0.00  0.00    +0.000 A 
ATOM      7  C   UNL     1       2.041   2.931  21.293  0.00  0.00    +0.000 A 
ATOM      8  C   UNL     1       3.245   2.690  20.625  0.00  0.00    +0.000 A 
ATOM      9  C   UNL     1       3.502   3.402  19.470  0.00  0.00    +0.000 A 
ENDROOT
BRANCH   2  10
ATOM     10  C   UNL     1       5.393   4.497  16.494  0.00  0.00    +0.000 A 
ATOM     11  C   UNL     1       5.271   3.856  15.256  0.00  0.00    +0.000 A 
ATOM     12  C   UNL     1       6.168   4.137  14.227  0.00  0.00    +0.000 A 
ATOM     13  C   UNL     1       7.169   5.062  14.463  0.00  0.00    +0.000 A 
ATOM     14  N   UNL     1       7.324   5.711  15.635  0.00  0.00    +0.000 NA
ATOM     15  C   UNL     1       6.435   5.415  16.616  0.00  0.00    +0.000 A 
ENDBRANCH   2  10
TORSDOF 1
ENDMDL
MODEL 7
REMARK VINA RESULT:      -7.1      0.797      1.763
REMARK  Name = 
REMARK  1 active torsions:
REMARK  status: ('A' for Active; 'I' for Inactive)
REMARK    1  A    between atoms: C_2  and  C_3
REMARK                            x       y       z     vdW  Elec       q    Type
REMARK                         _______ _______ _______ _____ _____    ______ ____
ROOT
ATOM      1  C   UNL     1       4.182   6.076  17.772  0.00  0.00    +0.000 C 
ATOM      2  C   UNL     1       4.506   4.946  17.114  0.00  0.00    +0.000 C 
ATOM      3  C   UNL     1       3.738   3.742  17.632  0.00  0.00    +0.000 C 
ATOM      4  C   UNL     1       2.920   4.368  18.720  0.00  0.00    +0.000 A 
ATOM      5  C   UNL     1       2.007   3.780  19.578  0.00  0.00    +0.000 A 
ATOM      6  C   UNL     1       1.364   4.597  20.512  0.00  0.00    +0.000 A 
ATOM      7  C   UNL     1       1.638   5.974  20.572  0.00  0.00    +0.000 A 
ATOM      8  C   UNL     1       2.563   6.556  19.700  0.00  0.00    +0.000 A 
ATOM      9  C   UNL     1       3.194   5.739  18.782  0.00  0.00    +0.000 A 
ENDROOT
BRANCH   2  10
ATOM     10  C   UNL     1       5.461   4.852  16.006  0.00  0.00    +0.000 A 
ATOM     11  C   UNL     1       5.167   4.125  14.848  0.00  0.00    +0.000 A 
ATOM     12  C   UNL     1       6.088   4.062  13.803  0.00  0.00    +0.000 A 
ATOM     13  C   UNL     1       7.287   4.736  13.945  0.00  0.00    +0.000 A 
ATOM     14  N   UNL     1       7.615   5.456  15.037  0.00  0.00    +0.000 NA
ATOM     15  C   UNL     1       6.696   5.497  16.036  0.00  0.00    +0.000 A 
ENDBRANCH   2  10
TORSDOF 1
ENDMDL
MODEL 8
REMARK VINA RESULT:      -7.0      2.028      2.575
REMARK  Name = 
REMARK  1 active torsions:
REMARK  status: ('A' for Active; 'I' for Inactive)
REMARK    1  A    between atoms: C_2  and  C_3
REMARK                            x       y       z     vdW  Elec       q    Type
REMARK                         _______ _______ _______ _____ _____    ______ ____
ROOT
ATOM      1  C   UNL     1       3.953   4.046  17.817  0.00  0.00    +0.000 C 
ATOM      2  C   UNL     1       4.406   5.086  18.544  0.00  0.00    +0.000 C 
ATOM      3  C   UNL     1       3.525   5.367  19.750  0.00  0.00    +0.000 C 
ATOM      4  C   UNL     1       2.468   4.317  19.586  0.00  0.00    +0.000 A 
ATOM      5  C   UNL     1       1.364   4.056  20.378  0.00  0.00    +0.000 A 
ATOM      6  C   UNL     1       0.527   2.999  20.007  0.00  0.00    +0.000 A 
ATOM      7  C   UNL     1       0.803   2.230  18.864  0.00  0.00    +0.000 A 
ATOM      8  C   UNL     1       1.922   2.504  18.073  0.00  0.00    +0.000 A 
ATOM      9  C   UNL     1       2.742   3.551  18.448  0.00  0.00    +0.000 A 
ENDROOT
BRANCH   2  10
ATOM     10  C   UNL     1       5.616   5.861  18.256  0.00  0.00    +0.000 A 
ATOM     11  C   UNL     1       6.785   5.696  19.006  0.00  0.00    +0.000 A 
ATOM     12  C   UNL     1       7.926   6.438  18.703  0.00  0.00    +0.000 A 
ATOM     13  C   UNL     1       7.867   7.329  17.648  0.00  0.00    +0.000 A 
ATOM     14  N   UNL     1       6.768   7.519  16.890  0.00  0.00    +0.000 NA
ATOM     15  C   UNL     1       5.675   6.782  17.211  0.00  0.00    +0.000 A 
ENDBRANCH   2  10
TORSDOF 1
ENDMDL
MODEL 9
REMARK VINA RESULT:      -7.0      2.003      2.924
REMARK  Name = 
REMARK  1 active torsions:
REMARK  status: ('A' for Active; 'I' for Inactive)
REMARK    1  A    between atoms: C_2  and  C_3
REMARK                            x       y       z     vdW  Elec       q    Type
REMARK                         _______ _______ _______ _____ _____    ______ ____
ROOT
ATOM      1  C   UNL     1       3.715   5.212  19.678  0.00  0.00    +0.000 C 
ATOM      2  C   UNL     1       4.476   5.090  18.573  0.00  0.00    +0.000 C 
ATOM      3  C   UNL     1       3.937   4.037  17.620  0.00  0.00    +0.000 C 
ATOM      4  C   UNL     1       2.734   3.556  18.373  0.00  0.00    +0.000 A 
ATOM      5  C   UNL     1       1.815   2.582  18.023  0.00  0.00    +0.000 A 
ATOM      6  C   UNL     1       0.764   2.324  18.910  0.00  0.00    +0.000 A 
ATOM      7  C   UNL     1       0.651   3.035  20.117  0.00  0.00    +0.000 A 
ATOM      8  C   UNL     1       1.586   4.015  20.458  0.00  0.00    +0.000 A 
ATOM      9  C   UNL     1       2.621   4.262  19.576  0.00  0.00    +0.000 A 
ENDROOT
BRANCH   2  10
ATOM     10  C   UNL     1       5.675   5.880  18.277  0.00  0.00    +0.000 A 
ATOM     11  C   UNL     1       6.850   5.730  19.020  0.00  0.00    +0.000 A 
ATOM     12  C   UNL     1       7.980   6.484  18.709  0.00  0.00    +0.000 A 
ATOM     13  C   UNL     1       7.905   7.374  17.653  0.00  0.00    +0.000 A 
ATOM     14  N   UNL     1       6.799   7.549  16.902  0.00  0.00    +0.000 NA
ATOM     15  C   UNL     1       5.716   6.799  17.230  0.00  0.00    +0.000 A 
ENDBRANCH   2  10
TORSDOF 1
ENDMDL
