MODEL 1
REMARK VINA RESULT:      -6.5      0.000      0.000
REMARK  Name = 
REMARK  2 active torsions:
REMARK  status: ('A' for Active; 'I' for Inactive)
REMARK    1  A    between atoms: C_1  and  N_2
REMARK    2  A    between atoms: C_16  and  C_17
REMARK                            x       y       z     vdW  Elec       q    Type
REMARK                         _______ _______ _______ _____ _____    ______ ____
ROOT
ATOM      1  C   UNL     1       4.428  16.433  23.883  0.00  0.00    +0.000 C 
ATOM      2  N   UNL     1       5.555  16.272  22.949  0.00  0.00    +0.000 NA
ATOM      3  C   UNL     1       5.238  15.295  21.881  0.00  0.00    +0.000 C 
ATOM      4  C   UNL     1       6.369  15.289  20.843  0.00  0.00    +0.000 C 
ATOM      5  N   UNL     1       7.610  14.990  21.533  0.00  0.00    +0.000 N 
ATOM      6  C   UNL     1       8.555  14.058  21.000  0.00  0.00    +0.000 C 
ATOM      7  N   UNL     1       9.041  14.365  19.846  0.00  0.00    +0.000 NA
ATOM      8  C   UNL     1      10.018  13.811  18.977  0.00  0.00    +0.000 A 
ATOM      9  C   UNL     1      10.238  14.550  17.797  0.00  0.00    +0.000 A 
ATOM     10  C   UNL     1      11.176  14.155  16.845  0.00  0.00    +0.000 A 
ATOM     11  C   UNL     1      11.927  13.004  17.055  0.00  0.00    +0.000 A 
ATOM     12  C   UNL     1      11.730  12.256  18.212  0.00  0.00    +0.000 A 
ATOM     13  C   UNL     1      10.789  12.640  19.189  0.00  0.00    +0.000 A 
ATOM     14  C   UNL     1      10.740  11.712  20.361  0.00  0.00    +0.000 C 
ATOM     15  C   UNL     1       9.825  11.906  21.515  0.00  0.00    +0.000 C 
ATOM     16  C   UNL     1       8.924  12.858  21.812  0.00  0.00    +0.000 C 
ATOM     17  C   UNL     1       7.952  15.855  22.649  0.00  0.00    +0.000 C 
ATOM     18  C   UNL     1       6.795  15.878  23.651  0.00  0.00    +0.000 C 
ENDROOT
BRANCH  16  19
ATOM     19  C   UNL     1       8.183  12.572  23.061  0.00  0.00    +0.000 A 
ATOM     20  C   UNL     1       8.779  12.755  24.316  0.00  0.00    +0.000 A 
ATOM     21  C   UNL     1       8.103  12.365  25.476  0.00  0.00    +0.000 A 
ATOM     22  C   UNL     1       6.838  11.774  25.386  0.00  0.00    +0.000 A 
ATOM     23 CL   UNL     1       6.022  11.229  26.841  0.00  0.00    +0.000 Cl
ATOM     24  C   UNL     1       6.236  11.596  24.135  0.00  0.00    +0.000 A 
ATOM     25  C   UNL     1       6.907  11.993  22.976  0.00  0.00    +0.000 A 
ENDBRANCH  16  19
TORSDOF 1
ENDMDL
MODEL 2
REMARK VINA RESULT:      -6.5      9.315     11.752
REMARK  Name = 
REMARK  2 active torsions:
REMARK  status: ('A' for Active; 'I' for Inactive)
REMARK    1  A    between atoms: C_1  and  N_2
REMARK    2  A    between atoms: C_16  and  C_17
REMARK                            x       y       z     vdW  Elec       q    Type
REMARK                         _______ _______ _______ _____ _____    ______ ____
ROOT
ATOM      1  C   UNL     1       4.330   1.199  19.296  0.00  0.00    +0.000 C 
ATOM      2  N   UNL     1       3.835   2.467  19.859  0.00  0.00    +0.000 NA
ATOM      3  C   UNL     1       2.471   2.779  19.372  0.00  0.00    +0.000 C 
ATOM      4  C   UNL     1       1.935   4.012  20.113  0.00  0.00    +0.000 C 
ATOM      5  N   UNL     1       2.872   5.101  19.909  0.00  0.00    +0.000 N 
ATOM      6  C   UNL     1       2.424   6.421  19.587  0.00  0.00    +0.000 C 
ATOM      7  N   UNL     1       1.665   6.977  20.469  0.00  0.00    +0.000 NA
ATOM      8  C   UNL     1       1.053   8.248  20.623  0.00  0.00    +0.000 A 
ATOM      9  C   UNL     1       0.318   8.403  21.816  0.00  0.00    +0.000 A 
ATOM     10  C   UNL     1      -0.331   9.595  22.132  0.00  0.00    +0.000 A 
ATOM     11  C   UNL     1      -0.257  10.672  21.256  0.00  0.00    +0.000 A 
ATOM     12  C   UNL     1       0.462  10.546  20.071  0.00  0.00    +0.000 A 
ATOM     13  C   UNL     1       1.129   9.350  19.734  0.00  0.00    +0.000 A 
ATOM     14  C   UNL     1       1.853   9.424  18.428  0.00  0.00    +0.000 C 
ATOM     15  C   UNL     1       2.626   8.289  17.860  0.00  0.00    +0.000 C 
ATOM     16  C   UNL     1       2.886   7.050  18.311  0.00  0.00    +0.000 C 
ATOM     17  C   UNL     1       4.251   4.844  20.286  0.00  0.00    +0.000 C 
ATOM     18  C   UNL     1       4.751   3.589  19.567  0.00  0.00    +0.000 C 
ENDROOT
BRANCH  16  19
ATOM     19  C   UNL     1       3.648   6.237  17.337  0.00  0.00    +0.000 A 
ATOM     20  C   UNL     1       3.221   4.951  16.976  0.00  0.00    +0.000 A 
ATOM     21  C   UNL     1       4.020   4.156  16.148  0.00  0.00    +0.000 A 
ATOM     22  C   UNL     1       5.254   4.633  15.694  0.00  0.00    +0.000 A 
ATOM     23 CL   UNL     1       6.280   3.606  14.708  0.00  0.00    +0.000 Cl
ATOM     24  C   UNL     1       5.680   5.919  16.047  0.00  0.00    +0.000 A 
ATOM     25  C   UNL     1       4.879   6.717  16.867  0.00  0.00    +0.000 A 
ENDBRANCH  16  19
TORSDOF 1
ENDMDL
MODEL 3
REMARK VINA RESULT:      -6.4      9.423     11.760
REMARK  Name = 
REMARK  2 active torsions:
REMARK  status: ('A' for Active; 'I' for Inactive)
REMARK    1  A    between atoms: C_1  and  N_2
REMARK    2  A    between atoms: C_16  and  C_17
REMARK                            x       y       z     vdW  Elec       q    Type
REMARK                         _______ _______ _______ _____ _____    ______ ____
ROOT
ATOM      1  C   UNL     1       4.421   1.034  19.259  0.00  0.00    +0.000 C 
ATOM      2  N   UNL     1       3.906   2.313  19.778  0.00  0.00    +0.000 NA
ATOM      3  C   UNL     1       2.596   2.654  19.175  0.00  0.00    +0.000 C 
ATOM      4  C   UNL     1       2.024   3.898  19.868  0.00  0.00    +0.000 C 
ATOM      5  N   UNL     1       2.998   4.967  19.748  0.00  0.00    +0.000 N 
ATOM      6  C   UNL     1       2.608   6.297  19.389  0.00  0.00    +0.000 C 
ATOM      7  N   UNL     1       1.788   6.868  20.203  0.00  0.00    +0.000 NA
ATOM      8  C   UNL     1       1.191   8.152  20.305  0.00  0.00    +0.000 A 
ATOM      9  C   UNL     1       0.359   8.323  21.429  0.00  0.00    +0.000 A 
ATOM     10  C   UNL     1      -0.290   9.529  21.689  0.00  0.00    +0.000 A 
ATOM     11  C   UNL     1      -0.118  10.604  20.824  0.00  0.00    +0.000 A 
ATOM     12  C   UNL     1       0.699  10.462  19.706  0.00  0.00    +0.000 A 
ATOM     13  C   UNL     1       1.367   9.252  19.427  0.00  0.00    +0.000 A 
ATOM     14  C   UNL     1       2.205   9.309  18.190  0.00  0.00    +0.000 C 
ATOM     15  C   UNL     1       3.000   8.159  17.690  0.00  0.00    +0.000 C 
ATOM     16  C   UNL     1       3.193   6.914  18.160  0.00  0.00    +0.000 C 
ATOM     17  C   UNL     1       4.334   4.681  20.243  0.00  0.00    +0.000 C 
ATOM     18  C   UNL     1       4.868   3.415  19.569  0.00  0.00    +0.000 C 
ENDROOT
BRANCH  16  19
ATOM     19  C   UNL     1       4.019   6.084  17.254  0.00  0.00    +0.000 A 
ATOM     20  C   UNL     1       5.225   6.568  16.728  0.00  0.00    +0.000 A 
ATOM     21  C   UNL     1       5.927   5.814  15.782  0.00  0.00    +0.000 A 
ATOM     22  C   UNL     1       5.419   4.586  15.344  0.00  0.00    +0.000 A 
ATOM     23 CL   UNL     1       6.273   3.676  14.110  0.00  0.00    +0.000 Cl
ATOM     24  C   UNL     1       4.218   4.098  15.873  0.00  0.00    +0.000 A 
ATOM     25  C   UNL     1       3.521   4.845  16.824  0.00  0.00    +0.000 A 
ENDBRANCH  16  19
TORSDOF 1
ENDMDL
MODEL 4
REMARK VINA RESULT:      -6.3      0.417      1.051
REMARK  Name = 
REMARK  2 active torsions:
REMARK  status: ('A' for Active; 'I' for Inactive)
REMARK    1  A    between atoms: C_1  and  N_2
REMARK    2  A    between atoms: C_16  and  C_17
REMARK                            x       y       z     vdW  Elec       q    Type
REMARK                         _______ _______ _______ _____ _____    ______ ____
ROOT
ATOM      1  C   UNL     1       4.809  16.361  24.563  0.00  0.00    +0.000 C 
ATOM      2  N   UNL     1       5.874  16.197  23.559  0.00  0.00    +0.000 NA
ATOM      3  C   UNL     1       5.408  15.399  22.401  0.00  0.00    +0.000 C 
ATOM      4  C   UNL     1       6.490  15.399  21.313  0.00  0.00    +0.000 C 
ATOM      5  N   UNL     1       7.715  14.886  21.897  0.00  0.00    +0.000 N 
ATOM      6  C   UNL     1       8.529  13.930  21.209  0.00  0.00    +0.000 C 
ATOM      7  N   UNL     1       9.001  14.324  20.076  0.00  0.00    +0.000 NA
ATOM      8  C   UNL     1       9.876  13.780  19.099  0.00  0.00    +0.000 A 
ATOM      9  C   UNL     1      10.132  14.630  18.004  0.00  0.00    +0.000 A 
ATOM     10  C   UNL     1      10.983  14.258  16.965  0.00  0.00    +0.000 A 
ATOM     11  C   UNL     1      11.607  13.016  16.998  0.00  0.00    +0.000 A 
ATOM     12  C   UNL     1      11.371  12.157  18.068  0.00  0.00    +0.000 A 
ATOM     13  C   UNL     1      10.517  12.516  19.131  0.00  0.00    +0.000 A 
ATOM     14  C   UNL     1      10.409  11.461  20.185  0.00  0.00    +0.000 C 
ATOM     15  C   UNL     1       9.567  11.608  21.400  0.00  0.00    +0.000 C 
ATOM     16  C   UNL     1       8.791  12.607  21.854  0.00  0.00    +0.000 C 
ATOM     17  C   UNL     1       8.195  15.565  23.088  0.00  0.00    +0.000 C 
ATOM     18  C   UNL     1       7.087  15.588  24.144  0.00  0.00    +0.000 C 
ENDROOT
BRANCH  16  19
ATOM     19  C   UNL     1       8.070  12.251  23.097  0.00  0.00    +0.000 A 
ATOM     20  C   UNL     1       6.710  11.915  23.074  0.00  0.00    +0.000 A 
ATOM     21  C   UNL     1       6.023  11.700  24.273  0.00  0.00    +0.000 A 
ATOM     22  C   UNL     1       6.685  11.839  25.497  0.00  0.00    +0.000 A 
ATOM     23 CL   UNL     1       5.801  11.631  26.999  0.00  0.00    +0.000 Cl
ATOM     24  C   UNL     1       8.046  12.168  25.523  0.00  0.00    +0.000 A 
ATOM     25  C   UNL     1       8.735  12.374  24.327  0.00  0.00    +0.000 A 
ENDBRANCH  16  19
TORSDOF 1
ENDMDL
MODEL 5
REMARK VINA RESULT:      -6.0      1.077      1.178
REMARK  Name = 
REMARK  2 active torsions:
REMARK  status: ('A' for Active; 'I' for Inactive)
REMARK    1  A    between atoms: C_1  and  N_2
REMARK    2  A    between atoms: C_16  and  C_17
REMARK                            x       y       z     vdW  Elec       q    Type
REMARK                         _______ _______ _______ _____ _____    ______ ____
ROOT
ATOM      1  C   UNL     1       4.540  16.469  25.300  0.00  0.00    +0.000 C 
ATOM      2  N   UNL     1       5.517  16.220  24.225  0.00  0.00    +0.000 NA
ATOM      3  C   UNL     1       4.936  15.385  23.148  0.00  0.00    +0.000 C 
ATOM      4  C   UNL     1       5.928  15.297  21.980  0.00  0.00    +0.000 C 
ATOM      5  N   UNL     1       7.180  14.770  22.493  0.00  0.00    +0.000 N 
ATOM      6  C   UNL     1       7.906  13.755  21.792  0.00  0.00    +0.000 C 
ATOM      7  N   UNL     1       8.299  14.078  20.607  0.00  0.00    +0.000 NA
ATOM      8  C   UNL     1       9.076  13.459  19.593  0.00  0.00    +0.000 A 
ATOM      9  C   UNL     1       9.271  14.248  18.442  0.00  0.00    +0.000 A 
ATOM     10  C   UNL     1      10.025  13.798  17.360  0.00  0.00    +0.000 A 
ATOM     11  C   UNL     1      10.611  12.538  17.405  0.00  0.00    +0.000 A 
ATOM     12  C   UNL     1      10.435  11.738  18.531  0.00  0.00    +0.000 A 
ATOM     13  C   UNL     1       9.679  12.176  19.638  0.00  0.00    +0.000 A 
ATOM     14  C   UNL     1       9.622  11.177  20.749  0.00  0.00    +0.000 C 
ATOM     15  C   UNL     1       8.884  11.410  22.017  0.00  0.00    +0.000 C 
ATOM     16  C   UNL     1       8.177  12.455  22.479  0.00  0.00    +0.000 C 
ATOM     17  C   UNL     1       7.773  15.487  23.608  0.00  0.00    +0.000 C 
ATOM     18  C   UNL     1       6.753  15.598  24.744  0.00  0.00    +0.000 C 
ENDROOT
BRANCH  16  19
ATOM     19  C   UNL     1       7.546  12.183  23.790  0.00  0.00    +0.000 A 
ATOM     20  C   UNL     1       8.263  12.338  24.984  0.00  0.00    +0.000 A 
ATOM     21  C   UNL     1       7.685  11.960  26.201  0.00  0.00    +0.000 A 
ATOM     22  C   UNL     1       6.400  11.409  26.227  0.00  0.00    +0.000 A 
ATOM     23 CL   UNL     1       5.706  10.878  27.749  0.00  0.00    +0.000 Cl
ATOM     24  C   UNL     1       5.679  11.259  25.036  0.00  0.00    +0.000 A 
ATOM     25  C   UNL     1       6.251  11.644  23.822  0.00  0.00    +0.000 A 
ENDBRANCH  16  19
TORSDOF 1
ENDMDL
MODEL 6
REMARK VINA RESULT:      -5.9     10.783     13.047
REMARK  Name = 
REMARK  2 active torsions:
REMARK  status: ('A' for Active; 'I' for Inactive)
REMARK    1  A    between atoms: C_1  and  N_2
REMARK    2  A    between atoms: C_16  and  C_17
REMARK                            x       y       z     vdW  Elec       q    Type
REMARK                         _______ _______ _______ _____ _____    ______ ____
ROOT
ATOM      1  C   UNL     1      -1.847  15.261  24.903  0.00  0.00    +0.000 C 
ATOM      2  N   UNL     1      -1.894  14.272  23.812  0.00  0.00    +0.000 NA
ATOM      3  C   UNL     1      -1.598  14.898  22.502  0.00  0.00    +0.000 C 
ATOM      4  C   UNL     1      -1.491  13.806  21.428  0.00  0.00    +0.000 C 
ATOM      5  N   UNL     1      -2.732  13.053  21.428  0.00  0.00    +0.000 N 
ATOM      6  C   UNL     1      -3.390  12.696  20.209  0.00  0.00    +0.000 C 
ATOM      7  N   UNL     1      -2.706  11.948  19.412  0.00  0.00    +0.000 NA
ATOM      8  C   UNL     1      -2.945  11.307  18.168  0.00  0.00    +0.000 A 
ATOM      9  C   UNL     1      -1.865  10.540  17.688  0.00  0.00    +0.000 A 
ATOM     10  C   UNL     1      -1.940   9.831  16.490  0.00  0.00    +0.000 A 
ATOM     11  C   UNL     1      -3.109   9.870  15.739  0.00  0.00    +0.000 A 
ATOM     12  C   UNL     1      -4.192  10.620  16.190  0.00  0.00    +0.000 A 
ATOM     13  C   UNL     1      -4.138  11.342  17.401  0.00  0.00    +0.000 A 
ATOM     14  C   UNL     1      -5.406  12.070  17.714  0.00  0.00    +0.000 C 
ATOM     15  C   UNL     1      -5.590  12.899  18.932  0.00  0.00    +0.000 C 
ATOM     16  C   UNL     1      -4.789  13.171  19.976  0.00  0.00    +0.000 C 
ATOM     17  C   UNL     1      -3.136  12.475  22.699  0.00  0.00    +0.000 C 
ATOM     18  C   UNL     1      -3.196  13.574  23.763  0.00  0.00    +0.000 C 
ENDROOT
BRANCH  16  19
ATOM     19  C   UNL     1      -5.394  14.134  20.924  0.00  0.00    +0.000 A 
ATOM     20  C   UNL     1      -6.418  13.744  21.797  0.00  0.00    +0.000 A 
ATOM     21  C   UNL     1      -7.056  14.697  22.597  0.00  0.00    +0.000 A 
ATOM     22  C   UNL     1      -6.688  16.044  22.514  0.00  0.00    +0.000 A 
ATOM     23 CL   UNL     1      -7.536  17.244  23.474  0.00  0.00    +0.000 Cl
ATOM     24  C   UNL     1      -5.661  16.436  21.648  0.00  0.00    +0.000 A 
ATOM     25  C   UNL     1      -5.017  15.484  20.855  0.00  0.00    +0.000 A 
ENDBRANCH  16  19
TORSDOF 1
ENDMDL
MODEL 7
REMARK VINA RESULT:      -5.8      9.540     11.914
REMARK  Name = 
REMARK  2 active torsions:
REMARK  status: ('A' for Active; 'I' for Inactive)
REMARK    1  A    between atoms: C_1  and  N_2
REMARK    2  A    between atoms: C_16  and  C_17
REMARK                            x       y       z     vdW  Elec       q    Type
REMARK                         _______ _______ _______ _____ _____    ______ ____
ROOT
ATOM      1  C   UNL     1       0.193  16.785  24.348  0.00  0.00    +0.000 C 
ATOM      2  N   UNL     1      -0.047  15.627  23.471  0.00  0.00    +0.000 NA
ATOM      3  C   UNL     1      -0.236  16.045  22.062  0.00  0.00    +0.000 C 
ATOM      4  C   UNL     1      -0.312  14.801  21.166  0.00  0.00    +0.000 C 
ATOM      5  N   UNL     1      -1.388  13.959  21.656  0.00  0.00    +0.000 N 
ATOM      6  C   UNL     1      -2.326  13.350  20.763  0.00  0.00    +0.000 C 
ATOM      7  N   UNL     1      -1.818  12.538  19.901  0.00  0.00    +0.000 NA
ATOM      8  C   UNL     1      -2.330  11.679  18.893  0.00  0.00    +0.000 A 
ATOM      9  C   UNL     1      -1.351  10.934  18.207  0.00  0.00    +0.000 A 
ATOM     10  C   UNL     1      -1.684  10.030  17.200  0.00  0.00    +0.000 A 
ATOM     11  C   UNL     1      -3.018   9.846  16.854  0.00  0.00    +0.000 A 
ATOM     12  C   UNL     1      -4.006  10.570  17.516  0.00  0.00    +0.000 A 
ATOM     13  C   UNL     1      -3.690  11.486  18.540  0.00  0.00    +0.000 A 
ATOM     14  C   UNL     1      -4.891  12.150  19.133  0.00  0.00    +0.000 C 
ATOM     15  C   UNL     1      -4.812  13.155  20.224  0.00  0.00    +0.000 C 
ATOM     16  C   UNL     1      -3.780  13.663  20.918  0.00  0.00    +0.000 C 
ATOM     17  C   UNL     1      -1.319  13.573  23.055  0.00  0.00    +0.000 C 
ATOM     18  C   UNL     1      -1.203  14.826  23.926  0.00  0.00    +0.000 C 
ENDROOT
BRANCH  16  19
ATOM     19  C   UNL     1      -4.196  14.719  21.869  0.00  0.00    +0.000 A 
ATOM     20  C   UNL     1      -3.890  16.066  21.636  0.00  0.00    +0.000 A 
ATOM     21  C   UNL     1      -4.187  17.029  22.605  0.00  0.00    +0.000 A 
ATOM     22  C   UNL     1      -4.773  16.648  23.817  0.00  0.00    +0.000 A 
ATOM     23 CL   UNL     1      -5.085  17.853  25.055  0.00  0.00    +0.000 Cl
ATOM     24  C   UNL     1      -5.087  15.304  24.051  0.00  0.00    +0.000 A 
ATOM     25  C   UNL     1      -4.798  14.343  23.080  0.00  0.00    +0.000 A 
ENDBRANCH  16  19
TORSDOF 1
ENDMDL
MODEL 8
REMARK VINA RESULT:      -5.8      2.540      3.885
REMARK  Name = 
REMARK  2 active torsions:
REMARK  status: ('A' for Active; 'I' for Inactive)
REMARK    1  A    between atoms: C_1  and  N_2
REMARK    2  A    between atoms: C_16  and  C_17
REMARK                            x       y       z     vdW  Elec       q    Type
REMARK                         _______ _______ _______ _____ _____    ______ ____
ROOT
ATOM      1  C   UNL     1       5.035  12.562  26.935  0.00  0.00    +0.000 C 
ATOM      2  N   UNL     1       5.609  12.373  25.592  0.00  0.00    +0.000 NA
ATOM      3  C   UNL     1       6.993  11.847  25.664  0.00  0.00    +0.000 C 
ATOM      4  C   UNL     1       7.483  11.508  24.250  0.00  0.00    +0.000 C 
ATOM      5  N   UNL     1       7.375  12.706  23.438  0.00  0.00    +0.000 N 
ATOM      6  C   UNL     1       8.427  13.108  22.555  0.00  0.00    +0.000 C 
ATOM      7  N   UNL     1       8.717  12.265  21.624  0.00  0.00    +0.000 NA
ATOM      8  C   UNL     1       9.604  12.244  20.516  0.00  0.00    +0.000 A 
ATOM      9  C   UNL     1       9.539  11.072  19.736  0.00  0.00    +0.000 A 
ATOM     10  C   UNL     1      10.329  10.897  18.601  0.00  0.00    +0.000 A 
ATOM     11  C   UNL     1      11.210  11.901  18.214  0.00  0.00    +0.000 A 
ATOM     12  C   UNL     1      11.295  13.069  18.967  0.00  0.00    +0.000 A 
ATOM     13  C   UNL     1      10.501  13.267  20.116  0.00  0.00    +0.000 A 
ATOM     14  C   UNL     1      10.731  14.590  20.773  0.00  0.00    +0.000 C 
ATOM     15  C   UNL     1      10.015  15.026  22.000  0.00  0.00    +0.000 C 
ATOM     16  C   UNL     1       9.062  14.447  22.750  0.00  0.00    +0.000 C 
ATOM     17  C   UNL     1       6.065  13.331  23.382  0.00  0.00    +0.000 C 
ATOM     18  C   UNL     1       5.578  13.623  24.804  0.00  0.00    +0.000 C 
ENDROOT
BRANCH  16  19
ATOM     19  C   UNL     1       8.712  15.248  23.945  0.00  0.00    +0.000 A 
ATOM     20  C   UNL     1       7.994  16.446  23.829  0.00  0.00    +0.000 A 
ATOM     21  C   UNL     1       7.780  17.245  24.956  0.00  0.00    +0.000 A 
ATOM     22  C   UNL     1       8.297  16.862  26.198  0.00  0.00    +0.000 A 
ATOM     23 CL   UNL     1       8.080  17.901  27.596  0.00  0.00    +0.000 Cl
ATOM     24  C   UNL     1       9.009  15.662  26.318  0.00  0.00    +0.000 A 
ATOM     25  C   UNL     1       9.216  14.859  25.195  0.00  0.00    +0.000 A 
ENDBRANCH  16  19
TORSDOF 1
ENDMDL
MODEL 9
REMARK VINA RESULT:      -5.8      2.966      6.384
REMARK  Name = 
REMARK  2 active torsions:
REMARK  status: ('A' for Active; 'I' for Inactive)
REMARK    1  A    between atoms: C_1  and  N_2
REMARK    2  A    between atoms: C_16  and  C_17
REMARK                            x       y       z     vdW  Elec       q    Type
REMARK                         _______ _______ _______ _____ _____    ______ ____
ROOT
ATOM      1  C   UNL     1       8.667  17.882  18.179  0.00  0.00    +0.000 C 
ATOM      2  N   UNL     1       7.970  17.176  19.267  0.00  0.00    +0.000 NA
ATOM      3  C   UNL     1       8.737  17.241  20.533  0.00  0.00    +0.000 C 
ATOM      4  C   UNL     1       7.896  16.643  21.670  0.00  0.00    +0.000 C 
ATOM      5  N   UNL     1       7.534  15.288  21.296  0.00  0.00    +0.000 N 
ATOM      6  C   UNL     1       7.627  14.205  22.228  0.00  0.00    +0.000 C 
ATOM      7  N   UNL     1       6.893  14.321  23.281  0.00  0.00    +0.000 NA
ATOM      8  C   UNL     1       6.606  13.511  24.411  0.00  0.00    +0.000 A 
ATOM      9  C   UNL     1       5.680  14.072  25.313  0.00  0.00    +0.000 A 
ATOM     10  C   UNL     1       5.275  13.400  26.465  0.00  0.00    +0.000 A 
ATOM     11  C   UNL     1       5.787  12.138  26.743  0.00  0.00    +0.000 A 
ATOM     12  C   UNL     1       6.703  11.561  25.868  0.00  0.00    +0.000 A 
ATOM     13  C   UNL     1       7.124  12.222  24.695  0.00  0.00    +0.000 A 
ATOM     14  C   UNL     1       8.099  11.429  23.886  0.00  0.00    +0.000 C 
ATOM     15  C   UNL     1       8.686  11.916  22.611  0.00  0.00    +0.000 C 
ATOM     16  C   UNL     1       8.510  13.044  21.901  0.00  0.00    +0.000 C 
ATOM     17  C   UNL     1       6.851  15.130  20.024  0.00  0.00    +0.000 C 
ATOM     18  C   UNL     1       7.687  15.769  18.912  0.00  0.00    +0.000 C 
ENDROOT
BRANCH  16  19
ATOM     19  C   UNL     1       9.393  13.116  20.716  0.00  0.00    +0.000 A 
ATOM     20  C   UNL     1      10.483  13.996  20.677  0.00  0.00    +0.000 A 
ATOM     21  C   UNL     1      11.230  14.133  19.503  0.00  0.00    +0.000 A 
ATOM     22  C   UNL     1      10.880  13.408  18.359  0.00  0.00    +0.000 A 
ATOM     23 CL   UNL     1      11.782  13.633  16.870  0.00  0.00    +0.000 Cl
ATOM     24  C   UNL     1       9.796  12.523  18.396  0.00  0.00    +0.000 A 
ATOM     25  C   UNL     1       9.055  12.378  19.570  0.00  0.00    +0.000 A 
ENDBRANCH  16  19
TORSDOF 1
ENDMDL
