MODEL 1
REMARK VINA RESULT:      -8.1      0.000      0.000
REMARK  Name = 
REMARK  5 active torsions:
REMARK  status: ('A' for Active; 'I' for Inactive)
REMARK    1  A    between atoms: C_1  and  C_2
REMARK    2  A    between atoms: C_4  and  C_5
REMARK    3  A    between atoms: C_6  and  S_7
REMARK    4  A    between atoms: S_7  and  N_10
REMARK    5  A    between atoms: C_24  and  C_25
REMARK                            x       y       z     vdW  Elec       q    Type
REMARK                         _______ _______ _______ _____ _____    ______ ____
ROOT
ATOM      1  N   UNL     1       0.230  10.013  19.599  0.00  0.00    +0.000 NA
ATOM      2  C   UNL     1       0.723   9.617  18.253  0.00  0.00    +0.000 C 
ATOM      3  C   UNL     1       2.039   8.837  18.299  0.00  0.00    +0.000 C 
ATOM      4  N   UNL     1       1.999   7.731  19.262  0.00  0.00    +0.000 N 
ATOM      5  C   UNL     1       2.853   6.665  18.990  0.00  0.00    +0.000 C 
ATOM      6  O   UNL     1       3.668   6.742  18.063  0.00  0.00    +0.000 OA
ATOM      7  N   UNL     1       2.706   5.487  19.706  0.00  0.00    +0.000 N 
ATOM      8  C   UNL     1       3.746   4.460  19.567  0.00  0.00    +0.000 C 
ATOM      9  C   UNL     1       3.163   3.060  19.378  0.00  0.00    +0.000 C 
ATOM     10  C   UNL     1       2.166   2.725  20.481  0.00  0.00    +0.000 C 
ATOM     11  C   UNL     1       1.071   3.775  20.514  0.00  0.00    +0.000 C 
ATOM     12  C   UNL     1       1.638   5.179  20.656  0.00  0.00    +0.000 C 
ATOM     13  C   UNL     1       1.675   8.218  20.615  0.00  0.00    +0.000 C 
ATOM     14  C   UNL     1       0.339   8.973  20.646  0.00  0.00    +0.000 C 
ENDROOT
BRANCH   1  15
ATOM     15  S   UNL     1       0.280  11.633  20.034  0.00  0.00    +0.000 S 
ATOM     16  O   UNL     1       0.675  12.330  18.816  0.00  0.00    +0.000 OA
ATOM     17  O   UNL     1       1.043  11.783  21.253  0.00  0.00    +0.000 OA
BRANCH  15  23
ATOM     18  C   UNL     1      -5.551  13.069  21.274  0.00  0.00    +0.000 C 
ATOM     19  C   UNL     1      -4.131  12.704  20.958  0.00  0.00    +0.000 A 
ATOM     20  C   UNL     1      -3.707  12.480  19.651  0.00  0.00    +0.000 A 
ATOM     21  C   UNL     1      -2.378  12.110  19.365  0.00  0.00    +0.000 A 
ATOM     22  C   UNL     1      -2.039  11.882  17.913  0.00  0.00    +0.000 C 
ATOM     23  C   UNL     1      -1.446  11.976  20.436  0.00  0.00    +0.000 A 
ATOM     24  C   UNL     1      -1.884  12.141  21.769  0.00  0.00    +0.000 A 
ATOM     25  C   UNL     1      -1.086  11.896  23.021  0.00  0.00    +0.000 C 
ATOM     26  C   UNL     1      -3.215  12.547  21.997  0.00  0.00    +0.000 A 
ENDBRANCH  15  23
ENDBRANCH   1  15
TORSDOF 2
ENDMDL
MODEL 2
REMARK VINA RESULT:      -7.9      0.270      1.735
REMARK  Name = 
REMARK  5 active torsions:
REMARK  status: ('A' for Active; 'I' for Inactive)
REMARK    1  A    between atoms: C_1  and  C_2
REMARK    2  A    between atoms: C_4  and  C_5
REMARK    3  A    between atoms: C_6  and  S_7
REMARK    4  A    between atoms: S_7  and  N_10
REMARK    5  A    between atoms: C_24  and  C_25
REMARK                            x       y       z     vdW  Elec       q    Type
REMARK                         _______ _______ _______ _____ _____    ______ ____
ROOT
ATOM      1  N   UNL     1       0.335  10.021  19.551  0.00  0.00    +0.000 NA
ATOM      2  C   UNL     1       0.837   9.617  18.211  0.00  0.00    +0.000 C 
ATOM      3  C   UNL     1       2.130   8.800  18.272  0.00  0.00    +0.000 C 
ATOM      4  N   UNL     1       2.045   7.693  19.231  0.00  0.00    +0.000 N 
ATOM      5  C   UNL     1       2.873   6.604  18.968  0.00  0.00    +0.000 C 
ATOM      6  O   UNL     1       3.703   6.662  18.052  0.00  0.00    +0.000 OA
ATOM      7  N   UNL     1       2.682   5.428  19.677  0.00  0.00    +0.000 N 
ATOM      8  C   UNL     1       3.696   4.373  19.549  0.00  0.00    +0.000 C 
ATOM      9  C   UNL     1       3.077   2.990  19.346  0.00  0.00    +0.000 C 
ATOM     10  C   UNL     1       2.055   2.680  20.433  0.00  0.00    +0.000 C 
ATOM     11  C   UNL     1       0.989   3.760  20.454  0.00  0.00    +0.000 C 
ATOM     12  C   UNL     1       1.593   5.147  20.610  0.00  0.00    +0.000 C 
ATOM     13  C   UNL     1       1.715   8.184  20.581  0.00  0.00    +0.000 C 
ATOM     14  C   UNL     1       0.400   8.975  20.595  0.00  0.00    +0.000 C 
ENDROOT
BRANCH   1  15
ATOM     15  S   UNL     1       0.424  11.639  19.992  0.00  0.00    +0.000 S 
ATOM     16  O   UNL     1       0.983  12.309  18.825  0.00  0.00    +0.000 OA
ATOM     17  O   UNL     1       1.059  11.751  21.286  0.00  0.00    +0.000 OA
BRANCH  15  23
ATOM     18  C   UNL     1      -5.515  12.866  20.898  0.00  0.00    +0.000 C 
ATOM     19  C   UNL     1      -4.057  12.582  20.687  0.00  0.00    +0.000 A 
ATOM     20  C   UNL     1      -3.132  12.703  21.720  0.00  0.00    +0.000 A 
ATOM     21  C   UNL     1      -1.760  12.462  21.506  0.00  0.00    +0.000 A 
ATOM     22  C   UNL     1      -0.851  12.636  22.697  0.00  0.00    +0.000 C 
ATOM     23  C   UNL     1      -1.314  12.073  20.209  0.00  0.00    +0.000 A 
ATOM     24  C   UNL     1      -2.239  12.008  19.142  0.00  0.00    +0.000 A 
ATOM     25  C   UNL     1      -1.930  11.762  17.690  0.00  0.00    +0.000 C 
ATOM     26  C   UNL     1      -3.604  12.223  19.419  0.00  0.00    +0.000 A 
ENDBRANCH  15  23
ENDBRANCH   1  15
TORSDOF 2
ENDMDL
MODEL 3
REMARK VINA RESULT:      -7.7      3.477      9.196
REMARK  Name = 
REMARK  5 active torsions:
REMARK  status: ('A' for Active; 'I' for Inactive)
REMARK    1  A    between atoms: C_1  and  C_2
REMARK    2  A    between atoms: C_4  and  C_5
REMARK    3  A    between atoms: C_6  and  S_7
REMARK    4  A    between atoms: S_7  and  N_10
REMARK    5  A    between atoms: C_24  and  C_25
REMARK                            x       y       z     vdW  Elec       q    Type
REMARK                         _______ _______ _______ _____ _____    ______ ____
ROOT
ATOM      1  N   UNL     1       3.337   5.350  18.896  0.00  0.00    +0.000 NA
ATOM      2  C   UNL     1       2.403   5.197  20.042  0.00  0.00    +0.000 C 
ATOM      3  C   UNL     1       2.172   6.500  20.812  0.00  0.00    +0.000 C 
ATOM      4  N   UNL     1       1.840   7.620  19.923  0.00  0.00    +0.000 N 
ATOM      5  C   UNL     1       1.084   8.639  20.498  0.00  0.00    +0.000 C 
ATOM      6  O   UNL     1       0.840   8.625  21.711  0.00  0.00    +0.000 OA
ATOM      7  N   UNL     1       0.527   9.607  19.676  0.00  0.00    +0.000 N 
ATOM      8  C   UNL     1      -0.074  10.787  20.309  0.00  0.00    +0.000 C 
ATOM      9  C   UNL     1      -1.431  11.147  19.704  0.00  0.00    +0.000 C 
ATOM     10  C   UNL     1      -1.338  11.289  18.190  0.00  0.00    +0.000 C 
ATOM     11  C   UNL     1      -0.794  10.006  17.590  0.00  0.00    +0.000 C 
ATOM     12  C   UNL     1       0.536   9.611  18.214  0.00  0.00    +0.000 C 
ATOM     13  C   UNL     1       2.896   7.830  18.917  0.00  0.00    +0.000 C 
ATOM     14  C   UNL     1       3.145   6.569  18.079  0.00  0.00    +0.000 C 
ENDROOT
BRANCH   1  15
ATOM     15  S   UNL     1       4.862   4.655  18.999  0.00  0.00    +0.000 S 
ATOM     16  O   UNL     1       4.619   3.306  19.492  0.00  0.00    +0.000 OA
ATOM     17  O   UNL     1       5.754   5.551  19.700  0.00  0.00    +0.000 OA
BRANCH  15  23
ATOM     18  C   UNL     1       6.708   4.249  13.166  0.00  0.00    +0.000 C 
ATOM     19  C   UNL     1       6.238   4.351  14.586  0.00  0.00    +0.000 A 
ATOM     20  C   UNL     1       5.077   3.716  15.020  0.00  0.00    +0.000 A 
ATOM     21  C   UNL     1       4.627   3.840  16.350  0.00  0.00    +0.000 A 
ATOM     22  C   UNL     1       3.351   3.116  16.700  0.00  0.00    +0.000 C 
ATOM     23  C   UNL     1       5.384   4.621  17.272  0.00  0.00    +0.000 A 
ATOM     24  C   UNL     1       6.528   5.318  16.823  0.00  0.00    +0.000 A 
ATOM     25  C   UNL     1       7.357   6.298  17.608  0.00  0.00    +0.000 C 
ATOM     26  C   UNL     1       6.955   5.130  15.492  0.00  0.00    +0.000 A 
ENDBRANCH  15  23
ENDBRANCH   1  15
TORSDOF 2
ENDMDL
MODEL 4
REMARK VINA RESULT:      -7.5      3.391      9.283
REMARK  Name = 
REMARK  5 active torsions:
REMARK  status: ('A' for Active; 'I' for Inactive)
REMARK    1  A    between atoms: C_1  and  C_2
REMARK    2  A    between atoms: C_4  and  C_5
REMARK    3  A    between atoms: C_6  and  S_7
REMARK    4  A    between atoms: S_7  and  N_10
REMARK    5  A    between atoms: C_24  and  C_25
REMARK                            x       y       z     vdW  Elec       q    Type
REMARK                         _______ _______ _______ _____ _____    ______ ____
ROOT
ATOM      1  N   UNL     1       3.275   5.274  19.041  0.00  0.00    +0.000 NA
ATOM      2  C   UNL     1       2.279   5.116  20.133  0.00  0.00    +0.000 C 
ATOM      3  C   UNL     1       2.049   6.402  20.931  0.00  0.00    +0.000 C 
ATOM      4  N   UNL     1       1.799   7.558  20.064  0.00  0.00    +0.000 N 
ATOM      5  C   UNL     1       1.046   8.584  20.633  0.00  0.00    +0.000 C 
ATOM      6  O   UNL     1       0.740   8.540  21.831  0.00  0.00    +0.000 OA
ATOM      7  N   UNL     1       0.561   9.594  19.815  0.00  0.00    +0.000 N 
ATOM      8  C   UNL     1      -0.034  10.773  20.455  0.00  0.00    +0.000 C 
ATOM      9  C   UNL     1      -1.347  11.196  19.796  0.00  0.00    +0.000 C 
ATOM     10  C   UNL     1      -1.173  11.381  18.293  0.00  0.00    +0.000 C 
ATOM     11  C   UNL     1      -0.639  10.099  17.680  0.00  0.00    +0.000 C 
ATOM     12  C   UNL     1       0.645   9.642  18.357  0.00  0.00    +0.000 C 
ATOM     13  C   UNL     1       2.910   7.764  19.119  0.00  0.00    +0.000 C 
ATOM     14  C   UNL     1       3.162   6.522  18.254  0.00  0.00    +0.000 C 
ENDROOT
BRANCH   1  15
ATOM     15  S   UNL     1       4.770   4.527  19.197  0.00  0.00    +0.000 S 
ATOM     16  O   UNL     1       4.478   3.247  19.830  0.00  0.00    +0.000 OA
ATOM     17  O   UNL     1       5.711   5.450  19.790  0.00  0.00    +0.000 OA
BRANCH  15  23
ATOM     18  C   UNL     1       6.455   4.027  13.322  0.00  0.00    +0.000 C 
ATOM     19  C   UNL     1       6.060   4.141  14.765  0.00  0.00    +0.000 A 
ATOM     20  C   UNL     1       6.957   4.577  15.736  0.00  0.00    +0.000 A 
ATOM     21  C   UNL     1       6.586   4.655  17.094  0.00  0.00    +0.000 A 
ATOM     22  C   UNL     1       7.646   5.130  18.056  0.00  0.00    +0.000 C 
ATOM     23  C   UNL     1       5.262   4.291  17.476  0.00  0.00    +0.000 A 
ATOM     24  C   UNL     1       4.366   3.789  16.505  0.00  0.00    +0.000 A 
ATOM     25  C   UNL     1       2.993   3.223  16.746  0.00  0.00    +0.000 C 
ATOM     26  C   UNL     1       4.776   3.767  15.156  0.00  0.00    +0.000 A 
ENDBRANCH  15  23
ENDBRANCH   1  15
TORSDOF 2
ENDMDL
MODEL 5
REMARK VINA RESULT:      -6.8      3.610      9.189
REMARK  Name = 
REMARK  5 active torsions:
REMARK  status: ('A' for Active; 'I' for Inactive)
REMARK    1  A    between atoms: C_1  and  C_2
REMARK    2  A    between atoms: C_4  and  C_5
REMARK    3  A    between atoms: C_6  and  S_7
REMARK    4  A    between atoms: S_7  and  N_10
REMARK    5  A    between atoms: C_24  and  C_25
REMARK                            x       y       z     vdW  Elec       q    Type
REMARK                         _______ _______ _______ _____ _____    ______ ____
ROOT
ATOM      1  N   UNL     1       4.291   5.516  19.391  0.00  0.00    +0.000 NA
ATOM      2  C   UNL     1       4.720   6.641  18.518  0.00  0.00    +0.000 C 
ATOM      3  C   UNL     1       3.552   7.348  17.826  0.00  0.00    +0.000 C 
ATOM      4  N   UNL     1       2.481   7.703  18.765  0.00  0.00    +0.000 N 
ATOM      5  C   UNL     1       1.694   8.791  18.395  0.00  0.00    +0.000 C 
ATOM      6  O   UNL     1       1.838   9.314  17.283  0.00  0.00    +0.000 OA
ATOM      7  N   UNL     1       0.826   9.339  19.328  0.00  0.00    +0.000 N 
ATOM      8  C   UNL     1      -0.149  10.333  18.861  0.00  0.00    +0.000 C 
ATOM      9  C   UNL     1      -0.234  11.547  19.787  0.00  0.00    +0.000 C 
ATOM     10  C   UNL     1      -0.486  11.123  21.229  0.00  0.00    +0.000 C 
ATOM     11  C   UNL     1       0.603  10.166  21.677  0.00  0.00    +0.000 C 
ATOM     12  C   UNL     1       0.730   8.975  20.740  0.00  0.00    +0.000 C 
ATOM     13  C   UNL     1       1.979   6.511  19.472  0.00  0.00    +0.000 C 
ATOM     14  C   UNL     1       3.098   5.780  20.226  0.00  0.00    +0.000 C 
ENDROOT
BRANCH   1  15
ATOM     15  S   UNL     1       4.633   3.945  18.910  0.00  0.00    +0.000 S 
ATOM     16  O   UNL     1       3.331   3.301  18.800  0.00  0.00    +0.000 OA
ATOM     17  O   UNL     1       5.663   3.393  19.761  0.00  0.00    +0.000 OA
BRANCH  15  23
ATOM     18  C   UNL     1       7.077   4.497  13.314  0.00  0.00    +0.000 C 
ATOM     19  C   UNL     1       6.463   4.373  14.676  0.00  0.00    +0.000 A 
ATOM     20  C   UNL     1       5.107   4.108  14.847  0.00  0.00    +0.000 A 
ATOM     21  C   UNL     1       4.534   4.021  16.131  0.00  0.00    +0.000 A 
ATOM     22  C   UNL     1       3.053   3.742  16.190  0.00  0.00    +0.000 C 
ATOM     23  C   UNL     1       5.363   4.194  17.278  0.00  0.00    +0.000 A 
ATOM     24  C   UNL     1       6.726   4.523  17.112  0.00  0.00    +0.000 A 
ATOM     25  C   UNL     1       7.709   4.885  18.193  0.00  0.00    +0.000 C 
ATOM     26  C   UNL     1       7.257   4.562  15.806  0.00  0.00    +0.000 A 
ENDBRANCH  15  23
ENDBRANCH   1  15
TORSDOF 2
ENDMDL
MODEL 6
REMARK VINA RESULT:      -6.8      2.482      3.834
REMARK  Name = 
REMARK  5 active torsions:
REMARK  status: ('A' for Active; 'I' for Inactive)
REMARK    1  A    between atoms: C_1  and  C_2
REMARK    2  A    between atoms: C_4  and  C_5
REMARK    3  A    between atoms: C_6  and  S_7
REMARK    4  A    between atoms: S_7  and  N_10
REMARK    5  A    between atoms: C_24  and  C_25
REMARK                            x       y       z     vdW  Elec       q    Type
REMARK                         _______ _______ _______ _____ _____    ______ ____
ROOT
ATOM      1  N   UNL     1       1.165   9.480  19.866  0.00  0.00    +0.000 NA
ATOM      2  C   UNL     1       1.610   8.571  20.954  0.00  0.00    +0.000 C 
ATOM      3  C   UNL     1       1.837   7.132  20.483  0.00  0.00    +0.000 C 
ATOM      4  N   UNL     1       2.671   7.066  19.278  0.00  0.00    +0.000 N 
ATOM      5  C   UNL     1       3.388   5.883  19.108  0.00  0.00    +0.000 C 
ATOM      6  O   UNL     1       3.204   4.929  19.874  0.00  0.00    +0.000 OA
ATOM      7  N   UNL     1       4.376   5.830  18.136  0.00  0.00    +0.000 N 
ATOM      8  C   UNL     1       4.963   4.522  17.819  0.00  0.00    +0.000 C 
ATOM      9  C   UNL     1       6.487   4.576  17.719  0.00  0.00    +0.000 C 
ATOM     10  C   UNL     1       6.937   5.661  16.747  0.00  0.00    +0.000 C 
ATOM     11  C   UNL     1       6.369   6.999  17.180  0.00  0.00    +0.000 C 
ATOM     12  C   UNL     1       4.856   6.950  17.329  0.00  0.00    +0.000 C 
ATOM     13  C   UNL     1       2.080   7.849  18.179  0.00  0.00    +0.000 C 
ATOM     14  C   UNL     1       1.869   9.317  18.574  0.00  0.00    +0.000 C 
ENDROOT
BRANCH   1  15
ATOM     15  S   UNL     1      -0.416  10.045  19.881  0.00  0.00    +0.000 S 
ATOM     16  O   UNL     1      -1.128   9.124  20.757  0.00  0.00    +0.000 OA
ATOM     17  O   UNL     1      -0.861  10.271  18.524  0.00  0.00    +0.000 OA
BRANCH  15  23
ATOM     18  C   UNL     1      -0.109  15.552  22.560  0.00  0.00    +0.000 C 
ATOM     19  C   UNL     1      -0.175  14.197  21.921  0.00  0.00    +0.000 A 
ATOM     20  C   UNL     1      -0.559  13.068  22.639  0.00  0.00    +0.000 A 
ATOM     21  C   UNL     1      -0.591  11.793  22.038  0.00  0.00    +0.000 A 
ATOM     22  C   UNL     1      -1.011  10.643  22.918  0.00  0.00    +0.000 C 
ATOM     23  C   UNL     1      -0.237  11.662  20.663  0.00  0.00    +0.000 A 
ATOM     24  C   UNL     1       0.212  12.793  19.945  0.00  0.00    +0.000 A 
ATOM     25  C   UNL     1       0.762  12.818  18.545  0.00  0.00    +0.000 C 
ATOM     26  C   UNL     1       0.190  14.050  20.584  0.00  0.00    +0.000 A 
ENDBRANCH  15  23
ENDBRANCH   1  15
TORSDOF 2
ENDMDL
MODEL 7
REMARK VINA RESULT:      -6.7      8.707     11.189
REMARK  Name = 
REMARK  5 active torsions:
REMARK  status: ('A' for Active; 'I' for Inactive)
REMARK    1  A    between atoms: C_1  and  C_2
REMARK    2  A    between atoms: C_4  and  C_5
REMARK    3  A    between atoms: C_6  and  S_7
REMARK    4  A    between atoms: S_7  and  N_10
REMARK    5  A    between atoms: C_24  and  C_25
REMARK                            x       y       z     vdW  Elec       q    Type
REMARK                         _______ _______ _______ _____ _____    ______ ____
ROOT
ATOM      1  N   UNL     1       9.499  14.982  20.710  0.00  0.00    +0.000 NA
ATOM      2  C   UNL     1       8.077  15.416  20.740  0.00  0.00    +0.000 C 
ATOM      3  C   UNL     1       7.122  14.321  21.222  0.00  0.00    +0.000 C 
ATOM      4  N   UNL     1       7.576  13.695  22.468  0.00  0.00    +0.000 N 
ATOM      5  C   UNL     1       6.574  13.143  23.263  0.00  0.00    +0.000 C 
ATOM      6  O   UNL     1       5.410  13.090  22.849  0.00  0.00    +0.000 OA
ATOM      7  N   UNL     1       6.882  12.752  24.558  0.00  0.00    +0.000 N 
ATOM      8  C   UNL     1       5.883  11.974  25.300  0.00  0.00    +0.000 C 
ATOM      9  C   UNL     1       5.700  12.474  26.733  0.00  0.00    +0.000 C 
ATOM     10  C   UNL     1       7.035  12.547  27.465  0.00  0.00    +0.000 C 
ATOM     11  C   UNL     1       7.992  13.435  26.692  0.00  0.00    +0.000 C 
ATOM     12  C   UNL     1       8.150  12.975  25.250  0.00  0.00    +0.000 C 
ATOM     13  C   UNL     1       8.928  13.129  22.316  0.00  0.00    +0.000 C 
ATOM     14  C   UNL     1       9.946  14.190  21.877  0.00  0.00    +0.000 C 
ENDROOT
BRANCH   1  15
ATOM     15  S   UNL     1      10.243  14.755  19.222  0.00  0.00    +0.000 S 
ATOM     16  O   UNL     1      11.670  14.831  19.508  0.00  0.00    +0.000 OA
ATOM     17  O   UNL     1       9.636  15.626  18.241  0.00  0.00    +0.000 OA
BRANCH  15  23
ATOM     18  C   UNL     1       8.377   9.042  18.005  0.00  0.00    +0.000 C 
ATOM     19  C   UNL     1       8.829  10.444  18.284  0.00  0.00    +0.000 A 
ATOM     20  C   UNL     1       8.109  11.548  17.835  0.00  0.00    +0.000 A 
ATOM     21  C   UNL     1       8.556  12.862  18.077  0.00  0.00    +0.000 A 
ATOM     22  C   UNL     1       7.698  13.977  17.532  0.00  0.00    +0.000 C 
ATOM     23  C   UNL     1       9.763  13.064  18.809  0.00  0.00    +0.000 A 
ATOM     24  C   UNL     1      10.530  11.950  19.214  0.00  0.00    +0.000 A 
ATOM     25  C   UNL     1      11.890  11.972  19.858  0.00  0.00    +0.000 C 
ATOM     26  C   UNL     1      10.019  10.657  18.978  0.00  0.00    +0.000 A 
ENDBRANCH  15  23
ENDBRANCH   1  15
TORSDOF 2
ENDMDL
MODEL 8
REMARK VINA RESULT:      -6.7      1.514      2.620
REMARK  Name = 
REMARK  5 active torsions:
REMARK  status: ('A' for Active; 'I' for Inactive)
REMARK    1  A    between atoms: C_1  and  C_2
REMARK    2  A    between atoms: C_4  and  C_5
REMARK    3  A    between atoms: C_6  and  S_7
REMARK    4  A    between atoms: S_7  and  N_10
REMARK    5  A    between atoms: C_24  and  C_25
REMARK                            x       y       z     vdW  Elec       q    Type
REMARK                         _______ _______ _______ _____ _____    ______ ____
ROOT
ATOM      1  N   UNL     1      -0.763  11.314  20.373  0.00  0.00    +0.000 NA
ATOM      2  C   UNL     1      -0.794  10.979  18.925  0.00  0.00    +0.000 C 
ATOM      3  C   UNL     1       0.542  10.448  18.399  0.00  0.00    +0.000 C 
ATOM      4  N   UNL     1       1.087   9.378  19.242  0.00  0.00    +0.000 N 
ATOM      5  C   UNL     1       1.931   8.476  18.598  0.00  0.00    +0.000 C 
ATOM      6  O   UNL     1       2.274   8.674  17.426  0.00  0.00    +0.000 OA
ATOM      7  N   UNL     1       2.292   7.309  19.254  0.00  0.00    +0.000 N 
ATOM      8  C   UNL     1       3.349   6.482  18.658  0.00  0.00    +0.000 C 
ATOM      9  C   UNL     1       2.993   4.996  18.651  0.00  0.00    +0.000 C 
ATOM     10  C   UNL     1       2.602   4.517  20.044  0.00  0.00    +0.000 C 
ATOM     11  C   UNL     1       1.449   5.354  20.565  0.00  0.00    +0.000 C 
ATOM     12  C   UNL     1       1.772   6.840  20.537  0.00  0.00    +0.000 C 
ATOM     13  C   UNL     1       1.259   9.834  20.633  0.00  0.00    +0.000 C 
ATOM     14  C   UNL     1      -0.060  10.338  21.236  0.00  0.00    +0.000 C 
ENDROOT
BRANCH   1  15
ATOM     15  S   UNL     1      -0.824  12.928  20.830  0.00  0.00    +0.000 S 
ATOM     16  O   UNL     1      -0.833  13.667  19.574  0.00  0.00    +0.000 OA
ATOM     17  O   UNL     1       0.185  13.185  21.833  0.00  0.00    +0.000 OA
BRANCH  15  23
ATOM     18  C   UNL     1      -6.199  13.058  23.779  0.00  0.00    +0.000 C 
ATOM     19  C   UNL     1      -4.880  13.044  23.065  0.00  0.00    +0.000 A 
ATOM     20  C   UNL     1      -3.704  13.446  23.693  0.00  0.00    +0.000 A 
ATOM     21  C   UNL     1      -2.473  13.457  23.007  0.00  0.00    +0.000 A 
ATOM     22  C   UNL     1      -1.270  13.924  23.788  0.00  0.00    +0.000 C 
ATOM     23  C   UNL     1      -2.430  13.034  21.646  0.00  0.00    +0.000 A 
ATOM     24  C   UNL     1      -3.629  12.684  20.985  0.00  0.00    +0.000 A 
ATOM     25  C   UNL     1      -3.796  12.359  19.525  0.00  0.00    +0.000 C 
ATOM     26  C   UNL     1      -4.826  12.656  21.728  0.00  0.00    +0.000 A 
ENDBRANCH  15  23
ENDBRANCH   1  15
TORSDOF 2
ENDMDL
MODEL 9
REMARK VINA RESULT:      -6.5      2.393      3.554
REMARK  Name = 
REMARK  5 active torsions:
REMARK  status: ('A' for Active; 'I' for Inactive)
REMARK    1  A    between atoms: C_1  and  C_2
REMARK    2  A    between atoms: C_4  and  C_5
REMARK    3  A    between atoms: C_6  and  S_7
REMARK    4  A    between atoms: S_7  and  N_10
REMARK    5  A    between atoms: C_24  and  C_25
REMARK                            x       y       z     vdW  Elec       q    Type
REMARK                         _______ _______ _______ _____ _____    ______ ____
ROOT
ATOM      1  N   UNL     1       1.152   9.816  19.625  0.00  0.00    +0.000 NA
ATOM      2  C   UNL     1       1.551   8.968  20.779  0.00  0.00    +0.000 C 
ATOM      3  C   UNL     1       1.726   7.492  20.411  0.00  0.00    +0.000 C 
ATOM      4  N   UNL     1       2.567   7.310  19.222  0.00  0.00    +0.000 N 
ATOM      5  C   UNL     1       3.237   6.091  19.141  0.00  0.00    +0.000 C 
ATOM      6  O   UNL     1       3.010   5.201  19.969  0.00  0.00    +0.000 OA
ATOM      7  N   UNL     1       4.231   5.934  18.187  0.00  0.00    +0.000 N 
ATOM      8  C   UNL     1       4.768   4.585  17.967  0.00  0.00    +0.000 C 
ATOM      9  C   UNL     1       6.294   4.572  17.879  0.00  0.00    +0.000 C 
ATOM     10  C   UNL     1       6.794   5.569  16.841  0.00  0.00    +0.000 C 
ATOM     11  C   UNL     1       6.276   6.955  17.174  0.00  0.00    +0.000 C 
ATOM     12  C   UNL     1       4.761   6.975  17.309  0.00  0.00    +0.000 C 
ATOM     13  C   UNL     1       2.016   8.038  18.066  0.00  0.00    +0.000 C 
ATOM     14  C   UNL     1       1.859   9.537  18.356  0.00  0.00    +0.000 C 
ENDROOT
BRANCH   1  15
ATOM     15  S   UNL     1      -0.406  10.442  19.584  0.00  0.00    +0.000 S 
ATOM     16  O   UNL     1      -1.198   9.511  20.379  0.00  0.00    +0.000 OA
ATOM     17  O   UNL     1      -0.768  10.744  18.218  0.00  0.00    +0.000 OA
BRANCH  15  23
ATOM     18  C   UNL     1       0.560  15.743  22.510  0.00  0.00    +0.000 C 
ATOM     19  C   UNL     1       0.316  14.457  21.779  0.00  0.00    +0.000 A 
ATOM     20  C   UNL     1       0.644  14.307  20.434  0.00  0.00    +0.000 A 
ATOM     21  C   UNL     1       0.386  13.103  19.747  0.00  0.00    +0.000 A 
ATOM     22  C   UNL     1       0.773  13.063  18.290  0.00  0.00    +0.000 C 
ATOM     23  C   UNL     1      -0.210  12.014  20.448  0.00  0.00    +0.000 A 
ATOM     24  C   UNL     1      -0.600  12.180  21.796  0.00  0.00    +0.000 A 
ATOM     25  C   UNL     1      -1.368  11.202  22.643  0.00  0.00    +0.000 C 
ATOM     26  C   UNL     1      -0.286  13.391  22.445  0.00  0.00    +0.000 A 
ENDBRANCH  15  23
ENDBRANCH   1  15
TORSDOF 2
ENDMDL
