MODEL 1
REMARK VINA RESULT:      -8.4      0.000      0.000
REMARK  Name = 
REMARK  9 active torsions:
REMARK  status: ('A' for Active; 'I' for Inactive)
REMARK    1  A    between atoms: C_1  and  O_2
REMARK    2  A    between atoms: O_2  and  C_3
REMARK    3  A    between atoms: C_3  and  C_5
REMARK    4  A    between atoms: C_5  and  C_6
REMARK    5  A    between atoms: C_8  and  O_9
REMARK    6  A    between atoms: C_11  and  N_12
REMARK    7  A    between atoms: N_15  and  C_16
REMARK    8  A    between atoms: C_19  and  C_20
REMARK    9  A    between atoms: C_22  and  C_23
REMARK                            x       y       z     vdW  Elec       q    Type
REMARK                         _______ _______ _______ _____ _____    ______ ____
ROOT
ATOM      1  N   UNL     1       5.774   4.605  16.001  0.00  0.00    +0.000 NA
ATOM      2  C   UNL     1       6.518   4.400  17.037  0.00  0.00    +0.000 C 
ATOM      3  N   UNL     1       7.882   4.285  17.058  0.00  0.00    +0.000 N 
ATOM      4  N   UNL     1       6.047   4.253  18.319  0.00  0.00    +0.000 N 
ATOM      5  H   UNL     1       8.233   4.133  16.107  0.00  0.00    +0.000 HD
ATOM      6  H   UNL     1       8.189   3.514  17.639  0.00  0.00    +0.000 HD
ATOM      7  H   UNL     1       6.654   4.628  19.030  0.00  0.00    +0.000 HD
ENDROOT
BRANCH   4   8
ATOM      8  C   UNL     1       4.728   3.957  18.723  0.00  0.00    +0.000 A 
ATOM      9  C   UNL     1       4.360   2.660  19.113  0.00  0.00    +0.000 A 
ATOM     10  C   UNL     1       3.059   2.341  19.507  0.00  0.00    +0.000 A 
ATOM     11  C   UNL     1       2.082   3.326  19.546  0.00  0.00    +0.000 A 
ATOM     12  C   UNL     1       0.677   2.987  19.941  0.00  0.00    +0.000 C 
ATOM     13  C   UNL     1       2.435   4.639  19.214  0.00  0.00    +0.000 A 
ATOM     14  C   UNL     1       3.745   4.970  18.806  0.00  0.00    +0.000 A 
ATOM     15  C   UNL     1       4.046   6.404  18.461  0.00  0.00    +0.000 C 
ENDBRANCH   4   8
BRANCH   1  20
ATOM     16  C   UNL     1       6.189   3.798  12.584  0.00  0.00    +0.000 A 
ATOM     17  C   UNL     1       7.323   4.504  12.237  0.00  0.00    +0.000 A 
ATOM     18  C   UNL     1       7.879   5.263  13.240  0.00  0.00    +0.000 A 
ATOM     19  N   UNL     1       7.392   5.359  14.476  0.00  0.00    +0.000 NA
ATOM     20  C   UNL     1       6.273   4.654  14.709  0.00  0.00    +0.000 A 
ATOM     21  N   UNL     1       5.658   3.864  13.821  0.00  0.00    +0.000 NA
BRANCH  18  22
ATOM     22  O   UNL     1       9.023   5.980  13.035  0.00  0.00    +0.000 OA
ATOM     23  H   UNL     1       9.678   5.713  13.696  0.00  0.00    +0.000 HD
ENDBRANCH  18  22
BRANCH  16  24
ATOM     24  C   UNL     1       5.505   2.885  11.604  0.00  0.00    +0.000 C 
BRANCH  24  25
ATOM     25  C   UNL     1       6.319   1.658  11.287  0.00  0.00    +0.000 C 
ATOM     26  O   UNL     1       7.529   1.641  11.102  0.00  0.00    +0.000 OA
BRANCH  25  28
ATOM     27  C   UNL     1       6.239  -0.687  11.337  0.00  0.00    +0.000 C 
ATOM     28  O   UNL     1       5.523   0.549  11.332  0.00  0.00    +0.000 OA
ENDBRANCH  25  28
ENDBRANCH  24  25
ENDBRANCH  16  24
ENDBRANCH   1  20
TORSDOF 6
ENDMDL
MODEL 2
REMARK VINA RESULT:      -8.1      4.562      6.896
REMARK  Name = 
REMARK  9 active torsions:
REMARK  status: ('A' for Active; 'I' for Inactive)
REMARK    1  A    between atoms: C_1  and  O_2
REMARK    2  A    between atoms: O_2  and  C_3
REMARK    3  A    between atoms: C_3  and  C_5
REMARK    4  A    between atoms: C_5  and  C_6
REMARK    5  A    between atoms: C_8  and  O_9
REMARK    6  A    between atoms: C_11  and  N_12
REMARK    7  A    between atoms: N_15  and  C_16
REMARK    8  A    between atoms: C_19  and  C_20
REMARK    9  A    between atoms: C_22  and  C_23
REMARK                            x       y       z     vdW  Elec       q    Type
REMARK                         _______ _______ _______ _____ _____    ______ ____
ROOT
ATOM      1  N   UNL     1       2.628   6.800  18.892  0.00  0.00    +0.000 NA
ATOM      2  C   UNL     1       2.279   6.725  20.134  0.00  0.00    +0.000 C 
ATOM      3  N   UNL     1       2.424   5.644  20.963  0.00  0.00    +0.000 N 
ATOM      4  N   UNL     1       1.684   7.742  20.840  0.00  0.00    +0.000 N 
ATOM      5  H   UNL     1       2.621   4.805  20.409  0.00  0.00    +0.000 HD
ATOM      6  H   UNL     1       1.591   5.476  21.515  0.00  0.00    +0.000 HD
ATOM      7  H   UNL     1       1.947   7.782  21.812  0.00  0.00    +0.000 HD
ENDROOT
BRANCH   4   8
ATOM      8  C   UNL     1       1.040   8.886  20.325  0.00  0.00    +0.000 A 
ATOM      9  C   UNL     1       1.299   9.343  19.024  0.00  0.00    +0.000 A 
ATOM     10  C   UNL     1       0.681  10.478  18.496  0.00  0.00    +0.000 A 
ATOM     11  C   UNL     1      -0.243  11.185  19.255  0.00  0.00    +0.000 A 
ATOM     12  C   UNL     1      -0.889  12.420  18.706  0.00  0.00    +0.000 C 
ATOM     13  C   UNL     1      -0.560  10.720  20.536  0.00  0.00    +0.000 A 
ATOM     14  C   UNL     1       0.067   9.578  21.082  0.00  0.00    +0.000 A 
ATOM     15  C   UNL     1      -0.324   9.143  22.468  0.00  0.00    +0.000 C 
ENDBRANCH   4   8
BRANCH   1  20
ATOM     16  C   UNL     1       4.667   4.995  16.638  0.00  0.00    +0.000 A 
ATOM     17  C   UNL     1       4.054   3.759  16.592  0.00  0.00    +0.000 A 
ATOM     18  C   UNL     1       2.947   3.615  17.393  0.00  0.00    +0.000 A 
ATOM     19  N   UNL     1       2.461   4.566  18.190  0.00  0.00    +0.000 NA
ATOM     20  C   UNL     1       3.139   5.724  18.184  0.00  0.00    +0.000 A 
ATOM     21  N   UNL     1       4.214   5.987  17.430  0.00  0.00    +0.000 NA
BRANCH  18  22
ATOM     22  O   UNL     1       2.230   2.453  17.411  0.00  0.00    +0.000 OA
ATOM     23  H   UNL     1       2.648   1.823  16.804  0.00  0.00    +0.000 HD
ENDBRANCH  18  22
BRANCH  16  24
ATOM     24  C   UNL     1       5.858   5.311  15.775  0.00  0.00    +0.000 C 
BRANCH  24  25
ATOM     25  C   UNL     1       7.128   5.463  16.569  0.00  0.00    +0.000 C 
ATOM     26  O   UNL     1       7.701   4.558  17.163  0.00  0.00    +0.000 OA
BRANCH  25  28
ATOM     27  C   UNL     1       7.617   7.475  17.672  0.00  0.00    +0.000 C 
ATOM     28  O   UNL     1       7.601   6.737  16.449  0.00  0.00    +0.000 OA
ENDBRANCH  25  28
ENDBRANCH  24  25
ENDBRANCH  16  24
ENDBRANCH   1  20
TORSDOF 6
ENDMDL
MODEL 3
REMARK VINA RESULT:      -7.9      1.382      1.906
REMARK  Name = 
REMARK  9 active torsions:
REMARK  status: ('A' for Active; 'I' for Inactive)
REMARK    1  A    between atoms: C_1  and  O_2
REMARK    2  A    between atoms: O_2  and  C_3
REMARK    3  A    between atoms: C_3  and  C_5
REMARK    4  A    between atoms: C_5  and  C_6
REMARK    5  A    between atoms: C_8  and  O_9
REMARK    6  A    between atoms: C_11  and  N_12
REMARK    7  A    between atoms: N_15  and  C_16
REMARK    8  A    between atoms: C_19  and  C_20
REMARK    9  A    between atoms: C_22  and  C_23
REMARK                            x       y       z     vdW  Elec       q    Type
REMARK                         _______ _______ _______ _____ _____    ______ ____
ROOT
ATOM      1  N   UNL     1       5.581   4.705  15.853  0.00  0.00    +0.000 NA
ATOM      2  C   UNL     1       6.316   4.634  16.914  0.00  0.00    +0.000 C 
ATOM      3  N   UNL     1       7.684   4.599  16.962  0.00  0.00    +0.000 N 
ATOM      4  N   UNL     1       5.830   4.571  18.197  0.00  0.00    +0.000 N 
ATOM      5  H   UNL     1       8.061   4.386  16.033  0.00  0.00    +0.000 HD
ATOM      6  H   UNL     1       8.023   3.899  17.613  0.00  0.00    +0.000 HD
ATOM      7  H   UNL     1       6.403   5.040  18.880  0.00  0.00    +0.000 HD
ENDROOT
BRANCH   4   8
ATOM      8  C   UNL     1       4.523   4.236  18.607  0.00  0.00    +0.000 A 
ATOM      9  C   UNL     1       4.218   2.954  19.091  0.00  0.00    +0.000 A 
ATOM     10  C   UNL     1       2.930   2.597  19.493  0.00  0.00    +0.000 A 
ATOM     11  C   UNL     1       1.901   3.529  19.445  0.00  0.00    +0.000 A 
ATOM     12  C   UNL     1       0.510   3.145  19.848  0.00  0.00    +0.000 C 
ATOM     13  C   UNL     1       2.189   4.829  19.017  0.00  0.00    +0.000 A 
ATOM     14  C   UNL     1       3.487   5.198  18.600  0.00  0.00    +0.000 A 
ATOM     15  C   UNL     1       3.717   6.615  18.149  0.00  0.00    +0.000 C 
ENDBRANCH   4   8
BRANCH   1  20
ATOM     16  C   UNL     1       6.060   3.670  12.507  0.00  0.00    +0.000 A 
ATOM     17  C   UNL     1       7.193   4.364  12.130  0.00  0.00    +0.000 A 
ATOM     18  C   UNL     1       7.725   5.196  13.086  0.00  0.00    +0.000 A 
ATOM     19  N   UNL     1       7.216   5.371  14.305  0.00  0.00    +0.000 NA
ATOM     20  C   UNL     1       6.101   4.671  14.569  0.00  0.00    +0.000 A 
ATOM     21  N   UNL     1       5.508   3.815  13.728  0.00  0.00    +0.000 NA
BRANCH  18  22
ATOM     22  O   UNL     1       8.864   5.910  12.850  0.00  0.00    +0.000 OA
ATOM     23  H   UNL     1       9.229   6.201  13.699  0.00  0.00    +0.000 HD
ENDBRANCH  18  22
BRANCH  16  24
ATOM     24  C   UNL     1       5.401   2.685  11.581  0.00  0.00    +0.000 C 
BRANCH  24  25
ATOM     25  C   UNL     1       4.014   3.107  11.173  0.00  0.00    +0.000 C 
ATOM     26  O   UNL     1       2.975   2.678  11.658  0.00  0.00    +0.000 OA
BRANCH  25  28
ATOM     27  C   UNL     1       2.875   4.336   9.531  0.00  0.00    +0.000 C 
ATOM     28  O   UNL     1       4.088   4.112  10.252  0.00  0.00    +0.000 OA
ENDBRANCH  25  28
ENDBRANCH  24  25
ENDBRANCH  16  24
ENDBRANCH   1  20
TORSDOF 6
ENDMDL
MODEL 4
REMARK VINA RESULT:      -7.8      0.581      1.379
REMARK  Name = 
REMARK  9 active torsions:
REMARK  status: ('A' for Active; 'I' for Inactive)
REMARK    1  A    between atoms: C_1  and  O_2
REMARK    2  A    between atoms: O_2  and  C_3
REMARK    3  A    between atoms: C_3  and  C_5
REMARK    4  A    between atoms: C_5  and  C_6
REMARK    5  A    between atoms: C_8  and  O_9
REMARK    6  A    between atoms: C_11  and  N_12
REMARK    7  A    between atoms: N_15  and  C_16
REMARK    8  A    between atoms: C_19  and  C_20
REMARK    9  A    between atoms: C_22  and  C_23
REMARK                            x       y       z     vdW  Elec       q    Type
REMARK                         _______ _______ _______ _____ _____    ______ ____
ROOT
ATOM      1  N   UNL     1       5.844   4.811  16.151  0.00  0.00    +0.000 NA
ATOM      2  C   UNL     1       6.571   4.458  17.159  0.00  0.00    +0.000 C 
ATOM      3  N   UNL     1       7.896   4.111  17.133  0.00  0.00    +0.000 N 
ATOM      4  N   UNL     1       6.119   4.365  18.453  0.00  0.00    +0.000 N 
ATOM      5  H   UNL     1       8.188   3.923  16.169  0.00  0.00    +0.000 HD
ATOM      6  H   UNL     1       8.082   3.285  17.691  0.00  0.00    +0.000 HD
ATOM      7  H   UNL     1       6.802   4.614  19.150  0.00  0.00    +0.000 HD
ENDROOT
BRANCH   4   8
ATOM      8  C   UNL     1       4.781   4.290  18.894  0.00  0.00    +0.000 A 
ATOM      9  C   UNL     1       4.171   5.367  19.555  0.00  0.00    +0.000 A 
ATOM     10  C   UNL     1       2.852   5.311  20.009  0.00  0.00    +0.000 A 
ATOM     11  C   UNL     1       2.088   4.173  19.792  0.00  0.00    +0.000 A 
ATOM     12  C   UNL     1       0.681   4.095  20.301  0.00  0.00    +0.000 C 
ATOM     13  C   UNL     1       2.654   3.105  19.088  0.00  0.00    +0.000 A 
ATOM     14  C   UNL     1       3.990   3.147  18.633  0.00  0.00    +0.000 A 
ATOM     15  C   UNL     1       4.529   1.957  17.886  0.00  0.00    +0.000 C 
ENDBRANCH   4   8
BRANCH   1  20
ATOM     16  C   UNL     1       6.145   3.874  12.755  0.00  0.00    +0.000 A 
ATOM     17  C   UNL     1       7.283   4.543  12.352  0.00  0.00    +0.000 A 
ATOM     18  C   UNL     1       7.884   5.324  13.310  0.00  0.00    +0.000 A 
ATOM     19  N   UNL     1       7.434   5.474  14.555  0.00  0.00    +0.000 NA
ATOM     20  C   UNL     1       6.307   4.803  14.845  0.00  0.00    +0.000 A 
ATOM     21  N   UNL     1       5.650   3.996  14.003  0.00  0.00    +0.000 NA
BRANCH  18  22
ATOM     22  O   UNL     1       9.036   6.008  13.048  0.00  0.00    +0.000 OA
ATOM     23  H   UNL     1       8.922   6.500  12.221  0.00  0.00    +0.000 HD
ENDBRANCH  18  22
BRANCH  16  24
ATOM     24  C   UNL     1       5.414   2.942  11.828  0.00  0.00    +0.000 C 
BRANCH  24  25
ATOM     25  C   UNL     1       6.275   1.801  11.353  0.00  0.00    +0.000 C 
ATOM     26  O   UNL     1       7.492   1.844  11.215  0.00  0.00    +0.000 OA
BRANCH  25  28
ATOM     27  C   UNL     1       6.225  -0.545  11.367  0.00  0.00    +0.000 C 
ATOM     28  O   UNL     1       5.512   0.681  11.191  0.00  0.00    +0.000 OA
ENDBRANCH  25  28
ENDBRANCH  24  25
ENDBRANCH  16  24
ENDBRANCH   1  20
TORSDOF 6
ENDMDL
MODEL 5
REMARK VINA RESULT:      -7.7      4.404      6.733
REMARK  Name = 
REMARK  9 active torsions:
REMARK  status: ('A' for Active; 'I' for Inactive)
REMARK    1  A    between atoms: C_1  and  O_2
REMARK    2  A    between atoms: O_2  and  C_3
REMARK    3  A    between atoms: C_3  and  C_5
REMARK    4  A    between atoms: C_5  and  C_6
REMARK    5  A    between atoms: C_8  and  O_9
REMARK    6  A    between atoms: C_11  and  N_12
REMARK    7  A    between atoms: N_15  and  C_16
REMARK    8  A    between atoms: C_19  and  C_20
REMARK    9  A    between atoms: C_22  and  C_23
REMARK                            x       y       z     vdW  Elec       q    Type
REMARK                         _______ _______ _______ _____ _____    ______ ____
ROOT
ATOM      1  N   UNL     1       2.716   6.719  19.244  0.00  0.00    +0.000 NA
ATOM      2  C   UNL     1       2.191   6.651  20.422  0.00  0.00    +0.000 C 
ATOM      3  N   UNL     1       2.180   5.562  21.253  0.00  0.00    +0.000 N 
ATOM      4  N   UNL     1       1.535   7.684  21.045  0.00  0.00    +0.000 N 
ATOM      5  H   UNL     1       2.426   4.719  20.726  0.00  0.00    +0.000 HD
ATOM      6  H   UNL     1       1.271   5.420  21.679  0.00  0.00    +0.000 HD
ATOM      7  H   UNL     1       1.657   7.711  22.044  0.00  0.00    +0.000 HD
ENDROOT
BRANCH   4   8
ATOM      8  C   UNL     1       1.009   8.852  20.453  0.00  0.00    +0.000 A 
ATOM      9  C   UNL     1       1.340   9.213  19.138  0.00  0.00    +0.000 A 
ATOM     10  C   UNL     1       0.841  10.369  18.535  0.00  0.00    +0.000 A 
ATOM     11  C   UNL     1      -0.034  11.195  19.229  0.00  0.00    +0.000 A 
ATOM     12  C   UNL     1      -0.552  12.451  18.599  0.00  0.00    +0.000 C 
ATOM     13  C   UNL     1      -0.422  10.829  20.522  0.00  0.00    +0.000 A 
ATOM     14  C   UNL     1       0.084   9.668  21.145  0.00  0.00    +0.000 A 
ATOM     15  C   UNL     1      -0.378   9.344  22.539  0.00  0.00    +0.000 C 
ENDBRANCH   4   8
BRANCH   1  20
ATOM     16  C   UNL     1       5.204   4.671  17.788  0.00  0.00    +0.000 A 
ATOM     17  C   UNL     1       4.465   3.679  17.176  0.00  0.00    +0.000 A 
ATOM     18  C   UNL     1       3.102   3.771  17.333  0.00  0.00    +0.000 A 
ATOM     19  N   UNL     1       2.483   4.724  18.028  0.00  0.00    +0.000 NA
ATOM     20  C   UNL     1       3.289   5.630  18.606  0.00  0.00    +0.000 A 
ATOM     21  N   UNL     1       4.623   5.655  18.504  0.00  0.00    +0.000 NA
BRANCH  18  22
ATOM     22  O   UNL     1       2.259   2.871  16.747  0.00  0.00    +0.000 OA
ATOM     23  H   UNL     1       2.676   2.539  15.938  0.00  0.00    +0.000 HD
ENDBRANCH  18  22
BRANCH  16  24
ATOM     24  C   UNL     1       6.701   4.726  17.657  0.00  0.00    +0.000 C 
BRANCH  24  25
ATOM     25  C   UNL     1       7.153   5.580  16.502  0.00  0.00    +0.000 C 
ATOM     26  O   UNL     1       7.202   6.804  16.505  0.00  0.00    +0.000 OA
BRANCH  25  28
ATOM     27  C   UNL     1       6.741   4.777  14.336  0.00  0.00    +0.000 C 
ATOM     28  O   UNL     1       7.593   4.786  15.483  0.00  0.00    +0.000 OA
ENDBRANCH  25  28
ENDBRANCH  24  25
ENDBRANCH  16  24
ENDBRANCH   1  20
TORSDOF 6
ENDMDL
MODEL 6
REMARK VINA RESULT:      -7.7      5.088      7.202
REMARK  Name = 
REMARK  9 active torsions:
REMARK  status: ('A' for Active; 'I' for Inactive)
REMARK    1  A    between atoms: C_1  and  O_2
REMARK    2  A    between atoms: O_2  and  C_3
REMARK    3  A    between atoms: C_3  and  C_5
REMARK    4  A    between atoms: C_5  and  C_6
REMARK    5  A    between atoms: C_8  and  O_9
REMARK    6  A    between atoms: C_11  and  N_12
REMARK    7  A    between atoms: N_15  and  C_16
REMARK    8  A    between atoms: C_19  and  C_20
REMARK    9  A    between atoms: C_22  and  C_23
REMARK                            x       y       z     vdW  Elec       q    Type
REMARK                         _______ _______ _______ _____ _____    ______ ____
ROOT
ATOM      1  N   UNL     1       2.609   7.107  18.846  0.00  0.00    +0.000 NA
ATOM      2  C   UNL     1       2.269   6.939  20.081  0.00  0.00    +0.000 C 
ATOM      3  N   UNL     1       2.474   5.819  20.843  0.00  0.00    +0.000 N 
ATOM      4  N   UNL     1       1.623   7.878  20.848  0.00  0.00    +0.000 N 
ATOM      5  H   UNL     1       2.713   5.026  20.239  0.00  0.00    +0.000 HD
ATOM      6  H   UNL     1       1.652   5.573  21.383  0.00  0.00    +0.000 HD
ATOM      7  H   UNL     1       1.887   7.873  21.820  0.00  0.00    +0.000 HD
ENDROOT
BRANCH   4   8
ATOM      8  C   UNL     1       0.918   9.015  20.402  0.00  0.00    +0.000 A 
ATOM      9  C   UNL     1       1.009   9.454  19.073  0.00  0.00    +0.000 A 
ATOM     10  C   UNL     1       0.328  10.583  18.612  0.00  0.00    +0.000 A 
ATOM     11  C   UNL     1      -0.492  11.301  19.472  0.00  0.00    +0.000 A 
ATOM     12  C   UNL     1      -1.204  12.529  18.993  0.00  0.00    +0.000 C 
ATOM     13  C   UNL     1      -0.644  10.853  20.789  0.00  0.00    +0.000 A 
ATOM     14  C   UNL     1       0.048   9.719  21.267  0.00  0.00    +0.000 A 
ATOM     15  C   UNL     1      -0.164   9.303  22.698  0.00  0.00    +0.000 C 
ENDBRANCH   4   8
BRANCH   1  20
ATOM     16  C   UNL     1       3.119   3.900  17.448  0.00  0.00    +0.000 A 
ATOM     17  C   UNL     1       4.329   4.038  16.798  0.00  0.00    +0.000 A 
ATOM     18  C   UNL     1       4.901   5.286  16.867  0.00  0.00    +0.000 A 
ATOM     19  N   UNL     1       4.363   6.332  17.492  0.00  0.00    +0.000 NA
ATOM     20  C   UNL     1       3.175   6.105  18.074  0.00  0.00    +0.000 A 
ATOM     21  N   UNL     1       2.535   4.929  18.093  0.00  0.00    +0.000 NA
BRANCH  18  22
ATOM     22  O   UNL     1       6.115   5.541  16.295  0.00  0.00    +0.000 OA
ATOM     23  H   UNL     1       6.357   4.790  15.735  0.00  0.00    +0.000 HD
ENDBRANCH  18  22
BRANCH  16  24
ATOM     24  C   UNL     1       2.405   2.578  17.501  0.00  0.00    +0.000 C 
BRANCH  24  25
ATOM     25  C   UNL     1       1.470   2.468  18.677  0.00  0.00    +0.000 C 
ATOM     26  O   UNL     1       0.247   2.461  18.608  0.00  0.00    +0.000 OA
BRANCH  25  28
ATOM     27  C   UNL     1       1.464   2.566  21.021  0.00  0.00    +0.000 C 
ATOM     28  O   UNL     1       2.187   2.279  19.823  0.00  0.00    +0.000 OA
ENDBRANCH  25  28
ENDBRANCH  24  25
ENDBRANCH  16  24
ENDBRANCH   1  20
TORSDOF 6
ENDMDL
MODEL 7
REMARK VINA RESULT:      -7.5      4.835      7.383
REMARK  Name = 
REMARK  9 active torsions:
REMARK  status: ('A' for Active; 'I' for Inactive)
REMARK    1  A    between atoms: C_1  and  O_2
REMARK    2  A    between atoms: O_2  and  C_3
REMARK    3  A    between atoms: C_3  and  C_5
REMARK    4  A    between atoms: C_5  and  C_6
REMARK    5  A    between atoms: C_8  and  O_9
REMARK    6  A    between atoms: C_11  and  N_12
REMARK    7  A    between atoms: N_15  and  C_16
REMARK    8  A    between atoms: C_19  and  C_20
REMARK    9  A    between atoms: C_22  and  C_23
REMARK                            x       y       z     vdW  Elec       q    Type
REMARK                         _______ _______ _______ _____ _____    ______ ____
ROOT
ATOM      1  N   UNL     1       2.703   6.903  19.302  0.00  0.00    +0.000 NA
ATOM      2  C   UNL     1       2.101   6.763  20.437  0.00  0.00    +0.000 C 
ATOM      3  N   UNL     1       2.059   5.633  21.208  0.00  0.00    +0.000 N 
ATOM      4  N   UNL     1       1.380   7.749  21.064  0.00  0.00    +0.000 N 
ATOM      5  H   UNL     1       2.359   4.823  20.657  0.00  0.00    +0.000 HD
ATOM      6  H   UNL     1       1.126   5.450  21.562  0.00  0.00    +0.000 HD
ATOM      7  H   UNL     1       1.433   7.726  22.070  0.00  0.00    +0.000 HD
ENDROOT
BRANCH   4   8
ATOM      8  C   UNL     1       0.869   8.936  20.498  0.00  0.00    +0.000 A 
ATOM      9  C   UNL     1       1.166   9.297  19.174  0.00  0.00    +0.000 A 
ATOM     10  C   UNL     1       0.680  10.471  18.596  0.00  0.00    +0.000 A 
ATOM     11  C   UNL     1      -0.146  11.317  19.324  0.00  0.00    +0.000 A 
ATOM     12  C   UNL     1      -0.649  12.592  18.720  0.00  0.00    +0.000 C 
ATOM     13  C   UNL     1      -0.501  10.953  20.628  0.00  0.00    +0.000 A 
ATOM     14  C   UNL     1      -0.008   9.773  21.225  0.00  0.00    +0.000 A 
ATOM     15  C   UNL     1      -0.432   9.453  22.633  0.00  0.00    +0.000 C 
ENDBRANCH   4   8
BRANCH   1  20
ATOM     16  C   UNL     1       5.311   5.039  17.811  0.00  0.00    +0.000 A 
ATOM     17  C   UNL     1       4.636   4.004  17.196  0.00  0.00    +0.000 A 
ATOM     18  C   UNL     1       3.272   4.004  17.362  0.00  0.00    +0.000 A 
ATOM     19  N   UNL     1       2.595   4.907  18.070  0.00  0.00    +0.000 NA
ATOM     20  C   UNL     1       3.342   5.860  18.651  0.00  0.00    +0.000 A 
ATOM     21  N   UNL     1       4.671   5.975  18.540  0.00  0.00    +0.000 NA
BRANCH  18  22
ATOM     22  O   UNL     1       2.486   3.055  16.774  0.00  0.00    +0.000 OA
ATOM     23  H   UNL     1       1.831   3.498  16.216  0.00  0.00    +0.000 HD
ENDBRANCH  18  22
BRANCH  16  24
ATOM     24  C   UNL     1       6.801   5.196  17.670  0.00  0.00    +0.000 C 
BRANCH  24  25
ATOM     25  C   UNL     1       7.449   5.738  18.917  0.00  0.00    +0.000 C 
ATOM     26  O   UNL     1       7.419   5.203  20.018  0.00  0.00    +0.000 OA
BRANCH  25  28
ATOM     27  C   UNL     1       7.643   7.607  17.510  0.00  0.00    +0.000 C 
ATOM     28  O   UNL     1       8.159   6.866  18.617  0.00  0.00    +0.000 OA
ENDBRANCH  25  28
ENDBRANCH  24  25
ENDBRANCH  16  24
ENDBRANCH   1  20
TORSDOF 6
ENDMDL
MODEL 8
REMARK VINA RESULT:      -7.5      4.692      7.144
REMARK  Name = 
REMARK  9 active torsions:
REMARK  status: ('A' for Active; 'I' for Inactive)
REMARK    1  A    between atoms: C_1  and  O_2
REMARK    2  A    between atoms: O_2  and  C_3
REMARK    3  A    between atoms: C_3  and  C_5
REMARK    4  A    between atoms: C_5  and  C_6
REMARK    5  A    between atoms: C_8  and  O_9
REMARK    6  A    between atoms: C_11  and  N_12
REMARK    7  A    between atoms: N_15  and  C_16
REMARK    8  A    between atoms: C_19  and  C_20
REMARK    9  A    between atoms: C_22  and  C_23
REMARK                            x       y       z     vdW  Elec       q    Type
REMARK                         _______ _______ _______ _____ _____    ______ ____
ROOT
ATOM      1  N   UNL     1       2.478   6.690  19.396  0.00  0.00    +0.000 NA
ATOM      2  C   UNL     1       2.461   7.647  18.529  0.00  0.00    +0.000 C 
ATOM      3  N   UNL     1       3.233   7.746  17.402  0.00  0.00    +0.000 N 
ATOM      4  N   UNL     1       1.650   8.753  18.602  0.00  0.00    +0.000 N 
ATOM      5  H   UNL     1       4.013   7.083  17.455  0.00  0.00    +0.000 HD
ATOM      6  H   UNL     1       3.613   8.678  17.284  0.00  0.00    +0.000 HD
ATOM      7  H   UNL     1       1.339   9.100  17.710  0.00  0.00    +0.000 HD
ENDROOT
BRANCH   4   8
ATOM      8  C   UNL     1       0.960   9.241  19.732  0.00  0.00    +0.000 A 
ATOM      9  C   UNL     1       1.396   8.949  21.034  0.00  0.00    +0.000 A 
ATOM     10  C   UNL     1       0.723   9.412  22.166  0.00  0.00    +0.000 A 
ATOM     11  C   UNL     1      -0.405  10.210  22.029  0.00  0.00    +0.000 A 
ATOM     12  C   UNL     1      -1.148  10.688  23.238  0.00  0.00    +0.000 C 
ATOM     13  C   UNL     1      -0.829  10.561  20.742  0.00  0.00    +0.000 A 
ATOM     14  C   UNL     1      -0.162  10.090  19.591  0.00  0.00    +0.000 A 
ATOM     15  C   UNL     1      -0.682  10.508  18.242  0.00  0.00    +0.000 C 
ENDBRANCH   4   8
BRANCH   1  20
ATOM     16  C   UNL     1       5.549   4.977  19.033  0.00  0.00    +0.000 A 
ATOM     17  C   UNL     1       5.159   3.654  18.988  0.00  0.00    +0.000 A 
ATOM     18  C   UNL     1       3.809   3.428  19.116  0.00  0.00    +0.000 A 
ATOM     19  N   UNL     1       2.895   4.382  19.287  0.00  0.00    +0.000 NA
ATOM     20  C   UNL     1       3.375   5.635  19.342  0.00  0.00    +0.000 A 
ATOM     21  N   UNL     1       4.662   5.977  19.207  0.00  0.00    +0.000 NA
BRANCH  18  22
ATOM     22  O   UNL     1       3.293   2.166  19.051  0.00  0.00    +0.000 OA
ATOM     23  H   UNL     1       2.335   2.217  19.187  0.00  0.00    +0.000 HD
ENDBRANCH  18  22
BRANCH  16  24
ATOM     24  C   UNL     1       6.989   5.376  18.855  0.00  0.00    +0.000 C 
BRANCH  24  25
ATOM     25  C   UNL     1       7.430   5.330  17.416  0.00  0.00    +0.000 C 
ATOM     26  O   UNL     1       7.851   4.335  16.838  0.00  0.00    +0.000 OA
BRANCH  25  28
ATOM     27  C   UNL     1       7.607   7.663  17.603  0.00  0.00    +0.000 C 
ATOM     28  O   UNL     1       7.201   6.537  16.821  0.00  0.00    +0.000 OA
ENDBRANCH  25  28
ENDBRANCH  24  25
ENDBRANCH  16  24
ENDBRANCH   1  20
TORSDOF 6
ENDMDL
MODEL 9
REMARK VINA RESULT:      -7.5      6.509      9.189
REMARK  Name = 
REMARK  9 active torsions:
REMARK  status: ('A' for Active; 'I' for Inactive)
REMARK    1  A    between atoms: C_1  and  O_2
REMARK    2  A    between atoms: O_2  and  C_3
REMARK    3  A    between atoms: C_3  and  C_5
REMARK    4  A    between atoms: C_5  and  C_6
REMARK    5  A    between atoms: C_8  and  O_9
REMARK    6  A    between atoms: C_11  and  N_12
REMARK    7  A    between atoms: N_15  and  C_16
REMARK    8  A    between atoms: C_19  and  C_20
REMARK    9  A    between atoms: C_22  and  C_23
REMARK                            x       y       z     vdW  Elec       q    Type
REMARK                         _______ _______ _______ _____ _____    ______ ____
ROOT
ATOM      1  N   UNL     1       2.115   8.371  18.176  0.00  0.00    +0.000 NA
ATOM      2  C   UNL     1       2.289   7.553  19.161  0.00  0.00    +0.000 C 
ATOM      3  N   UNL     1       1.948   7.762  20.471  0.00  0.00    +0.000 N 
ATOM      4  N   UNL     1       2.866   6.311  19.052  0.00  0.00    +0.000 N 
ATOM      5  H   UNL     1       1.758   8.758  20.626  0.00  0.00    +0.000 HD
ATOM      6  H   UNL     1       2.684   7.474  21.105  0.00  0.00    +0.000 HD
ATOM      7  H   UNL     1       2.481   5.618  19.674  0.00  0.00    +0.000 HD
ENDROOT
BRANCH   4   8
ATOM      8  C   UNL     1       3.664   5.822  17.997  0.00  0.00    +0.000 A 
ATOM      9  C   UNL     1       4.741   6.568  17.493  0.00  0.00    +0.000 A 
ATOM     10  C   UNL     1       5.538   6.109  16.442  0.00  0.00    +0.000 A 
ATOM     11  C   UNL     1       5.294   4.866  15.874  0.00  0.00    +0.000 A 
ATOM     12  C   UNL     1       6.127   4.379  14.728  0.00  0.00    +0.000 C 
ATOM     13  C   UNL     1       4.260   4.079  16.393  0.00  0.00    +0.000 A 
ATOM     14  C   UNL     1       3.442   4.538  17.449  0.00  0.00    +0.000 A 
ATOM     15  C   UNL     1       2.347   3.635  17.949  0.00  0.00    +0.000 C 
ENDBRANCH   4   8
BRANCH   1  20
ATOM     16  C   UNL     1      -0.241  10.971  18.603  0.00  0.00    +0.000 A 
ATOM     17  C   UNL     1       0.520  12.108  18.421  0.00  0.00    +0.000 A 
ATOM     18  C   UNL     1       1.856  11.895  18.177  0.00  0.00    +0.000 A 
ATOM     19  N   UNL     1       2.434  10.696  18.122  0.00  0.00    +0.000 NA
ATOM     20  C   UNL     1       1.615   9.653  18.336  0.00  0.00    +0.000 A 
ATOM     21  N   UNL     1       0.298   9.737  18.559  0.00  0.00    +0.000 NA
BRANCH  18  22
ATOM     22  O   UNL     1       2.709  12.936  17.944  0.00  0.00    +0.000 OA
ATOM     23  H   UNL     1       2.632  13.568  18.674  0.00  0.00    +0.000 HD
ENDBRANCH  18  22
BRANCH  16  24
ATOM     24  C   UNL     1      -1.727  11.051  18.826  0.00  0.00    +0.000 C 
BRANCH  24  25
ATOM     25  C   UNL     1      -2.518  10.469  17.684  0.00  0.00    +0.000 C 
ATOM     26  O   UNL     1      -3.226   9.472  17.752  0.00  0.00    +0.000 OA
BRANCH  25  28
ATOM     27  C   UNL     1      -2.953  10.712  15.391  0.00  0.00    +0.000 C 
ATOM     28  O   UNL     1      -2.408  11.274  16.586  0.00  0.00    +0.000 OA
ENDBRANCH  25  28
ENDBRANCH  24  25
ENDBRANCH  16  24
ENDBRANCH   1  20
TORSDOF 6
ENDMDL
