MODEL 1
REMARK VINA RESULT:      -6.4      0.000      0.000
REMARK  Name = 
REMARK  12 active torsions:
REMARK  status: ('A' for Active; 'I' for Inactive)
REMARK    1  A    between atoms: C_1  and  N_2
REMARK    2  A    between atoms: N_2  and  C_3
REMARK    3  A    between atoms: N_2  and  C_4
REMARK    4  A    between atoms: C_4  and  C_5
REMARK    5  A    between atoms: C_5  and  N_6
REMARK    6  A    between atoms: N_6  and  C_7
REMARK    7  A    between atoms: C_10  and  N_11
REMARK    8  A    between atoms: N_11  and  C_12
REMARK    9  A    between atoms: C_12  and  C_13
REMARK   10  A    between atoms: C_13  and  N_14
REMARK   11  A    between atoms: N_14  and  C_15
REMARK   12  A    between atoms: N_14  and  C_16
REMARK                            x       y       z     vdW  Elec       q    Type
REMARK                         _______ _______ _______ _____ _____    ______ ____
ROOT
ATOM      1  C   UNL     1       2.525   7.675  18.631  0.00  0.00    +0.000 A 
ATOM      2  C   UNL     1       3.220   8.135  17.493  0.00  0.00    +0.000 A 
ATOM      3  C   UNL     1       4.027   7.318  16.737  0.00  0.00    +0.000 A 
ATOM      4  C   UNL     1       4.268   5.996  17.095  0.00  0.00    +0.000 A 
ATOM      5  C   UNL     1       3.625   5.502  18.264  0.00  0.00    +0.000 A 
ATOM      6  C   UNL     1       2.747   6.331  19.022  0.00  0.00    +0.000 A 
ATOM      7  C   UNL     1       2.035   5.771  20.222  0.00  0.00    +0.000 C 
ATOM      8  O   UNL     1       1.244   6.428  20.883  0.00  0.00    +0.000 OA
ATOM      9  C   UNL     1       2.298   4.393  20.582  0.00  0.00    +0.000 A 
ATOM     10  C   UNL     1       1.724   3.641  21.653  0.00  0.00    +0.000 A 
ATOM     11  C   UNL     1       2.190   2.346  21.691  0.00  0.00    +0.000 A 
ATOM     12  S   UNL     1       3.312   2.037  20.437  0.00  0.00    +0.000 S 
ATOM     13  C   UNL     1       3.176   3.630  19.852  0.00  0.00    +0.000 A 
ATOM     14  C   UNL     1       3.920   4.092  18.705  0.00  0.00    +0.000 C 
ATOM     15  O   UNL     1       4.761   3.414  18.126  0.00  0.00    +0.000 OA
ENDROOT
BRANCH   1  16
ATOM     16  N   UNL     1       1.702   8.563  19.337  0.00  0.00    +0.000 N 
ATOM     17  H   UNL     1       1.073   8.056  19.968  0.00  0.00    +0.000 HD
BRANCH  16  18
ATOM     18  C   UNL     1       1.055   9.641  18.594  0.00  0.00    +0.000 C 
BRANCH  18  19
ATOM     19  C   UNL     1       1.023  10.956  19.382  0.00  0.00    +0.000 C 
BRANCH  19  21
ATOM     20  C   UNL     1      -1.338  10.768  18.988  0.00  0.00    +0.000 C 
ATOM     21  N   UNL     1      -0.320  11.311  19.892  0.00  0.00    +0.000 NA
ATOM     22  C   UNL     1      -0.554  10.802  21.247  0.00  0.00    +0.000 C 
ENDBRANCH  19  21
ENDBRANCH  18  19
ENDBRANCH  16  18
ENDBRANCH   1  16
BRANCH   4  23
ATOM     23  N   UNL     1       5.019   5.169  16.252  0.00  0.00    +0.000 N 
ATOM     24  H   UNL     1       4.833   4.170  16.402  0.00  0.00    +0.000 HD
BRANCH  23  25
ATOM     25  C   UNL     1       6.414   5.494  15.950  0.00  0.00    +0.000 C 
BRANCH  25  26
ATOM     26  C   UNL     1       7.385   4.906  16.996  0.00  0.00    +0.000 C 
BRANCH  26  27
ATOM     27  N   UNL     1       7.875   5.910  17.967  0.00  0.00    +0.000 NA
ATOM     28  C   UNL     1       7.596   7.283  17.537  0.00  0.00    +0.000 C 
ATOM     29  C   UNL     1       7.275   5.674  19.282  0.00  0.00    +0.000 C 
ENDBRANCH  26  27
ENDBRANCH  25  26
ENDBRANCH  23  25
ENDBRANCH   4  23
TORSDOF 8
ENDMDL
MODEL 2
REMARK VINA RESULT:      -6.2      0.558      1.026
REMARK  Name = 
REMARK  12 active torsions:
REMARK  status: ('A' for Active; 'I' for Inactive)
REMARK    1  A    between atoms: C_1  and  N_2
REMARK    2  A    between atoms: N_2  and  C_3
REMARK    3  A    between atoms: N_2  and  C_4
REMARK    4  A    between atoms: C_4  and  C_5
REMARK    5  A    between atoms: C_5  and  N_6
REMARK    6  A    between atoms: N_6  and  C_7
REMARK    7  A    between atoms: C_10  and  N_11
REMARK    8  A    between atoms: N_11  and  C_12
REMARK    9  A    between atoms: C_12  and  C_13
REMARK   10  A    between atoms: C_13  and  N_14
REMARK   11  A    between atoms: N_14  and  C_15
REMARK   12  A    between atoms: N_14  and  C_16
REMARK                            x       y       z     vdW  Elec       q    Type
REMARK                         _______ _______ _______ _____ _____    ______ ____
ROOT
ATOM      1  C   UNL     1       2.546   7.704  18.588  0.00  0.00    +0.000 A 
ATOM      2  C   UNL     1       3.222   8.161  17.438  0.00  0.00    +0.000 A 
ATOM      3  C   UNL     1       4.027   7.346  16.677  0.00  0.00    +0.000 A 
ATOM      4  C   UNL     1       4.285   6.029  17.043  0.00  0.00    +0.000 A 
ATOM      5  C   UNL     1       3.661   5.538  18.224  0.00  0.00    +0.000 A 
ATOM      6  C   UNL     1       2.786   6.364  18.987  0.00  0.00    +0.000 A 
ATOM      7  C   UNL     1       2.094   5.807  20.200  0.00  0.00    +0.000 C 
ATOM      8  O   UNL     1       1.306   6.463  20.866  0.00  0.00    +0.000 OA
ATOM      9  C   UNL     1       2.375   4.435  20.568  0.00  0.00    +0.000 A 
ATOM     10  C   UNL     1       1.822   3.687  21.652  0.00  0.00    +0.000 A 
ATOM     11  C   UNL     1       2.301   2.396  21.694  0.00  0.00    +0.000 A 
ATOM     12  S   UNL     1       3.409   2.087  20.428  0.00  0.00    +0.000 S 
ATOM     13  C   UNL     1       3.250   3.674  19.832  0.00  0.00    +0.000 A 
ATOM     14  C   UNL     1       3.975   4.134  18.672  0.00  0.00    +0.000 C 
ATOM     15  O   UNL     1       4.815   3.459  18.087  0.00  0.00    +0.000 OA
ENDROOT
BRANCH   1  16
ATOM     16  N   UNL     1       1.725   8.590  19.298  0.00  0.00    +0.000 N 
ATOM     17  H   UNL     1       1.203   8.097  20.031  0.00  0.00    +0.000 HD
BRANCH  16  18
ATOM     18  C   UNL     1       0.924   9.545  18.538  0.00  0.00    +0.000 C 
BRANCH  18  19
ATOM     19  C   UNL     1       1.194  10.995  18.954  0.00  0.00    +0.000 C 
BRANCH  19  21
ATOM     20  C   UNL     1       1.317  12.635  20.704  0.00  0.00    +0.000 C 
ATOM     21  N   UNL     1       0.867  11.280  20.369  0.00  0.00    +0.000 NA
ATOM     22  C   UNL     1      -0.569  11.164  20.643  0.00  0.00    +0.000 C 
ENDBRANCH  19  21
ENDBRANCH  18  19
ENDBRANCH  16  18
ENDBRANCH   1  16
BRANCH   4  23
ATOM     23  N   UNL     1       5.032   5.201  16.196  0.00  0.00    +0.000 N 
ATOM     24  H   UNL     1       4.846   4.202  16.346  0.00  0.00    +0.000 HD
BRANCH  23  25
ATOM     25  C   UNL     1       6.426   5.526  15.890  0.00  0.00    +0.000 C 
BRANCH  25  26
ATOM     26  C   UNL     1       7.364   5.236  17.081  0.00  0.00    +0.000 C 
BRANCH  26  27
ATOM     27  N   UNL     1       7.239   6.224  18.176  0.00  0.00    +0.000 NA
ATOM     28  C   UNL     1       7.941   5.800  19.391  0.00  0.00    +0.000 C 
ATOM     29  C   UNL     1       7.748   7.526  17.742  0.00  0.00    +0.000 C 
ENDBRANCH  26  27
ENDBRANCH  25  26
ENDBRANCH  23  25
ENDBRANCH   4  23
TORSDOF 8
ENDMDL
MODEL 3
REMARK VINA RESULT:      -6.1      1.399      2.202
REMARK  Name = 
REMARK  12 active torsions:
REMARK  status: ('A' for Active; 'I' for Inactive)
REMARK    1  A    between atoms: C_1  and  N_2
REMARK    2  A    between atoms: N_2  and  C_3
REMARK    3  A    between atoms: N_2  and  C_4
REMARK    4  A    between atoms: C_4  and  C_5
REMARK    5  A    between atoms: C_5  and  N_6
REMARK    6  A    between atoms: N_6  and  C_7
REMARK    7  A    between atoms: C_10  and  N_11
REMARK    8  A    between atoms: N_11  and  C_12
REMARK    9  A    between atoms: C_12  and  C_13
REMARK   10  A    between atoms: C_13  and  N_14
REMARK   11  A    between atoms: N_14  and  C_15
REMARK   12  A    between atoms: N_14  and  C_16
REMARK                            x       y       z     vdW  Elec       q    Type
REMARK                         _______ _______ _______ _____ _____    ______ ____
ROOT
ATOM      1  C   UNL     1       2.614   7.675  18.567  0.00  0.00    +0.000 A 
ATOM      2  C   UNL     1       3.391   8.198  17.512  0.00  0.00    +0.000 A 
ATOM      3  C   UNL     1       4.366   7.467  16.875  0.00  0.00    +0.000 A 
ATOM      4  C   UNL     1       4.700   6.182  17.288  0.00  0.00    +0.000 A 
ATOM      5  C   UNL     1       3.974   5.630  18.380  0.00  0.00    +0.000 A 
ATOM      6  C   UNL     1       2.928   6.365  19.010  0.00  0.00    +0.000 A 
ATOM      7  C   UNL     1       2.138   5.741  20.127  0.00  0.00    +0.000 C 
ATOM      8  O   UNL     1       1.208   6.314  20.674  0.00  0.00    +0.000 OA
ATOM      9  C   UNL     1       2.500   4.402  20.544  0.00  0.00    +0.000 A 
ATOM     10  C   UNL     1       1.882   3.601  21.553  0.00  0.00    +0.000 A 
ATOM     11  C   UNL     1       2.475   2.364  21.674  0.00  0.00    +0.000 A 
ATOM     12  S   UNL     1       3.767   2.167  20.571  0.00  0.00    +0.000 S 
ATOM     13  C   UNL     1       3.536   3.732  19.940  0.00  0.00    +0.000 A 
ATOM     14  C   UNL     1       4.361   4.263  18.883  0.00  0.00    +0.000 C 
ATOM     15  O   UNL     1       5.333   3.675  18.423  0.00  0.00    +0.000 OA
ENDROOT
BRANCH   1  16
ATOM     16  N   UNL     1       1.623   8.475  19.151  0.00  0.00    +0.000 N 
ATOM     17  H   UNL     1       0.878   7.897  19.554  0.00  0.00    +0.000 HD
BRANCH  16  18
ATOM     18  C   UNL     1       1.138   9.628  18.399  0.00  0.00    +0.000 C 
BRANCH  18  19
ATOM     19  C   UNL     1       0.756  10.801  19.310  0.00  0.00    +0.000 C 
BRANCH  19  21
ATOM     20  C   UNL     1      -1.366  10.389  18.265  0.00  0.00    +0.000 C 
ATOM     21  N   UNL     1      -0.580  11.368  19.021  0.00  0.00    +0.000 NA
ATOM     22  C   UNL     1      -1.306  11.734  20.242  0.00  0.00    +0.000 C 
ENDBRANCH  19  21
ENDBRANCH  18  19
ENDBRANCH  16  18
ENDBRANCH   1  16
BRANCH   4  23
ATOM     23  N   UNL     1       5.631   5.433  16.558  0.00  0.00    +0.000 N 
ATOM     24  H   UNL     1       6.547   5.374  17.019  0.00  0.00    +0.000 HD
BRANCH  23  25
ATOM     25  C   UNL     1       5.684   5.542  15.099  0.00  0.00    +0.000 C 
BRANCH  25  26
ATOM     26  C   UNL     1       5.388   4.194  14.407  0.00  0.00    +0.000 C 
BRANCH  26  27
ATOM     27  N   UNL     1       6.454   3.772  13.471  0.00  0.00    +0.000 NA
ATOM     28  C   UNL     1       5.915   3.261  12.208  0.00  0.00    +0.000 C 
ATOM     29  C   UNL     1       7.361   4.890  13.203  0.00  0.00    +0.000 C 
ENDBRANCH  26  27
ENDBRANCH  25  26
ENDBRANCH  23  25
ENDBRANCH   4  23
TORSDOF 8
ENDMDL
MODEL 4
REMARK VINA RESULT:      -6.1      2.845      6.698
REMARK  Name = 
REMARK  12 active torsions:
REMARK  status: ('A' for Active; 'I' for Inactive)
REMARK    1  A    between atoms: C_1  and  N_2
REMARK    2  A    between atoms: N_2  and  C_3
REMARK    3  A    between atoms: N_2  and  C_4
REMARK    4  A    between atoms: C_4  and  C_5
REMARK    5  A    between atoms: C_5  and  N_6
REMARK    6  A    between atoms: N_6  and  C_7
REMARK    7  A    between atoms: C_10  and  N_11
REMARK    8  A    between atoms: N_11  and  C_12
REMARK    9  A    between atoms: C_12  and  C_13
REMARK   10  A    between atoms: C_13  and  N_14
REMARK   11  A    between atoms: N_14  and  C_15
REMARK   12  A    between atoms: N_14  and  C_16
REMARK                            x       y       z     vdW  Elec       q    Type
REMARK                         _______ _______ _______ _____ _____    ______ ____
ROOT
ATOM      1  C   UNL     1       3.668   6.816  17.753  0.00  0.00    +0.000 A 
ATOM      2  C   UNL     1       4.096   5.566  18.246  0.00  0.00    +0.000 A 
ATOM      3  C   UNL     1       3.607   5.019  19.408  0.00  0.00    +0.000 A 
ATOM      4  C   UNL     1       2.707   5.706  20.215  0.00  0.00    +0.000 A 
ATOM      5  C   UNL     1       2.282   6.993  19.782  0.00  0.00    +0.000 A 
ATOM      6  C   UNL     1       2.748   7.542  18.552  0.00  0.00    +0.000 A 
ATOM      7  C   UNL     1       2.243   8.880  18.087  0.00  0.00    +0.000 C 
ATOM      8  O   UNL     1       2.583   9.377  17.023  0.00  0.00    +0.000 OA
ATOM      9  C   UNL     1       1.308   9.583  18.940  0.00  0.00    +0.000 A 
ATOM     10  C   UNL     1       0.676  10.841  18.699  0.00  0.00    +0.000 A 
ATOM     11  C   UNL     1      -0.175  11.203  19.720  0.00  0.00    +0.000 A 
ATOM     12  S   UNL     1      -0.215  10.027  20.961  0.00  0.00    +0.000 S 
ATOM     13  C   UNL     1       0.904   9.043  20.137  0.00  0.00    +0.000 A 
ATOM     14  C   UNL     1       1.356   7.782  20.671  0.00  0.00    +0.000 C 
ATOM     15  O   UNL     1       1.044   7.367  21.782  0.00  0.00    +0.000 OA
ENDROOT
BRANCH   1  16
ATOM     16  N   UNL     1       4.197   7.297  16.548  0.00  0.00    +0.000 N 
ATOM     17  H   UNL     1       3.450   7.612  15.920  0.00  0.00    +0.000 HD
BRANCH  16  18
ATOM     18  C   UNL     1       5.232   6.507  15.888  0.00  0.00    +0.000 C 
BRANCH  18  19
ATOM     19  C   UNL     1       6.558   6.523  16.657  0.00  0.00    +0.000 C 
BRANCH  19  21
ATOM     20  C   UNL     1       7.636   4.635  17.677  0.00  0.00    +0.000 C 
ATOM     21  N   UNL     1       7.404   5.335  16.410  0.00  0.00    +0.000 NA
ATOM     22  C   UNL     1       6.798   4.409  15.449  0.00  0.00    +0.000 C 
ENDBRANCH  19  21
ENDBRANCH  18  19
ENDBRANCH  16  18
ENDBRANCH   1  16
BRANCH   4  23
ATOM     23  N   UNL     1       2.159   5.081  21.342  0.00  0.00    +0.000 N 
ATOM     24  H   UNL     1       2.206   5.664  22.186  0.00  0.00    +0.000 HD
BRANCH  23  25
ATOM     25  C   UNL     1       2.376   3.652  21.571  0.00  0.00    +0.000 C 
BRANCH  25  26
ATOM     26  C   UNL     1       1.180   2.801  21.091  0.00  0.00    +0.000 C 
BRANCH  26  27
ATOM     27  N   UNL     1       1.457   2.056  19.842  0.00  0.00    +0.000 NA
ATOM     28  C   UNL     1       0.829   2.678  18.673  0.00  0.00    +0.000 C 
ATOM     29  C   UNL     1       2.901   1.951  19.628  0.00  0.00    +0.000 C 
ENDBRANCH  26  27
ENDBRANCH  25  26
ENDBRANCH  23  25
ENDBRANCH   4  23
TORSDOF 8
ENDMDL
MODEL 5
REMARK VINA RESULT:      -6.0      0.730      1.182
REMARK  Name = 
REMARK  12 active torsions:
REMARK  status: ('A' for Active; 'I' for Inactive)
REMARK    1  A    between atoms: C_1  and  N_2
REMARK    2  A    between atoms: N_2  and  C_3
REMARK    3  A    between atoms: N_2  and  C_4
REMARK    4  A    between atoms: C_4  and  C_5
REMARK    5  A    between atoms: C_5  and  N_6
REMARK    6  A    between atoms: N_6  and  C_7
REMARK    7  A    between atoms: C_10  and  N_11
REMARK    8  A    between atoms: N_11  and  C_12
REMARK    9  A    between atoms: C_12  and  C_13
REMARK   10  A    between atoms: C_13  and  N_14
REMARK   11  A    between atoms: N_14  and  C_15
REMARK   12  A    between atoms: N_14  and  C_16
REMARK                            x       y       z     vdW  Elec       q    Type
REMARK                         _______ _______ _______ _____ _____    ______ ____
ROOT
ATOM      1  C   UNL     1       2.245   7.884  18.996  0.00  0.00    +0.000 A 
ATOM      2  C   UNL     1       2.848   8.478  17.868  0.00  0.00    +0.000 A 
ATOM      3  C   UNL     1       3.669   7.781  17.013  0.00  0.00    +0.000 A 
ATOM      4  C   UNL     1       4.017   6.456  17.254  0.00  0.00    +0.000 A 
ATOM      5  C   UNL     1       3.469   5.830  18.408  0.00  0.00    +0.000 A 
ATOM      6  C   UNL     1       2.577   6.533  19.269  0.00  0.00    +0.000 A 
ATOM      7  C   UNL     1       1.967   5.834  20.451  0.00  0.00    +0.000 C 
ATOM      8  O   UNL     1       1.168   6.380  21.198  0.00  0.00    +0.000 OA
ATOM      9  C   UNL     1       2.341   4.455  20.688  0.00  0.00    +0.000 A 
ATOM     10  C   UNL     1       1.875   3.585  21.721  0.00  0.00    +0.000 A 
ATOM     11  C   UNL     1       2.429   2.327  21.634  0.00  0.00    +0.000 A 
ATOM     12  S   UNL     1       3.504   2.195  20.310  0.00  0.00    +0.000 S 
ATOM     13  C   UNL     1       3.231   3.814  19.860  0.00  0.00    +0.000 A 
ATOM     14  C   UNL     1       3.882   4.415  18.721  0.00  0.00    +0.000 C 
ATOM     15  O   UNL     1       4.736   3.845  18.052  0.00  0.00    +0.000 OA
ENDROOT
BRANCH   1  16
ATOM     16  N   UNL     1       1.401   8.655  19.808  0.00  0.00    +0.000 N 
ATOM     17  H   UNL     1       0.801   8.055  20.384  0.00  0.00    +0.000 HD
BRANCH  16  18
ATOM     18  C   UNL     1       0.702   9.783  19.199  0.00  0.00    +0.000 C 
BRANCH  18  19
ATOM     19  C   UNL     1      -0.410  10.335  20.098  0.00  0.00    +0.000 C 
BRANCH  19  21
ATOM     20  C   UNL     1      -0.250  12.145  21.666  0.00  0.00    +0.000 C 
ATOM     21  N   UNL     1       0.054  10.728  21.446  0.00  0.00    +0.000 NA
ATOM     22  C   UNL     1      -0.569   9.928  22.506  0.00  0.00    +0.000 C 
ENDBRANCH  19  21
ENDBRANCH  18  19
ENDBRANCH  16  18
ENDBRANCH   1  16
BRANCH   4  23
ATOM     23  N   UNL     1       4.779   5.751  16.314  0.00  0.00    +0.000 N 
ATOM     24  H   UNL     1       4.572   4.745  16.305  0.00  0.00    +0.000 HD
BRANCH  23  25
ATOM     25  C   UNL     1       6.187   6.091  16.101  0.00  0.00    +0.000 C 
BRANCH  25  26
ATOM     26  C   UNL     1       6.823   6.734  17.353  0.00  0.00    +0.000 C 
BRANCH  26  27
ATOM     27  N   UNL     1       7.724   5.817  18.086  0.00  0.00    +0.000 NA
ATOM     28  C   UNL     1       7.344   5.670  19.493  0.00  0.00    +0.000 C 
ATOM     29  C   UNL     1       7.740   4.503  17.440  0.00  0.00    +0.000 C 
ENDBRANCH  26  27
ENDBRANCH  25  26
ENDBRANCH  23  25
ENDBRANCH   4  23
TORSDOF 8
ENDMDL
MODEL 6
REMARK VINA RESULT:      -6.0      2.102      2.955
REMARK  Name = 
REMARK  12 active torsions:
REMARK  status: ('A' for Active; 'I' for Inactive)
REMARK    1  A    between atoms: C_1  and  N_2
REMARK    2  A    between atoms: N_2  and  C_3
REMARK    3  A    between atoms: N_2  and  C_4
REMARK    4  A    between atoms: C_4  and  C_5
REMARK    5  A    between atoms: C_5  and  N_6
REMARK    6  A    between atoms: N_6  and  C_7
REMARK    7  A    between atoms: C_10  and  N_11
REMARK    8  A    between atoms: N_11  and  C_12
REMARK    9  A    between atoms: C_12  and  C_13
REMARK   10  A    between atoms: C_13  and  N_14
REMARK   11  A    between atoms: N_14  and  C_15
REMARK   12  A    between atoms: N_14  and  C_16
REMARK                            x       y       z     vdW  Elec       q    Type
REMARK                         _______ _______ _______ _____ _____    ______ ____
ROOT
ATOM      1  C   UNL     1       3.678   7.254  17.666  0.00  0.00    +0.000 A 
ATOM      2  C   UNL     1       4.587   7.351  16.591  0.00  0.00    +0.000 A 
ATOM      3  C   UNL     1       5.130   6.248  15.977  0.00  0.00    +0.000 A 
ATOM      4  C   UNL     1       4.872   4.959  16.432  0.00  0.00    +0.000 A 
ATOM      5  C   UNL     1       3.998   4.815  17.545  0.00  0.00    +0.000 A 
ATOM      6  C   UNL     1       3.392   5.953  18.152  0.00  0.00    +0.000 A 
ATOM      7  C   UNL     1       2.428   5.773  19.292  0.00  0.00    +0.000 C 
ATOM      8  O   UNL     1       1.855   6.713  19.822  0.00  0.00    +0.000 OA
ATOM      9  C   UNL     1       2.172   4.425  19.754  0.00  0.00    +0.000 A 
ATOM     10  C   UNL     1       1.283   4.007  20.791  0.00  0.00    +0.000 A 
ATOM     11  C   UNL     1       1.274   2.639  20.952  0.00  0.00    +0.000 A 
ATOM     12  S   UNL     1       2.329   1.862  19.853  0.00  0.00    +0.000 S 
ATOM     13  C   UNL     1       2.798   3.350  19.170  0.00  0.00    +0.000 A 
ATOM     14  C   UNL     1       3.753   3.433  18.092  0.00  0.00    +0.000 C 
ATOM     15  O   UNL     1       4.360   2.463  17.650  0.00  0.00    +0.000 OA
ENDROOT
BRANCH   1  16
ATOM     16  N   UNL     1       3.150   8.426  18.225  0.00  0.00    +0.000 N 
ATOM     17  H   UNL     1       3.053   8.334  19.242  0.00  0.00    +0.000 HD
BRANCH  16  18
ATOM     18  C   UNL     1       1.998   9.040  17.573  0.00  0.00    +0.000 C 
BRANCH  18  19
ATOM     19  C   UNL     1       1.526  10.308  18.294  0.00  0.00    +0.000 C 
BRANCH  19  21
ATOM     20  C   UNL     1       0.414   9.859  20.374  0.00  0.00    +0.000 C 
ATOM     21  N   UNL     1       0.210  10.163  18.954  0.00  0.00    +0.000 NA
ATOM     22  C   UNL     1      -0.613  11.370  18.830  0.00  0.00    +0.000 C 
ENDBRANCH  19  21
ENDBRANCH  18  19
ENDBRANCH  16  18
ENDBRANCH   1  16
BRANCH   4  23
ATOM     23  N   UNL     1       5.367   3.856  15.725  0.00  0.00    +0.000 N 
ATOM     24  H   UNL     1       5.822   3.163  16.332  0.00  0.00    +0.000 HD
BRANCH  23  25
ATOM     25  C   UNL     1       6.003   4.041  14.420  0.00  0.00    +0.000 C 
BRANCH  25  26
ATOM     26  C   UNL     1       5.063   3.655  13.258  0.00  0.00    +0.000 C 
BRANCH  26  27
ATOM     27  N   UNL     1       5.772   3.462  11.973  0.00  0.00    +0.000 NA
ATOM     28  C   UNL     1       7.167   3.907  12.035  0.00  0.00    +0.000 C 
ATOM     29  C   UNL     1       5.721   2.054  11.575  0.00  0.00    +0.000 C 
ENDBRANCH  26  27
ENDBRANCH  25  26
ENDBRANCH  23  25
ENDBRANCH   4  23
TORSDOF 8
ENDMDL
MODEL 7
REMARK VINA RESULT:      -6.0      1.589      2.403
REMARK  Name = 
REMARK  12 active torsions:
REMARK  status: ('A' for Active; 'I' for Inactive)
REMARK    1  A    between atoms: C_1  and  N_2
REMARK    2  A    between atoms: N_2  and  C_3
REMARK    3  A    between atoms: N_2  and  C_4
REMARK    4  A    between atoms: C_4  and  C_5
REMARK    5  A    between atoms: C_5  and  N_6
REMARK    6  A    between atoms: N_6  and  C_7
REMARK    7  A    between atoms: C_10  and  N_11
REMARK    8  A    between atoms: N_11  and  C_12
REMARK    9  A    between atoms: C_12  and  C_13
REMARK   10  A    between atoms: C_13  and  N_14
REMARK   11  A    between atoms: N_14  and  C_15
REMARK   12  A    between atoms: N_14  and  C_16
REMARK                            x       y       z     vdW  Elec       q    Type
REMARK                         _______ _______ _______ _____ _____    ______ ____
ROOT
ATOM      1  C   UNL     1       2.993   7.364  18.064  0.00  0.00    +0.000 A 
ATOM      2  C   UNL     1       3.918   7.767  17.079  0.00  0.00    +0.000 A 
ATOM      3  C   UNL     1       4.973   6.978  16.684  0.00  0.00    +0.000 A 
ATOM      4  C   UNL     1       5.236   5.756  17.293  0.00  0.00    +0.000 A 
ATOM      5  C   UNL     1       4.356   5.330  18.326  0.00  0.00    +0.000 A 
ATOM      6  C   UNL     1       3.232   6.121  18.703  0.00  0.00    +0.000 A 
ATOM      7  C   UNL     1       2.284   5.625  19.759  0.00  0.00    +0.000 C 
ATOM      8  O   UNL     1       1.286   6.248  20.091  0.00  0.00    +0.000 OA
ATOM      9  C   UNL     1       2.574   4.351  20.383  0.00  0.00    +0.000 A 
ATOM     10  C   UNL     1       1.811   3.669  21.380  0.00  0.00    +0.000 A 
ATOM     11  C   UNL     1       2.374   2.463  21.735  0.00  0.00    +0.000 A 
ATOM     12  S   UNL     1       3.813   2.152  20.864  0.00  0.00    +0.000 S 
ATOM     13  C   UNL     1       3.684   3.627  20.023  0.00  0.00    +0.000 A 
ATOM     14  C   UNL     1       4.658   4.038  19.041  0.00  0.00    +0.000 C 
ATOM     15  O   UNL     1       5.685   3.411  18.803  0.00  0.00    +0.000 OA
ENDROOT
BRANCH   1  16
ATOM     16  N   UNL     1       1.930   8.216  18.396  0.00  0.00    +0.000 N 
ATOM     17  H   UNL     1       1.031   7.792  18.146  0.00  0.00    +0.000 HD
BRANCH  16  18
ATOM     18  C   UNL     1       2.041   9.627  18.038  0.00  0.00    +0.000 C 
BRANCH  18  19
ATOM     19  C   UNL     1       0.900  10.468  18.621  0.00  0.00    +0.000 C 
BRANCH  19  21
ATOM     20  C   UNL     1       0.840  11.917  20.535  0.00  0.00    +0.000 C 
ATOM     21  N   UNL     1       0.891  10.518  20.099  0.00  0.00    +0.000 NA
ATOM     22  C   UNL     1      -0.244   9.789  20.675  0.00  0.00    +0.000 C 
ENDBRANCH  19  21
ENDBRANCH  18  19
ENDBRANCH  16  18
ENDBRANCH   1  16
BRANCH   4  23
ATOM     23  N   UNL     1       6.261   4.937  16.803  0.00  0.00    +0.000 N 
ATOM     24  H   UNL     1       7.032   4.817  17.471  0.00  0.00    +0.000 HD
BRANCH  23  25
ATOM     25  C   UNL     1       6.672   5.030  15.401  0.00  0.00    +0.000 C 
BRANCH  25  26
ATOM     26  C   UNL     1       5.842   4.099  14.491  0.00  0.00    +0.000 C 
BRANCH  26  27
ATOM     27  N   UNL     1       6.542   3.730  13.241  0.00  0.00    +0.000 NA
ATOM     28  C   UNL     1       5.615   3.292  12.193  0.00  0.00    +0.000 C 
ATOM     29  C   UNL     1       7.336   4.859  12.755  0.00  0.00    +0.000 C 
ENDBRANCH  26  27
ENDBRANCH  25  26
ENDBRANCH  23  25
ENDBRANCH   4  23
TORSDOF 8
ENDMDL
MODEL 8
REMARK VINA RESULT:      -5.9      0.771      1.199
REMARK  Name = 
REMARK  12 active torsions:
REMARK  status: ('A' for Active; 'I' for Inactive)
REMARK    1  A    between atoms: C_1  and  N_2
REMARK    2  A    between atoms: N_2  and  C_3
REMARK    3  A    between atoms: N_2  and  C_4
REMARK    4  A    between atoms: C_4  and  C_5
REMARK    5  A    between atoms: C_5  and  N_6
REMARK    6  A    between atoms: N_6  and  C_7
REMARK    7  A    between atoms: C_10  and  N_11
REMARK    8  A    between atoms: N_11  and  C_12
REMARK    9  A    between atoms: C_12  and  C_13
REMARK   10  A    between atoms: C_13  and  N_14
REMARK   11  A    between atoms: N_14  and  C_15
REMARK   12  A    between atoms: N_14  and  C_16
REMARK                            x       y       z     vdW  Elec       q    Type
REMARK                         _______ _______ _______ _____ _____    ______ ____
ROOT
ATOM      1  C   UNL     1       2.219   7.884  18.932  0.00  0.00    +0.000 A 
ATOM      2  C   UNL     1       2.846   8.461  17.808  0.00  0.00    +0.000 A 
ATOM      3  C   UNL     1       3.696   7.756  16.989  0.00  0.00    +0.000 A 
ATOM      4  C   UNL     1       4.051   6.440  17.267  0.00  0.00    +0.000 A 
ATOM      5  C   UNL     1       3.479   5.831  18.419  0.00  0.00    +0.000 A 
ATOM      6  C   UNL     1       2.558   6.542  19.242  0.00  0.00    +0.000 A 
ATOM      7  C   UNL     1       1.924   5.861  20.423  0.00  0.00    +0.000 C 
ATOM      8  O   UNL     1       1.101   6.414  21.136  0.00  0.00    +0.000 OA
ATOM      9  C   UNL     1       2.306   4.492  20.698  0.00  0.00    +0.000 A 
ATOM     10  C   UNL     1       1.822   3.638  21.736  0.00  0.00    +0.000 A 
ATOM     11  C   UNL     1       2.391   2.385  21.690  0.00  0.00    +0.000 A 
ATOM     12  S   UNL     1       3.501   2.237  20.397  0.00  0.00    +0.000 S 
ATOM     13  C   UNL     1       3.223   3.844  19.906  0.00  0.00    +0.000 A 
ATOM     14  C   UNL     1       3.898   4.427  18.773  0.00  0.00    +0.000 C 
ATOM     15  O   UNL     1       4.775   3.853  18.138  0.00  0.00    +0.000 OA
ENDROOT
BRANCH   1  16
ATOM     16  N   UNL     1       1.346   8.662  19.706  0.00  0.00    +0.000 N 
ATOM     17  H   UNL     1       0.498   8.136  19.941  0.00  0.00    +0.000 HD
BRANCH  16  18
ATOM     18  C   UNL     1       1.094  10.037  19.285  0.00  0.00    +0.000 C 
BRANCH  18  19
ATOM     19  C   UNL     1      -0.275  10.201  18.615  0.00  0.00    +0.000 C 
BRANCH  19  21
ATOM     20  C   UNL     1      -0.291  12.602  18.602  0.00  0.00    +0.000 C 
ATOM     21  N   UNL     1      -1.012  11.406  19.052  0.00  0.00    +0.000 NA
ATOM     22  C   UNL     1      -2.382  11.442  18.531  0.00  0.00    +0.000 C 
ENDBRANCH  19  21
ENDBRANCH  18  19
ENDBRANCH  16  18
ENDBRANCH   1  16
BRANCH   4  23
ATOM     23  N   UNL     1       4.844   5.724  16.362  0.00  0.00    +0.000 N 
ATOM     24  H   UNL     1       4.699   4.709  16.419  0.00  0.00    +0.000 HD
BRANCH  23  25
ATOM     25  C   UNL     1       6.226   6.134  16.108  0.00  0.00    +0.000 C 
BRANCH  25  26
ATOM     26  C   UNL     1       6.879   6.772  17.352  0.00  0.00    +0.000 C 
BRANCH  26  27
ATOM     27  N   UNL     1       7.795   5.855  18.066  0.00  0.00    +0.000 NA
ATOM     28  C   UNL     1       7.446   5.711  19.482  0.00  0.00    +0.000 C 
ATOM     29  C   UNL     1       7.793   4.540  17.423  0.00  0.00    +0.000 C 
ENDBRANCH  26  27
ENDBRANCH  25  26
ENDBRANCH  23  25
ENDBRANCH   4  23
TORSDOF 8
ENDMDL
MODEL 9
REMARK VINA RESULT:      -5.9      2.727      6.450
REMARK  Name = 
REMARK  12 active torsions:
REMARK  status: ('A' for Active; 'I' for Inactive)
REMARK    1  A    between atoms: C_1  and  N_2
REMARK    2  A    between atoms: N_2  and  C_3
REMARK    3  A    between atoms: N_2  and  C_4
REMARK    4  A    between atoms: C_4  and  C_5
REMARK    5  A    between atoms: C_5  and  N_6
REMARK    6  A    between atoms: N_6  and  C_7
REMARK    7  A    between atoms: C_10  and  N_11
REMARK    8  A    between atoms: N_11  and  C_12
REMARK    9  A    between atoms: C_12  and  C_13
REMARK   10  A    between atoms: C_13  and  N_14
REMARK   11  A    between atoms: N_14  and  C_15
REMARK   12  A    between atoms: N_14  and  C_16
REMARK                            x       y       z     vdW  Elec       q    Type
REMARK                         _______ _______ _______ _____ _____    ______ ____
ROOT
ATOM      1  C   UNL     1       4.208   6.059  17.753  0.00  0.00    +0.000 A 
ATOM      2  C   UNL     1       4.587   4.853  18.378  0.00  0.00    +0.000 A 
ATOM      3  C   UNL     1       4.015   4.412  19.547  0.00  0.00    +0.000 A 
ATOM      4  C   UNL     1       3.071   5.172  20.230  0.00  0.00    +0.000 A 
ATOM      5  C   UNL     1       2.692   6.420  19.660  0.00  0.00    +0.000 A 
ATOM      6  C   UNL     1       3.246   6.858  18.422  0.00  0.00    +0.000 A 
ATOM      7  C   UNL     1       2.790   8.154  17.812  0.00  0.00    +0.000 C 
ATOM      8  O   UNL     1       3.206   8.555  16.735  0.00  0.00    +0.000 OA
ATOM      9  C   UNL     1       1.809   8.934  18.536  0.00  0.00    +0.000 A 
ATOM     10  C   UNL     1       1.210  10.171  18.146  0.00  0.00    +0.000 A 
ATOM     11  C   UNL     1       0.297  10.625  19.072  0.00  0.00    +0.000 A 
ATOM     12  S   UNL     1       0.159   9.560  20.404  0.00  0.00    +0.000 S 
ATOM     13  C   UNL     1       1.319   8.502  19.745  0.00  0.00    +0.000 A 
ATOM     14  C   UNL     1       1.718   7.288  20.414  0.00  0.00    +0.000 C 
ATOM     15  O   UNL     1       1.328   6.972  21.533  0.00  0.00    +0.000 OA
ENDROOT
BRANCH   1  16
ATOM     16  N   UNL     1       4.823   6.431  16.549  0.00  0.00    +0.000 N 
ATOM     17  H   UNL     1       4.122   6.660  15.836  0.00  0.00    +0.000 HD
BRANCH  16  18
ATOM     18  C   UNL     1       5.924   5.609  16.057  0.00  0.00    +0.000 C 
BRANCH  18  19
ATOM     19  C   UNL     1       7.290   6.114  16.536  0.00  0.00    +0.000 C 
BRANCH  19  21
ATOM     20  C   UNL     1       7.925   6.233  18.848  0.00  0.00    +0.000 C 
ATOM     21  N   UNL     1       7.224   6.932  17.767  0.00  0.00    +0.000 NA
ATOM     22  C   UNL     1       7.815   8.261  17.586  0.00  0.00    +0.000 C 
ENDBRANCH  19  21
ENDBRANCH  18  19
ENDBRANCH  16  18
ENDBRANCH   1  16
BRANCH   4  23
ATOM     23  N   UNL     1       2.441   4.650  21.366  0.00  0.00    +0.000 N 
ATOM     24  H   UNL     1       2.982   4.796  22.227  0.00  0.00    +0.000 HD
BRANCH  23  25
ATOM     25  C   UNL     1       1.735   3.370  21.295  0.00  0.00    +0.000 C 
BRANCH  25  26
ATOM     26  C   UNL     1       0.556   3.413  20.300  0.00  0.00    +0.000 C 
BRANCH  26  27
ATOM     27  N   UNL     1       0.814   2.656  19.055  0.00  0.00    +0.000 NA
ATOM     28  C   UNL     1       1.081   3.536  17.914  0.00  0.00    +0.000 C 
ATOM     29  C   UNL     1       1.942   1.742  19.246  0.00  0.00    +0.000 C 
ENDBRANCH  26  27
ENDBRANCH  25  26
ENDBRANCH  23  25
ENDBRANCH   4  23
TORSDOF 8
ENDMDL
