MODEL 1
REMARK VINA RESULT:      -6.0      0.000      0.000
REMARK  Name = 
REMARK  12 active torsions:
REMARK  status: ('A' for Active; 'I' for Inactive)
REMARK    1  A    between atoms: C_1  and  C_2
REMARK    2  A    between atoms: C_2  and  C_3
REMARK    3  A    between atoms: C_2  and  C_4
REMARK    4  A    between atoms: C_4  and  C_5
REMARK    5  A    between atoms: C_5  and  C_6
REMARK    6  A    between atoms: C_15  and  C_16
REMARK    7  A    between atoms: C_16  and  C_17
REMARK    8  A    between atoms: C_16  and  O_18
REMARK    9  A    between atoms: C_16  and  C_19
REMARK   10  A    between atoms: C_19  and  N_20
REMARK   11  A    between atoms: N_20  and  C_21
REMARK   12  A    between atoms: N_20  and  C_22
REMARK                            x       y       z     vdW  Elec       q    Type
REMARK                         _______ _______ _______ _____ _____    ______ ____
ROOT
ATOM      1  C   UNL     1      -0.952  11.289  18.139  0.00  0.00    +0.000 C 
ATOM      2  O   UNL     1      -1.504  12.366  17.939  0.00  0.00    +0.000 OA
ATOM      3  N   UNL     1       0.105  11.157  19.042  0.00  0.00    +0.000 N 
ATOM      4  C   UNL     1       0.803   9.908  19.367  0.00  0.00    +0.000 C 
ATOM      5  C   UNL     1       0.271   9.243  20.640  0.00  0.00    +0.000 C 
ATOM      6  O   UNL     1       0.583  10.011  21.815  0.00  0.00    +0.000 OA
ATOM      7  C   UNL     1      -0.377  10.960  22.050  0.00  0.00    +0.000 A 
ATOM      8  C   UNL     1      -1.183  10.797  23.172  0.00  0.00    +0.000 A 
ATOM      9  C   UNL     1      -2.199  11.720  23.440  0.00  0.00    +0.000 A 
ATOM     10  C   UNL     1      -2.404  12.842  22.614  0.00  0.00    +0.000 A 
ATOM     11  C   UNL     1      -1.555  12.993  21.503  0.00  0.00    +0.000 A 
ATOM     12  C   UNL     1      -0.539  12.065  21.211  0.00  0.00    +0.000 A 
ATOM     13  C   UNL     1       0.318  12.250  19.983  0.00  0.00    +0.000 C 
ENDROOT
BRANCH  10  14
ATOM     14  C   UNL     1      -3.564  13.810  22.904  0.00  0.00    +0.000 C 
ATOM     15  C   UNL     1      -3.512  14.436  24.311  0.00  0.00    +0.000 C 
BRANCH  14  16
ATOM     16  O   UNL     1      -3.411  14.857  21.928  0.00  0.00    +0.000 OA
ATOM     17  H   UNL     1      -4.235  15.372  21.930  0.00  0.00    +0.000 HD
ENDBRANCH  14  16
BRANCH  14  18
ATOM     18  C   UNL     1      -4.958  13.106  22.695  0.00  0.00    +0.000 C 
BRANCH  18  19
ATOM     19  N   UNL     1      -6.130  13.649  23.442  0.00  0.00    +0.000 NA
ATOM     20  C   UNL     1      -6.904  14.595  22.633  0.00  0.00    +0.000 C 
ATOM     21  C   UNL     1      -7.001  12.548  23.861  0.00  0.00    +0.000 C 
ENDBRANCH  18  19
ENDBRANCH  14  18
ENDBRANCH  10  14
BRANCH   1  22
ATOM     22  C   UNL     1      -1.399  10.022  17.423  0.00  0.00    +0.000 C 
BRANCH  22  23
ATOM     23  C   UNL     1      -2.904   9.772  17.578  0.00  0.00    +0.000 C 
BRANCH  23  25
ATOM     24  C   UNL     1      -4.524  11.444  16.631  0.00  0.00    +0.000 C 
ATOM     25  C   UNL     1      -3.730  10.167  16.339  0.00  0.00    +0.000 C 
ATOM     26  C   UNL     1      -2.864  10.374  15.096  0.00  0.00    +0.000 C 
ENDBRANCH  23  25
ENDBRANCH  22  23
ENDBRANCH   1  22
TORSDOF 7
ENDMDL
MODEL 2
REMARK VINA RESULT:      -6.0      1.145      1.537
REMARK  Name = 
REMARK  12 active torsions:
REMARK  status: ('A' for Active; 'I' for Inactive)
REMARK    1  A    between atoms: C_1  and  C_2
REMARK    2  A    between atoms: C_2  and  C_3
REMARK    3  A    between atoms: C_2  and  C_4
REMARK    4  A    between atoms: C_4  and  C_5
REMARK    5  A    between atoms: C_5  and  C_6
REMARK    6  A    between atoms: C_15  and  C_16
REMARK    7  A    between atoms: C_16  and  C_17
REMARK    8  A    between atoms: C_16  and  O_18
REMARK    9  A    between atoms: C_16  and  C_19
REMARK   10  A    between atoms: C_19  and  N_20
REMARK   11  A    between atoms: N_20  and  C_21
REMARK   12  A    between atoms: N_20  and  C_22
REMARK                            x       y       z     vdW  Elec       q    Type
REMARK                         _______ _______ _______ _____ _____    ______ ____
ROOT
ATOM      1  C   UNL     1      -0.871  11.276  18.169  0.00  0.00    +0.000 C 
ATOM      2  O   UNL     1      -1.499  12.328  18.113  0.00  0.00    +0.000 OA
ATOM      3  N   UNL     1       0.250  11.128  18.988  0.00  0.00    +0.000 N 
ATOM      4  C   UNL     1       1.041   9.902  19.142  0.00  0.00    +0.000 C 
ATOM      5  C   UNL     1       0.638   9.084  20.372  0.00  0.00    +0.000 C 
ATOM      6  O   UNL     1       0.982   9.754  21.596  0.00  0.00    +0.000 OA
ATOM      7  C   UNL     1      -0.014  10.610  21.985  0.00  0.00    +0.000 A 
ATOM      8  C   UNL     1      -0.731  10.287  23.133  0.00  0.00    +0.000 A 
ATOM      9  C   UNL     1      -1.780  11.111  23.553  0.00  0.00    +0.000 A 
ATOM     10  C   UNL     1      -2.107  12.291  22.858  0.00  0.00    +0.000 A 
ATOM     11  C   UNL     1      -1.345  12.604  21.718  0.00  0.00    +0.000 A 
ATOM     12  C   UNL     1      -0.298  11.778  21.273  0.00  0.00    +0.000 A 
ATOM     13  C   UNL     1       0.461  12.136  20.019  0.00  0.00    +0.000 C 
ENDROOT
BRANCH  10  14
ATOM     14  C   UNL     1      -3.301  13.148  23.315  0.00  0.00    +0.000 C 
ATOM     15  C   UNL     1      -4.143  12.494  24.428  0.00  0.00    +0.000 C 
BRANCH  14  16
ATOM     16  O   UNL     1      -2.703  14.349  23.835  0.00  0.00    +0.000 OA
ATOM     17  H   UNL     1      -2.190  14.096  24.620  0.00  0.00    +0.000 HD
ENDBRANCH  14  16
BRANCH  14  18
ATOM     18  C   UNL     1      -4.233  13.517  22.100  0.00  0.00    +0.000 C 
BRANCH  18  19
ATOM     19  N   UNL     1      -5.000  12.413  21.452  0.00  0.00    +0.000 NA
ATOM     20  C   UNL     1      -6.446  12.568  21.638  0.00  0.00    +0.000 C 
ATOM     21  C   UNL     1      -4.699  12.378  20.019  0.00  0.00    +0.000 C 
ENDBRANCH  18  19
ENDBRANCH  14  18
ENDBRANCH  10  14
BRANCH   1  22
ATOM     22  C   UNL     1      -1.290  10.057  17.359  0.00  0.00    +0.000 C 
BRANCH  22  23
ATOM     23  C   UNL     1      -2.811   9.974  17.184  0.00  0.00    +0.000 C 
BRANCH  23  25
ATOM     24  C   UNL     1      -3.510  10.118  14.775  0.00  0.00    +0.000 C 
ATOM     25  C   UNL     1      -3.361  10.901  16.083  0.00  0.00    +0.000 C 
ATOM     26  C   UNL     1      -4.701  11.532  16.459  0.00  0.00    +0.000 C 
ENDBRANCH  23  25
ENDBRANCH  22  23
ENDBRANCH   1  22
TORSDOF 7
ENDMDL
MODEL 3
REMARK VINA RESULT:      -6.0      4.163      8.251
REMARK  Name = 
REMARK  12 active torsions:
REMARK  status: ('A' for Active; 'I' for Inactive)
REMARK    1  A    between atoms: C_1  and  C_2
REMARK    2  A    between atoms: C_2  and  C_3
REMARK    3  A    between atoms: C_2  and  C_4
REMARK    4  A    between atoms: C_4  and  C_5
REMARK    5  A    between atoms: C_5  and  C_6
REMARK    6  A    between atoms: C_15  and  C_16
REMARK    7  A    between atoms: C_16  and  C_17
REMARK    8  A    between atoms: C_16  and  O_18
REMARK    9  A    between atoms: C_16  and  C_19
REMARK   10  A    between atoms: C_19  and  N_20
REMARK   11  A    between atoms: N_20  and  C_21
REMARK   12  A    between atoms: N_20  and  C_22
REMARK                            x       y       z     vdW  Elec       q    Type
REMARK                         _______ _______ _______ _____ _____    ______ ____
ROOT
ATOM      1  C   UNL     1       2.049  12.474  18.861  0.00  0.00    +0.000 C 
ATOM      2  O   UNL     1       2.611  12.052  17.855  0.00  0.00    +0.000 OA
ATOM      3  N   UNL     1       0.773  12.044  19.229  0.00  0.00    +0.000 N 
ATOM      4  C   UNL     1       0.039  12.469  20.426  0.00  0.00    +0.000 C 
ATOM      5  C   UNL     1       0.177  11.483  21.589  0.00  0.00    +0.000 C 
ATOM      6  O   UNL     1      -0.493  10.240  21.320  0.00  0.00    +0.000 OA
ATOM      7  C   UNL     1       0.329   9.376  20.645  0.00  0.00    +0.000 A 
ATOM      8  C   UNL     1       0.763   8.239  21.319  0.00  0.00    +0.000 A 
ATOM      9  C   UNL     1       1.629   7.342  20.685  0.00  0.00    +0.000 A 
ATOM     10  C   UNL     1       2.048   7.544  19.356  0.00  0.00    +0.000 A 
ATOM     11  C   UNL     1       1.570   8.689  18.693  0.00  0.00    +0.000 A 
ATOM     12  C   UNL     1       0.711   9.609  19.321  0.00  0.00    +0.000 A 
ATOM     13  C   UNL     1       0.260  10.844  18.580  0.00  0.00    +0.000 C 
ENDROOT
BRANCH  10  14
ATOM     14  C   UNL     1       3.043   6.568  18.705  0.00  0.00    +0.000 C 
ATOM     15  C   UNL     1       3.978   7.233  17.675  0.00  0.00    +0.000 C 
BRANCH  14  16
ATOM     16  O   UNL     1       3.839   6.081  19.801  0.00  0.00    +0.000 OA
ATOM     17  H   UNL     1       4.589   5.599  19.417  0.00  0.00    +0.000 HD
ENDBRANCH  14  16
BRANCH  14  18
ATOM     18  C   UNL     1       2.294   5.359  18.029  0.00  0.00    +0.000 C 
BRANCH  18  19
ATOM     19  N   UNL     1       2.542   3.994  18.578  0.00  0.00    +0.000 NA
ATOM     20  C   UNL     1       1.300   3.231  18.731  0.00  0.00    +0.000 C 
ATOM     21  C   UNL     1       3.450   3.263  17.690  0.00  0.00    +0.000 C 
ENDBRANCH  18  19
ENDBRANCH  14  18
ENDBRANCH  10  14
BRANCH   1  22
ATOM     22  C   UNL     1       2.721  13.483  19.781  0.00  0.00    +0.000 C 
BRANCH  22  23
ATOM     23  C   UNL     1       3.388  14.621  19.001  0.00  0.00    +0.000 C 
BRANCH  23  25
ATOM     24  C   UNL     1       1.427  16.160  19.317  0.00  0.00    +0.000 C 
ATOM     25  C   UNL     1       2.390  15.556  18.291  0.00  0.00    +0.000 C 
ATOM     26  C   UNL     1       3.082  16.677  17.515  0.00  0.00    +0.000 C 
ENDBRANCH  23  25
ENDBRANCH  22  23
ENDBRANCH   1  22
TORSDOF 7
ENDMDL
MODEL 4
REMARK VINA RESULT:      -5.9      6.265     10.843
REMARK  Name = 
REMARK  12 active torsions:
REMARK  status: ('A' for Active; 'I' for Inactive)
REMARK    1  A    between atoms: C_1  and  C_2
REMARK    2  A    between atoms: C_2  and  C_3
REMARK    3  A    between atoms: C_2  and  C_4
REMARK    4  A    between atoms: C_4  and  C_5
REMARK    5  A    between atoms: C_5  and  C_6
REMARK    6  A    between atoms: C_15  and  C_16
REMARK    7  A    between atoms: C_16  and  C_17
REMARK    8  A    between atoms: C_16  and  O_18
REMARK    9  A    between atoms: C_16  and  C_19
REMARK   10  A    between atoms: C_19  and  N_20
REMARK   11  A    between atoms: N_20  and  C_21
REMARK   12  A    between atoms: N_20  and  C_22
REMARK                            x       y       z     vdW  Elec       q    Type
REMARK                         _______ _______ _______ _____ _____    ______ ____
ROOT
ATOM      1  C   UNL     1       1.834   7.020  19.770  0.00  0.00    +0.000 C 
ATOM      2  O   UNL     1       2.010   7.792  18.832  0.00  0.00    +0.000 OA
ATOM      3  N   UNL     1       1.462   5.689  19.572  0.00  0.00    +0.000 N 
ATOM      4  C   UNL     1       1.261   4.690  20.627  0.00  0.00    +0.000 C 
ATOM      5  C   UNL     1       2.491   3.806  20.852  0.00  0.00    +0.000 C 
ATOM      6  O   UNL     1       2.735   2.936  19.734  0.00  0.00    +0.000 OA
ATOM      7  C   UNL     1       3.503   3.558  18.786  0.00  0.00    +0.000 A 
ATOM      8  C   UNL     1       4.798   3.088  18.593  0.00  0.00    +0.000 A 
ATOM      9  C   UNL     1       5.633   3.711  17.660  0.00  0.00    +0.000 A 
ATOM     10  C   UNL     1       5.179   4.789  16.876  0.00  0.00    +0.000 A 
ATOM     11  C   UNL     1       3.856   5.222  17.075  0.00  0.00    +0.000 A 
ATOM     12  C   UNL     1       3.008   4.618  18.020  0.00  0.00    +0.000 A 
ATOM     13  C   UNL     1       1.611   5.148  18.226  0.00  0.00    +0.000 C 
ENDROOT
BRANCH  10  14
ATOM     14  C   UNL     1       6.138   5.487  15.896  0.00  0.00    +0.000 C 
ATOM     15  C   UNL     1       6.539   4.611  14.693  0.00  0.00    +0.000 C 
BRANCH  14  16
ATOM     16  O   UNL     1       5.396   6.621  15.413  0.00  0.00    +0.000 OA
ATOM     17  H   UNL     1       5.142   6.427  14.496  0.00  0.00    +0.000 HD
ENDBRANCH  14  16
BRANCH  14  18
ATOM     18  C   UNL     1       7.435   5.991  16.634  0.00  0.00    +0.000 C 
BRANCH  18  19
ATOM     19  N   UNL     1       7.259   6.816  17.864  0.00  0.00    +0.000 NA
ATOM     20  C   UNL     1       7.927   6.219  19.024  0.00  0.00    +0.000 C 
ATOM     21  C   UNL     1       7.796   8.161  17.638  0.00  0.00    +0.000 C 
ENDBRANCH  18  19
ENDBRANCH  14  18
ENDBRANCH  10  14
BRANCH   1  22
ATOM     22  C   UNL     1       2.028   7.466  21.213  0.00  0.00    +0.000 C 
BRANCH  22  23
ATOM     23  C   UNL     1       1.509   8.889  21.451  0.00  0.00    +0.000 C 
BRANCH  23  25
ATOM     24  C   UNL     1      -0.517   9.496  22.808  0.00  0.00    +0.000 C 
ATOM     25  C   UNL     1      -0.027   8.999  21.445  0.00  0.00    +0.000 C 
ATOM     26  C   UNL     1      -0.547   9.924  20.345  0.00  0.00    +0.000 C 
ENDBRANCH  23  25
ENDBRANCH  22  23
ENDBRANCH   1  22
TORSDOF 7
ENDMDL
MODEL 5
REMARK VINA RESULT:      -5.8      6.636     11.227
REMARK  Name = 
REMARK  12 active torsions:
REMARK  status: ('A' for Active; 'I' for Inactive)
REMARK    1  A    between atoms: C_1  and  C_2
REMARK    2  A    between atoms: C_2  and  C_3
REMARK    3  A    between atoms: C_2  and  C_4
REMARK    4  A    between atoms: C_4  and  C_5
REMARK    5  A    between atoms: C_5  and  C_6
REMARK    6  A    between atoms: C_15  and  C_16
REMARK    7  A    between atoms: C_16  and  C_17
REMARK    8  A    between atoms: C_16  and  O_18
REMARK    9  A    between atoms: C_16  and  C_19
REMARK   10  A    between atoms: C_19  and  N_20
REMARK   11  A    between atoms: N_20  and  C_21
REMARK   12  A    between atoms: N_20  and  C_22
REMARK                            x       y       z     vdW  Elec       q    Type
REMARK                         _______ _______ _______ _____ _____    ______ ____
ROOT
ATOM      1  C   UNL     1       1.896   7.167  19.758  0.00  0.00    +0.000 C 
ATOM      2  O   UNL     1       2.235   7.885  18.823  0.00  0.00    +0.000 OA
ATOM      3  N   UNL     1       1.560   5.824  19.574  0.00  0.00    +0.000 N 
ATOM      4  C   UNL     1       1.174   4.886  20.633  0.00  0.00    +0.000 C 
ATOM      5  C   UNL     1       2.343   4.024  21.119  0.00  0.00    +0.000 C 
ATOM      6  O   UNL     1       2.776   3.093  20.112  0.00  0.00    +0.000 OA
ATOM      7  C   UNL     1       3.699   3.666  19.278  0.00  0.00    +0.000 A 
ATOM      8  C   UNL     1       5.006   3.194  19.341  0.00  0.00    +0.000 A 
ATOM      9  C   UNL     1       5.993   3.768  18.534  0.00  0.00    +0.000 A 
ATOM     10  C   UNL     1       5.687   4.797  17.622  0.00  0.00    +0.000 A 
ATOM     11  C   UNL     1       4.351   5.233  17.563  0.00  0.00    +0.000 A 
ATOM     12  C   UNL     1       3.349   4.677  18.379  0.00  0.00    +0.000 A 
ATOM     13  C   UNL     1       1.939   5.209  18.307  0.00  0.00    +0.000 C 
ENDROOT
BRANCH  10  14
ATOM     14  C   UNL     1       6.805   5.445  16.787  0.00  0.00    +0.000 C 
ATOM     15  C   UNL     1       7.249   6.825  17.311  0.00  0.00    +0.000 C 
BRANCH  14  16
ATOM     16  O   UNL     1       7.911   4.532  16.897  0.00  0.00    +0.000 OA
ATOM     17  H   UNL     1       8.214   4.340  15.995  0.00  0.00    +0.000 HD
ENDBRANCH  14  16
BRANCH  14  18
ATOM     18  C   UNL     1       6.383   5.570  15.274  0.00  0.00    +0.000 C 
BRANCH  18  19
ATOM     19  N   UNL     1       6.921   4.559  14.317  0.00  0.00    +0.000 NA
ATOM     20  C   UNL     1       5.849   3.850  13.610  0.00  0.00    +0.000 C 
ATOM     21  C   UNL     1       7.790   5.218  13.339  0.00  0.00    +0.000 C 
ENDBRANCH  18  19
ENDBRANCH  14  18
ENDBRANCH  10  14
BRANCH   1  22
ATOM     22  C   UNL     1       1.838   7.695  21.184  0.00  0.00    +0.000 C 
BRANCH  22  23
ATOM     23  C   UNL     1       1.385   9.159  21.239  0.00  0.00    +0.000 C 
BRANCH  23  25
ATOM     24  C   UNL     1      -0.570   9.876  22.645  0.00  0.00    +0.000 C 
ATOM     25  C   UNL     1      -0.145   9.335  21.277  0.00  0.00    +0.000 C 
ATOM     26  C   UNL     1      -0.658  10.263  20.176  0.00  0.00    +0.000 C 
ENDBRANCH  23  25
ENDBRANCH  22  23
ENDBRANCH   1  22
TORSDOF 7
ENDMDL
MODEL 6
REMARK VINA RESULT:      -5.8      6.781      9.171
REMARK  Name = 
REMARK  12 active torsions:
REMARK  status: ('A' for Active; 'I' for Inactive)
REMARK    1  A    between atoms: C_1  and  C_2
REMARK    2  A    between atoms: C_2  and  C_3
REMARK    3  A    between atoms: C_2  and  C_4
REMARK    4  A    between atoms: C_4  and  C_5
REMARK    5  A    between atoms: C_5  and  C_6
REMARK    6  A    between atoms: C_15  and  C_16
REMARK    7  A    between atoms: C_16  and  C_17
REMARK    8  A    between atoms: C_16  and  O_18
REMARK    9  A    between atoms: C_16  and  C_19
REMARK   10  A    between atoms: C_19  and  N_20
REMARK   11  A    between atoms: N_20  and  C_21
REMARK   12  A    between atoms: N_20  and  C_22
REMARK                            x       y       z     vdW  Elec       q    Type
REMARK                         _______ _______ _______ _____ _____    ______ ____
ROOT
ATOM      1  C   UNL     1       5.439   5.552  15.232  0.00  0.00    +0.000 C 
ATOM      2  O   UNL     1       5.362   6.722  14.870  0.00  0.00    +0.000 OA
ATOM      3  N   UNL     1       5.853   5.203  16.519  0.00  0.00    +0.000 N 
ATOM      4  C   UNL     1       5.946   3.837  17.046  0.00  0.00    +0.000 C 
ATOM      5  C   UNL     1       4.713   3.428  17.857  0.00  0.00    +0.000 C 
ATOM      6  O   UNL     1       4.615   4.161  19.090  0.00  0.00    +0.000 OA
ATOM      7  C   UNL     1       3.954   5.346  18.905  0.00  0.00    +0.000 A 
ATOM      8  C   UNL     1       2.698   5.483  19.488  0.00  0.00    +0.000 A 
ATOM      9  C   UNL     1       1.969   6.661  19.302  0.00  0.00    +0.000 A 
ATOM     10  C   UNL     1       2.494   7.738  18.562  0.00  0.00    +0.000 A 
ATOM     11  C   UNL     1       3.777   7.579  18.009  0.00  0.00    +0.000 A 
ATOM     12  C   UNL     1       4.518   6.395  18.173  0.00  0.00    +0.000 A 
ATOM     13  C   UNL     1       5.873   6.259  17.523  0.00  0.00    +0.000 C 
ENDROOT
BRANCH  10  14
ATOM     14  C   UNL     1       1.645   9.000  18.330  0.00  0.00    +0.000 C 
ATOM     15  C   UNL     1       2.443  10.185  17.752  0.00  0.00    +0.000 C 
BRANCH  14  16
ATOM     16  O   UNL     1       0.656   8.596  17.366  0.00  0.00    +0.000 OA
ATOM     17  H   UNL     1      -0.150   9.103  17.554  0.00  0.00    +0.000 HD
ENDBRANCH  14  16
BRANCH  14  18
ATOM     18  C   UNL     1       0.923   9.451  19.656  0.00  0.00    +0.000 C 
BRANCH  18  19
ATOM     19  N   UNL     1       0.321  10.815  19.690  0.00  0.00    +0.000 NA
ATOM     20  C   UNL     1      -1.144  10.768  19.664  0.00  0.00    +0.000 C 
ATOM     21  C   UNL     1       0.759  11.518  20.899  0.00  0.00    +0.000 C 
ENDBRANCH  18  19
ENDBRANCH  14  18
ENDBRANCH  10  14
BRANCH   1  22
ATOM     22  C   UNL     1       5.070   4.407  14.300  0.00  0.00    +0.000 C 
BRANCH  22  23
ATOM     23  C   UNL     1       6.283   3.881  13.524  0.00  0.00    +0.000 C 
BRANCH  23  25
ATOM     24  C   UNL     1       6.701   2.243  11.665  0.00  0.00    +0.000 C 
ATOM     25  C   UNL     1       5.979   3.536  12.054  0.00  0.00    +0.000 C 
ATOM     26  C   UNL     1       4.482   3.389  11.781  0.00  0.00    +0.000 C 
ENDBRANCH  23  25
ENDBRANCH  22  23
ENDBRANCH   1  22
TORSDOF 7
ENDMDL
MODEL 7
REMARK VINA RESULT:      -5.8      6.348      9.058
REMARK  Name = 
REMARK  12 active torsions:
REMARK  status: ('A' for Active; 'I' for Inactive)
REMARK    1  A    between atoms: C_1  and  C_2
REMARK    2  A    between atoms: C_2  and  C_3
REMARK    3  A    between atoms: C_2  and  C_4
REMARK    4  A    between atoms: C_4  and  C_5
REMARK    5  A    between atoms: C_5  and  C_6
REMARK    6  A    between atoms: C_15  and  C_16
REMARK    7  A    between atoms: C_16  and  C_17
REMARK    8  A    between atoms: C_16  and  O_18
REMARK    9  A    between atoms: C_16  and  C_19
REMARK   10  A    between atoms: C_19  and  N_20
REMARK   11  A    between atoms: N_20  and  C_21
REMARK   12  A    between atoms: N_20  and  C_22
REMARK                            x       y       z     vdW  Elec       q    Type
REMARK                         _______ _______ _______ _____ _____    ______ ____
ROOT
ATOM      1  C   UNL     1       4.924   4.922  17.178  0.00  0.00    +0.000 C 
ATOM      2  O   UNL     1       5.247   6.080  17.421  0.00  0.00    +0.000 OA
ATOM      3  N   UNL     1       4.783   3.967  18.186  0.00  0.00    +0.000 N 
ATOM      4  C   UNL     1       4.372   2.572  17.992  0.00  0.00    +0.000 C 
ATOM      5  C   UNL     1       2.877   2.352  18.245  0.00  0.00    +0.000 C 
ATOM      6  O   UNL     1       2.539   2.517  19.632  0.00  0.00    +0.000 OA
ATOM      7  C   UNL     1       2.274   3.829  19.920  0.00  0.00    +0.000 A 
ATOM      8  C   UNL     1       0.963   4.168  20.239  0.00  0.00    +0.000 A 
ATOM      9  C   UNL     1       0.633   5.500  20.509  0.00  0.00    +0.000 A 
ATOM     10  C   UNL     1       1.613   6.512  20.503  0.00  0.00    +0.000 A 
ATOM     11  C   UNL     1       2.934   6.132  20.204  0.00  0.00    +0.000 A 
ATOM     12  C   UNL     1       3.279   4.800  19.915  0.00  0.00    +0.000 A 
ATOM     13  C   UNL     1       4.703   4.452  19.559  0.00  0.00    +0.000 C 
ENDROOT
BRANCH  10  14
ATOM     14  C   UNL     1       1.210   7.976  20.751  0.00  0.00    +0.000 C 
ATOM     15  C   UNL     1      -0.231   8.142  21.271  0.00  0.00    +0.000 C 
BRANCH  14  16
ATOM     16  O   UNL     1       2.121   8.433  21.766  0.00  0.00    +0.000 OA
ATOM     17  H   UNL     1       1.819   9.311  22.048  0.00  0.00    +0.000 HD
ENDBRANCH  14  16
BRANCH  14  18
ATOM     18  C   UNL     1       1.402   8.846  19.451  0.00  0.00    +0.000 C 
BRANCH  18  19
ATOM     19  N   UNL     1       0.500  10.019  19.261  0.00  0.00    +0.000 NA
ATOM     20  C   UNL     1       1.236  11.286  19.288  0.00  0.00    +0.000 C 
ATOM     21  C   UNL     1      -0.203   9.897  17.981  0.00  0.00    +0.000 C 
ENDBRANCH  18  19
ENDBRANCH  14  18
ENDBRANCH  10  14
BRANCH   1  22
ATOM     22  C   UNL     1       4.639   4.459  15.756  0.00  0.00    +0.000 C 
BRANCH  22  23
ATOM     23  C   UNL     1       5.884   3.873  15.080  0.00  0.00    +0.000 C 
BRANCH  23  25
ATOM     24  C   UNL     1       7.555   5.056  13.623  0.00  0.00    +0.000 C 
ATOM     25  C   UNL     1       6.153   4.441  13.673  0.00  0.00    +0.000 C 
ATOM     26  C   UNL     1       6.015   3.387  12.575  0.00  0.00    +0.000 C 
ENDBRANCH  23  25
ENDBRANCH  22  23
ENDBRANCH   1  22
TORSDOF 7
ENDMDL
MODEL 8
REMARK VINA RESULT:      -5.7      1.498      2.135
REMARK  Name = 
REMARK  12 active torsions:
REMARK  status: ('A' for Active; 'I' for Inactive)
REMARK    1  A    between atoms: C_1  and  C_2
REMARK    2  A    between atoms: C_2  and  C_3
REMARK    3  A    between atoms: C_2  and  C_4
REMARK    4  A    between atoms: C_4  and  C_5
REMARK    5  A    between atoms: C_5  and  C_6
REMARK    6  A    between atoms: C_15  and  C_16
REMARK    7  A    between atoms: C_16  and  C_17
REMARK    8  A    between atoms: C_16  and  O_18
REMARK    9  A    between atoms: C_16  and  C_19
REMARK   10  A    between atoms: C_19  and  N_20
REMARK   11  A    between atoms: N_20  and  C_21
REMARK   12  A    between atoms: N_20  and  C_22
REMARK                            x       y       z     vdW  Elec       q    Type
REMARK                         _______ _______ _______ _____ _____    ______ ____
ROOT
ATOM      1  C   UNL     1      -0.845  11.304  18.212  0.00  0.00    +0.000 C 
ATOM      2  O   UNL     1      -1.314  12.395  17.904  0.00  0.00    +0.000 OA
ATOM      3  N   UNL     1       0.118  11.171  19.214  0.00  0.00    +0.000 N 
ATOM      4  C   UNL     1       0.711   9.908  19.669  0.00  0.00    +0.000 C 
ATOM      5  C   UNL     1       0.031   9.349  20.921  0.00  0.00    +0.000 C 
ATOM      6  O   UNL     1       0.281  10.167  22.077  0.00  0.00    +0.000 OA
ATOM      7  C   UNL     1      -0.640  11.177  22.171  0.00  0.00    +0.000 A 
ATOM      8  C   UNL     1      -1.551  11.123  23.222  0.00  0.00    +0.000 A 
ATOM      9  C   UNL     1      -2.532  12.112  23.344  0.00  0.00    +0.000 A 
ATOM     10  C   UNL     1      -2.598  13.192  22.443  0.00  0.00    +0.000 A 
ATOM     11  C   UNL     1      -1.646  13.233  21.409  0.00  0.00    +0.000 A 
ATOM     12  C   UNL     1      -0.663  12.238  21.262  0.00  0.00    +0.000 A 
ATOM     13  C   UNL     1       0.309  12.305  20.110  0.00  0.00    +0.000 C 
ENDROOT
BRANCH  10  14
ATOM     14  C   UNL     1      -3.722  14.236  22.572  0.00  0.00    +0.000 C 
ATOM     15  C   UNL     1      -3.891  15.122  21.322  0.00  0.00    +0.000 C 
BRANCH  14  16
ATOM     16  O   UNL     1      -4.918  13.456  22.748  0.00  0.00    +0.000 OA
ATOM     17  H   UNL     1      -5.062  13.364  23.704  0.00  0.00    +0.000 HD
ENDBRANCH  14  16
BRANCH  14  18
ATOM     18  C   UNL     1      -3.507  15.149  23.837  0.00  0.00    +0.000 C 
BRANCH  18  19
ATOM     19  N   UNL     1      -2.106  15.494  24.215  0.00  0.00    +0.000 NA
ATOM     20  C   UNL     1      -1.756  16.864  23.829  0.00  0.00    +0.000 C 
ATOM     21  C   UNL     1      -1.933  15.342  25.663  0.00  0.00    +0.000 C 
ENDBRANCH  18  19
ENDBRANCH  14  18
ENDBRANCH  10  14
BRANCH   1  22
ATOM     22  C   UNL     1      -1.298  10.022  17.527  0.00  0.00    +0.000 C 
BRANCH  22  23
ATOM     23  C   UNL     1      -2.804   9.784  17.689  0.00  0.00    +0.000 C 
BRANCH  23  25
ATOM     24  C   UNL     1      -4.489  11.384  16.733  0.00  0.00    +0.000 C 
ATOM     25  C   UNL     1      -3.629  10.151  16.441  0.00  0.00    +0.000 C 
ATOM     26  C   UNL     1      -2.755  10.414  15.214  0.00  0.00    +0.000 C 
ENDBRANCH  23  25
ENDBRANCH  22  23
ENDBRANCH   1  22
TORSDOF 7
ENDMDL
MODEL 9
REMARK VINA RESULT:      -5.7      1.044      1.252
REMARK  Name = 
REMARK  12 active torsions:
REMARK  status: ('A' for Active; 'I' for Inactive)
REMARK    1  A    between atoms: C_1  and  C_2
REMARK    2  A    between atoms: C_2  and  C_3
REMARK    3  A    between atoms: C_2  and  C_4
REMARK    4  A    between atoms: C_4  and  C_5
REMARK    5  A    between atoms: C_5  and  C_6
REMARK    6  A    between atoms: C_15  and  C_16
REMARK    7  A    between atoms: C_16  and  C_17
REMARK    8  A    between atoms: C_16  and  O_18
REMARK    9  A    between atoms: C_16  and  C_19
REMARK   10  A    between atoms: C_19  and  N_20
REMARK   11  A    between atoms: N_20  and  C_21
REMARK   12  A    between atoms: N_20  and  C_22
REMARK                            x       y       z     vdW  Elec       q    Type
REMARK                         _______ _______ _______ _____ _____    ______ ____
ROOT
ATOM      1  C   UNL     1      -0.670  11.546  18.389  0.00  0.00    +0.000 C 
ATOM      2  O   UNL     1      -1.127  12.618  18.004  0.00  0.00    +0.000 OA
ATOM      3  N   UNL     1       0.189  11.461  19.486  0.00  0.00    +0.000 N 
ATOM      4  C   UNL     1       0.757  10.225  20.034  0.00  0.00    +0.000 C 
ATOM      5  C   UNL     1      -0.035   9.684  21.228  0.00  0.00    +0.000 C 
ATOM      6  O   UNL     1       0.081  10.538  22.378  0.00  0.00    +0.000 OA
ATOM      7  C   UNL     1      -0.864  11.530  22.351  0.00  0.00    +0.000 A 
ATOM      8  C   UNL     1      -1.875  11.484  23.306  0.00  0.00    +0.000 A 
ATOM      9  C   UNL     1      -2.882  12.453  23.300  0.00  0.00    +0.000 A 
ATOM     10  C   UNL     1      -2.879  13.508  22.366  0.00  0.00    +0.000 A 
ATOM     11  C   UNL     1      -1.827  13.541  21.432  0.00  0.00    +0.000 A 
ATOM     12  C   UNL     1      -0.815  12.565  21.414  0.00  0.00    +0.000 A 
ATOM     13  C   UNL     1       0.267  12.623  20.364  0.00  0.00    +0.000 C 
ENDROOT
BRANCH  10  14
ATOM     14  C   UNL     1      -4.030  14.529  22.352  0.00  0.00    +0.000 C 
ATOM     15  C   UNL     1      -3.957  15.560  23.495  0.00  0.00    +0.000 C 
BRANCH  14  16
ATOM     16  O   UNL     1      -3.882  15.220  21.098  0.00  0.00    +0.000 OA
ATOM     17  H   UNL     1      -4.258  16.107  21.215  0.00  0.00    +0.000 HD
ENDBRANCH  14  16
BRANCH  14  18
ATOM     18  C   UNL     1      -5.430  13.807  22.385  0.00  0.00    +0.000 C 
BRANCH  18  19
ATOM     19  N   UNL     1      -6.096  13.524  21.080  0.00  0.00    +0.000 NA
ATOM     20  C   UNL     1      -5.953  12.120  20.686  0.00  0.00    +0.000 C 
ATOM     21  C   UNL     1      -7.520  13.856  21.172  0.00  0.00    +0.000 C 
ENDBRANCH  18  19
ENDBRANCH  14  18
ENDBRANCH  10  14
BRANCH   1  22
ATOM     22  C   UNL     1      -1.028  10.237  17.700  0.00  0.00    +0.000 C 
BRANCH  22  23
ATOM     23  C   UNL     1      -2.483   9.828  17.956  0.00  0.00    +0.000 C 
BRANCH  23  25
ATOM     24  C   UNL     1      -4.310  11.355  17.153  0.00  0.00    +0.000 C 
ATOM     25  C   UNL     1      -3.434  10.153  16.788  0.00  0.00    +0.000 C 
ATOM     26  C   UNL     1      -2.690  10.437  15.484  0.00  0.00    +0.000 C 
ENDBRANCH  23  25
ENDBRANCH  22  23
ENDBRANCH   1  22
TORSDOF 7
ENDMDL
