MODEL 1
REMARK VINA RESULT:      -7.9      0.000      0.000
REMARK  Name = 
REMARK  4 active torsions:
REMARK  status: ('A' for Active; 'I' for Inactive)
REMARK    1  A    between atoms: C_15  and  O_16
REMARK    2  A    between atoms: C_17  and  S_18
REMARK    3  A    between atoms: S_18  and  C_19
REMARK    4  A    between atoms: C_19  and  C_20
REMARK                            x       y       z     vdW  Elec       q    Type
REMARK                         _______ _______ _______ _____ _____    ______ ____
ROOT
ATOM      1  O   UNL     1       1.907   3.007  16.713  0.00  0.00    +0.000 OA
ATOM      2  C   UNL     1       2.590   3.551  17.580  0.00  0.00    +0.000 C 
ATOM      3  C   UNL     1       2.031   4.642  18.401  0.00  0.00    +0.000 C 
ATOM      4  C   UNL     1       3.152   5.338  19.209  0.00  0.00    +0.000 C 
ATOM      5  C   UNL     1       2.412   6.599  19.762  0.00  0.00    +0.000 C 
ATOM      6  C   UNL     1       2.109   7.573  18.564  0.00  0.00    +0.000 C 
ATOM      7  C   UNL     1       3.360   8.048  17.818  0.00  0.00    +0.000 C 
ATOM      8  C   UNL     1       4.500   7.066  17.828  0.00  0.00    +0.000 A 
ATOM      9  C   UNL     1       5.695   7.407  17.161  0.00  0.00    +0.000 A 
ATOM     10  C   UNL     1       6.870   6.703  17.388  0.00  0.00    +0.000 A 
ATOM     11  C   UNL     1       6.912   5.764  18.397  0.00  0.00    +0.000 A 
ATOM     12  C   UNL     1       5.742   5.487  19.087  0.00  0.00    +0.000 A 
ATOM     13  C   UNL     1       4.474   5.953  18.666  0.00  0.00    +0.000 A 
ATOM     14  O   UNL     1       3.520   4.195  20.076  0.00  0.00    +0.000 OA
ATOM     15  C   UNL     1       4.179   3.171  19.275  0.00  0.00    +0.000 C 
ATOM     16  C   UNL     1       3.949   3.079  17.935  0.00  0.00    +0.000 C 
ENDROOT
BRANCH  15  17
ATOM     17  O   UNL     1       5.241   2.550  19.897  0.00  0.00    +0.000 OA
ATOM     18  H   UNL     1       4.929   1.630  20.018  0.00  0.00    +0.000 HD
ENDBRANCH  15  17
BRANCH  16  19
ATOM     19  S   UNL     1       4.912   2.914  16.498  0.00  0.00    +0.000 S 
BRANCH  19  20
ATOM     20  C   UNL     1       4.993   4.353  15.456  0.00  0.00    +0.000 C 
BRANCH  20  21
ATOM     21  C   UNL     1       5.825   4.205  14.163  0.00  0.00    +0.000 A 
ATOM     22  C   UNL     1       5.507   3.401  13.053  0.00  0.00    +0.000 A 
ATOM     23  C   UNL     1       6.329   3.372  11.906  0.00  0.00    +0.000 A 
ATOM     24  C   UNL     1       7.472   4.166  11.834  0.00  0.00    +0.000 A 
ATOM     25  C   UNL     1       7.784   4.988  12.915  0.00  0.00    +0.000 A 
ATOM     26  C   UNL     1       6.983   5.002  14.052  0.00  0.00    +0.000 A 
ENDBRANCH  20  21
ENDBRANCH  19  20
ENDBRANCH  16  19
TORSDOF 4
ENDMDL
MODEL 2
REMARK VINA RESULT:      -6.5      6.494      9.457
REMARK  Name = 
REMARK  4 active torsions:
REMARK  status: ('A' for Active; 'I' for Inactive)
REMARK    1  A    between atoms: C_15  and  O_16
REMARK    2  A    between atoms: C_17  and  S_18
REMARK    3  A    between atoms: S_18  and  C_19
REMARK    4  A    between atoms: C_19  and  C_20
REMARK                            x       y       z     vdW  Elec       q    Type
REMARK                         _______ _______ _______ _____ _____    ______ ____
ROOT
ATOM      1  O   UNL     1      -0.799  10.203  23.504  0.00  0.00    +0.000 OA
ATOM      2  C   UNL     1      -0.807  11.132  22.697  0.00  0.00    +0.000 C 
ATOM      3  C   UNL     1      -1.697  12.292  22.896  0.00  0.00    +0.000 C 
ATOM      4  C   UNL     1      -1.728  13.174  21.625  0.00  0.00    +0.000 C 
ATOM      5  C   UNL     1      -2.910  14.147  21.941  0.00  0.00    +0.000 C 
ATOM      6  C   UNL     1      -4.257  13.335  21.906  0.00  0.00    +0.000 C 
ATOM      7  C   UNL     1      -4.543  12.664  20.559  0.00  0.00    +0.000 C 
ATOM      8  C   UNL     1      -3.313  12.274  19.785  0.00  0.00    +0.000 A 
ATOM      9  C   UNL     1      -3.471  11.642  18.534  0.00  0.00    +0.000 A 
ATOM     10  C   UNL     1      -2.412  11.540  17.642  0.00  0.00    +0.000 A 
ATOM     11  C   UNL     1      -1.234  12.207  17.910  0.00  0.00    +0.000 A 
ATOM     12  C   UNL     1      -1.119  12.879  19.118  0.00  0.00    +0.000 A 
ATOM     13  C   UNL     1      -2.055  12.732  20.170  0.00  0.00    +0.000 A 
ATOM     14  O   UNL     1      -0.314  13.614  21.647  0.00  0.00    +0.000 OA
ATOM     15  C   UNL     1       0.551  12.485  21.331  0.00  0.00    +0.000 C 
ATOM     16  C   UNL     1       0.140  11.206  21.559  0.00  0.00    +0.000 C 
ENDROOT
BRANCH  15  17
ATOM     17  O   UNL     1       1.627  12.794  20.526  0.00  0.00    +0.000 OA
ATOM     18  H   UNL     1       2.401  12.540  21.070  0.00  0.00    +0.000 HD
ENDBRANCH  15  17
BRANCH  16  19
ATOM     19  S   UNL     1       0.123   9.710  20.677  0.00  0.00    +0.000 S 
BRANCH  19  20
ATOM     20  C   UNL     1       1.231   8.453  21.271  0.00  0.00    +0.000 C 
BRANCH  20  21
ATOM     21  C   UNL     1       1.753   7.456  20.213  0.00  0.00    +0.000 A 
ATOM     22  C   UNL     1       2.280   7.780  18.948  0.00  0.00    +0.000 A 
ATOM     23  C   UNL     1       2.761   6.781  18.074  0.00  0.00    +0.000 A 
ATOM     24  C   UNL     1       2.749   5.442  18.454  0.00  0.00    +0.000 A 
ATOM     25  C   UNL     1       2.255   5.109  19.714  0.00  0.00    +0.000 A 
ATOM     26  C   UNL     1       1.764   6.091  20.568  0.00  0.00    +0.000 A 
ENDBRANCH  20  21
ENDBRANCH  19  20
ENDBRANCH  16  19
TORSDOF 4
ENDMDL
MODEL 3
REMARK VINA RESULT:      -6.4      7.737     11.908
REMARK  Name = 
REMARK  4 active torsions:
REMARK  status: ('A' for Active; 'I' for Inactive)
REMARK    1  A    between atoms: C_15  and  O_16
REMARK    2  A    between atoms: C_17  and  S_18
REMARK    3  A    between atoms: S_18  and  C_19
REMARK    4  A    between atoms: C_19  and  C_20
REMARK                            x       y       z     vdW  Elec       q    Type
REMARK                         _______ _______ _______ _____ _____    ______ ____
ROOT
ATOM      1  O   UNL     1      -2.614   9.999  17.258  0.00  0.00    +0.000 OA
ATOM      2  C   UNL     1      -1.770  10.586  17.935  0.00  0.00    +0.000 C 
ATOM      3  C   UNL     1      -0.400  10.050  18.055  0.00  0.00    +0.000 C 
ATOM      4  C   UNL     1       0.377  10.797  19.165  0.00  0.00    +0.000 C 
ATOM      5  C   UNL     1       1.655   9.909  19.313  0.00  0.00    +0.000 C 
ATOM      6  C   UNL     1       1.243   8.534  19.959  0.00  0.00    +0.000 C 
ATOM      7  C   UNL     1       0.596   8.666  21.340  0.00  0.00    +0.000 C 
ATOM      8  C   UNL     1      -0.164   9.948  21.552  0.00  0.00    +0.000 A 
ATOM      9  C   UNL     1      -0.804  10.161  22.790  0.00  0.00    +0.000 A 
ATOM     10  C   UNL     1      -1.247  11.424  23.162  0.00  0.00    +0.000 A 
ATOM     11  C   UNL     1      -0.914  12.514  22.385  0.00  0.00    +0.000 A 
ATOM     12  C   UNL     1      -0.227  12.292  21.201  0.00  0.00    +0.000 A 
ATOM     13  C   UNL     1      -0.047  11.002  20.647  0.00  0.00    +0.000 A 
ATOM     14  O   UNL     1       0.413  12.133  18.527  0.00  0.00    +0.000 OA
ATOM     15  C   UNL     1      -0.928  12.704  18.521  0.00  0.00    +0.000 C 
ATOM     16  C   UNL     1      -2.029  11.901  18.565  0.00  0.00    +0.000 C 
ENDROOT
BRANCH  15  17
ATOM     17  O   UNL     1      -0.977  14.057  18.781  0.00  0.00    +0.000 OA
ATOM     18  H   UNL     1      -0.683  14.463  17.940  0.00  0.00    +0.000 HD
ENDBRANCH  15  17
BRANCH  16  19
ATOM     19  S   UNL     1      -3.513  11.845  19.465  0.00  0.00    +0.000 S 
BRANCH  19  20
ATOM     20  C   UNL     1      -3.815  13.228  20.541  0.00  0.00    +0.000 C 
BRANCH  20  21
ATOM     21  C   UNL     1      -4.911  13.027  21.610  0.00  0.00    +0.000 A 
ATOM     22  C   UNL     1      -6.254  12.675  21.374  0.00  0.00    +0.000 A 
ATOM     23  C   UNL     1      -7.162  12.483  22.437  0.00  0.00    +0.000 A 
ATOM     24  C   UNL     1      -6.742  12.614  23.759  0.00  0.00    +0.000 A 
ATOM     25  C   UNL     1      -5.410  12.936  24.008  0.00  0.00    +0.000 A 
ATOM     26  C   UNL     1      -4.519  13.143  22.959  0.00  0.00    +0.000 A 
ENDBRANCH  20  21
ENDBRANCH  19  20
ENDBRANCH  16  19
TORSDOF 4
ENDMDL
MODEL 4
REMARK VINA RESULT:      -6.3      2.792      6.192
REMARK  Name = 
REMARK  4 active torsions:
REMARK  status: ('A' for Active; 'I' for Inactive)
REMARK    1  A    between atoms: C_15  and  O_16
REMARK    2  A    between atoms: C_17  and  S_18
REMARK    3  A    between atoms: S_18  and  C_19
REMARK    4  A    between atoms: C_19  and  C_20
REMARK                            x       y       z     vdW  Elec       q    Type
REMARK                         _______ _______ _______ _____ _____    ______ ____
ROOT
ATOM      1  O   UNL     1       4.857   5.618  15.651  0.00  0.00    +0.000 OA
ATOM      2  C   UNL     1       4.810   5.049  16.741  0.00  0.00    +0.000 C 
ATOM      3  C   UNL     1       4.505   3.607  16.822  0.00  0.00    +0.000 C 
ATOM      4  C   UNL     1       4.229   3.196  18.288  0.00  0.00    +0.000 C 
ATOM      5  C   UNL     1       3.664   1.748  18.112  0.00  0.00    +0.000 C 
ATOM      6  C   UNL     1       2.244   1.838  17.441  0.00  0.00    +0.000 C 
ATOM      7  C   UNL     1       1.226   2.649  18.248  0.00  0.00    +0.000 C 
ATOM      8  C   UNL     1       1.826   3.749  19.080  0.00  0.00    +0.000 A 
ATOM      9  C   UNL     1       0.969   4.558  19.855  0.00  0.00    +0.000 A 
ATOM     10  C   UNL     1       1.466   5.370  20.866  0.00  0.00    +0.000 A 
ATOM     11  C   UNL     1       2.793   5.262  21.228  0.00  0.00    +0.000 A 
ATOM     12  C   UNL     1       3.608   4.412  20.497  0.00  0.00    +0.000 A 
ATOM     13  C   UNL     1       3.204   3.824  19.274  0.00  0.00    +0.000 A 
ATOM     14  O   UNL     1       5.582   3.455  18.831  0.00  0.00    +0.000 OA
ATOM     15  C   UNL     1       5.827   4.891  18.857  0.00  0.00    +0.000 C 
ATOM     16  C   UNL     1       5.165   5.728  18.009  0.00  0.00    +0.000 C 
ENDROOT
BRANCH  15  17
ATOM     17  O   UNL     1       6.506   5.338  19.971  0.00  0.00    +0.000 OA
ATOM     18  H   UNL     1       6.965   4.536  20.297  0.00  0.00    +0.000 HD
ENDBRANCH  15  17
BRANCH  16  19
ATOM     19  S   UNL     1       4.306   7.232  18.136  0.00  0.00    +0.000 S 
BRANCH  19  20
ATOM     20  C   UNL     1       2.542   7.131  17.934  0.00  0.00    +0.000 C 
BRANCH  20  21
ATOM     21  C   UNL     1       1.727   8.311  18.508  0.00  0.00    +0.000 A 
ATOM     22  C   UNL     1       1.009   9.268  17.768  0.00  0.00    +0.000 A 
ATOM     23  C   UNL     1       0.267  10.287  18.405  0.00  0.00    +0.000 A 
ATOM     24  C   UNL     1       0.208  10.354  19.795  0.00  0.00    +0.000 A 
ATOM     25  C   UNL     1       0.893   9.397  20.541  0.00  0.00    +0.000 A 
ATOM     26  C   UNL     1       1.638   8.404  19.912  0.00  0.00    +0.000 A 
ENDBRANCH  20  21
ENDBRANCH  19  20
ENDBRANCH  16  19
TORSDOF 4
ENDMDL
MODEL 5
REMARK VINA RESULT:      -6.3      6.261      9.294
REMARK  Name = 
REMARK  4 active torsions:
REMARK  status: ('A' for Active; 'I' for Inactive)
REMARK    1  A    between atoms: C_15  and  O_16
REMARK    2  A    between atoms: C_17  and  S_18
REMARK    3  A    between atoms: S_18  and  C_19
REMARK    4  A    between atoms: C_19  and  C_20
REMARK                            x       y       z     vdW  Elec       q    Type
REMARK                         _______ _______ _______ _____ _____    ______ ____
ROOT
ATOM      1  O   UNL     1      -0.271  10.966  23.185  0.00  0.00    +0.000 OA
ATOM      2  C   UNL     1      -0.362  11.600  22.134  0.00  0.00    +0.000 C 
ATOM      3  C   UNL     1      -1.104  12.875  22.089  0.00  0.00    +0.000 C 
ATOM      4  C   UNL     1      -1.311  13.327  20.623  0.00  0.00    +0.000 C 
ATOM      5  C   UNL     1      -2.331  14.500  20.792  0.00  0.00    +0.000 C 
ATOM      6  C   UNL     1      -3.718  13.904  21.234  0.00  0.00    +0.000 C 
ATOM      7  C   UNL     1      -4.309  12.902  20.237  0.00  0.00    +0.000 C 
ATOM      8  C   UNL     1      -3.285  12.135  19.445  0.00  0.00    +0.000 A 
ATOM      9  C   UNL     1      -3.729  11.182  18.505  0.00  0.00    +0.000 A 
ATOM     10  C   UNL     1      -2.873  10.674  17.537  0.00  0.00    +0.000 A 
ATOM     11  C   UNL     1      -1.618  11.227  17.387  0.00  0.00    +0.000 A 
ATOM     12  C   UNL     1      -1.221  12.209  18.281  0.00  0.00    +0.000 A 
ATOM     13  C   UNL     1      -1.945  12.514  19.459  0.00  0.00    +0.000 A 
ATOM     14  O   UNL     1       0.111  13.560  20.279  0.00  0.00    +0.000 OA
ATOM     15  C   UNL     1       0.809  12.282  20.210  0.00  0.00    +0.000 C 
ATOM     16  C   UNL     1       0.351  11.199  20.898  0.00  0.00    +0.000 C 
ENDROOT
BRANCH  15  17
ATOM     17  O   UNL     1       1.730  12.185  19.189  0.00  0.00    +0.000 OA
ATOM     18  H   UNL     1       1.182  11.971  18.406  0.00  0.00    +0.000 HD
ENDBRANCH  15  17
BRANCH  16  19
ATOM     19  S   UNL     1       0.048   9.523  20.558  0.00  0.00    +0.000 S 
BRANCH  19  20
ATOM     20  C   UNL     1       1.195   8.371  21.279  0.00  0.00    +0.000 C 
BRANCH  20  21
ATOM     21  C   UNL     1       1.733   7.272  20.336  0.00  0.00    +0.000 A 
ATOM     22  C   UNL     1       1.708   5.885  20.571  0.00  0.00    +0.000 A 
ATOM     23  C   UNL     1       2.199   4.968  19.616  0.00  0.00    +0.000 A 
ATOM     24  C   UNL     1       2.702   5.417  18.397  0.00  0.00    +0.000 A 
ATOM     25  C   UNL     1       2.709   6.787  18.141  0.00  0.00    +0.000 A 
ATOM     26  C   UNL     1       2.241   7.690  19.089  0.00  0.00    +0.000 A 
ENDBRANCH  20  21
ENDBRANCH  19  20
ENDBRANCH  16  19
TORSDOF 4
ENDMDL
MODEL 6
REMARK VINA RESULT:      -6.2      6.671      9.568
REMARK  Name = 
REMARK  4 active torsions:
REMARK  status: ('A' for Active; 'I' for Inactive)
REMARK    1  A    between atoms: C_15  and  O_16
REMARK    2  A    between atoms: C_17  and  S_18
REMARK    3  A    between atoms: S_18  and  C_19
REMARK    4  A    between atoms: C_19  and  C_20
REMARK                            x       y       z     vdW  Elec       q    Type
REMARK                         _______ _______ _______ _____ _____    ______ ____
ROOT
ATOM      1  O   UNL     1      -0.991  10.456  23.549  0.00  0.00    +0.000 OA
ATOM      2  C   UNL     1      -1.025  11.357  22.710  0.00  0.00    +0.000 C 
ATOM      3  C   UNL     1      -1.971  12.481  22.853  0.00  0.00    +0.000 C 
ATOM      4  C   UNL     1      -2.017  13.317  21.552  0.00  0.00    +0.000 C 
ATOM      5  C   UNL     1      -3.248  14.245  21.813  0.00  0.00    +0.000 C 
ATOM      6  C   UNL     1      -4.555  13.370  21.781  0.00  0.00    +0.000 C 
ATOM      7  C   UNL     1      -4.783  12.642  20.452  0.00  0.00    +0.000 C 
ATOM      8  C   UNL     1      -3.522  12.284  19.715  0.00  0.00    +0.000 A 
ATOM      9  C   UNL     1      -3.625  11.604  18.483  0.00  0.00    +0.000 A 
ATOM     10  C   UNL     1      -2.545  11.522  17.615  0.00  0.00    +0.000 A 
ATOM     11  C   UNL     1      -1.405  12.252  17.883  0.00  0.00    +0.000 A 
ATOM     12  C   UNL     1      -1.345  12.967  19.068  0.00  0.00    +0.000 A 
ATOM     13  C   UNL     1      -2.294  12.812  20.108  0.00  0.00    +0.000 A 
ATOM     14  O   UNL     1      -0.625  13.823  21.585  0.00  0.00    +0.000 OA
ATOM     15  C   UNL     1       0.297  12.725  21.324  0.00  0.00    +0.000 C 
ATOM     16  C   UNL     1      -0.060  11.437  21.588  0.00  0.00    +0.000 C 
ENDROOT
BRANCH  15  17
ATOM     17  O   UNL     1       1.373  13.056  20.529  0.00  0.00    +0.000 OA
ATOM     18  H   UNL     1       1.907  13.646  21.100  0.00  0.00    +0.000 HD
ENDBRANCH  15  17
BRANCH  16  19
ATOM     19  S   UNL     1       0.009   9.913  20.757  0.00  0.00    +0.000 S 
BRANCH  19  20
ATOM     20  C   UNL     1       1.097   9.850  19.352  0.00  0.00    +0.000 C 
BRANCH  20  21
ATOM     21  C   UNL     1       1.875   8.531  19.157  0.00  0.00    +0.000 A 
ATOM     22  C   UNL     1       1.959   7.467  20.076  0.00  0.00    +0.000 A 
ATOM     23  C   UNL     1       2.674   6.289  19.773  0.00  0.00    +0.000 A 
ATOM     24  C   UNL     1       3.299   6.137  18.538  0.00  0.00    +0.000 A 
ATOM     25  C   UNL     1       3.202   7.171  17.608  0.00  0.00    +0.000 A 
ATOM     26  C   UNL     1       2.512   8.340  17.914  0.00  0.00    +0.000 A 
ENDBRANCH  20  21
ENDBRANCH  19  20
ENDBRANCH  16  19
TORSDOF 4
ENDMDL
MODEL 7
REMARK VINA RESULT:      -6.2      7.443     11.597
REMARK  Name = 
REMARK  4 active torsions:
REMARK  status: ('A' for Active; 'I' for Inactive)
REMARK    1  A    between atoms: C_15  and  O_16
REMARK    2  A    between atoms: C_17  and  S_18
REMARK    3  A    between atoms: S_18  and  C_19
REMARK    4  A    between atoms: C_19  and  C_20
REMARK                            x       y       z     vdW  Elec       q    Type
REMARK                         _______ _______ _______ _____ _____    ______ ____
ROOT
ATOM      1  O   UNL     1      -2.548   9.923  17.177  0.00  0.00    +0.000 OA
ATOM      2  C   UNL     1      -1.713  10.505  17.870  0.00  0.00    +0.000 C 
ATOM      3  C   UNL     1      -0.323  10.015  17.940  0.00  0.00    +0.000 C 
ATOM      4  C   UNL     1       0.446  10.732  19.075  0.00  0.00    +0.000 C 
ATOM      5  C   UNL     1       1.758   9.885  19.156  0.00  0.00    +0.000 C 
ATOM      6  C   UNL     1       1.407   8.466  19.737  0.00  0.00    +0.000 C 
ATOM      7  C   UNL     1       0.780   8.503  21.134  0.00  0.00    +0.000 C 
ATOM      8  C   UNL     1      -0.020   9.744  21.423  0.00  0.00    +0.000 A 
ATOM      9  C   UNL     1      -0.645   9.871  22.681  0.00  0.00    +0.000 A 
ATOM     10  C   UNL     1      -1.127  11.095  23.124  0.00  0.00    +0.000 A 
ATOM     11  C   UNL     1      -0.847  12.235  22.399  0.00  0.00    +0.000 A 
ATOM     12  C   UNL     1      -0.174  12.099  21.194  0.00  0.00    +0.000 A 
ATOM     13  C   UNL     1       0.042  10.846  20.572  0.00  0.00    +0.000 A 
ATOM     14  O   UNL     1       0.423  12.099  18.505  0.00  0.00    +0.000 OA
ATOM     15  C   UNL     1      -0.937  12.620  18.550  0.00  0.00    +0.000 C 
ATOM     16  C   UNL     1      -2.007  11.777  18.571  0.00  0.00    +0.000 C 
ENDROOT
BRANCH  15  17
ATOM     17  O   UNL     1      -1.030  13.956  18.881  0.00  0.00    +0.000 OA
ATOM     18  H   UNL     1      -1.000  14.409  18.013  0.00  0.00    +0.000 HD
ENDBRANCH  15  17
BRANCH  16  19
ATOM     19  S   UNL     1      -3.473  11.620  19.491  0.00  0.00    +0.000 S 
BRANCH  19  20
ATOM     20  C   UNL     1      -4.237  13.148  19.987  0.00  0.00    +0.000 C 
BRANCH  20  21
ATOM     21  C   UNL     1      -4.056  13.545  21.468  0.00  0.00    +0.000 A 
ATOM     22  C   UNL     1      -4.460  12.796  22.590  0.00  0.00    +0.000 A 
ATOM     23  C   UNL     1      -4.208  13.245  23.904  0.00  0.00    +0.000 A 
ATOM     24  C   UNL     1      -3.525  14.438  24.126  0.00  0.00    +0.000 A 
ATOM     25  C   UNL     1      -3.095  15.177  23.025  0.00  0.00    +0.000 A 
ATOM     26  C   UNL     1      -3.359  14.743  21.730  0.00  0.00    +0.000 A 
ENDBRANCH  20  21
ENDBRANCH  19  20
ENDBRANCH  16  19
TORSDOF 4
ENDMDL
MODEL 8
REMARK VINA RESULT:      -6.2      9.155     12.083
REMARK  Name = 
REMARK  4 active torsions:
REMARK  status: ('A' for Active; 'I' for Inactive)
REMARK    1  A    between atoms: C_15  and  O_16
REMARK    2  A    between atoms: C_17  and  S_18
REMARK    3  A    between atoms: S_18  and  C_19
REMARK    4  A    between atoms: C_19  and  C_20
REMARK                            x       y       z     vdW  Elec       q    Type
REMARK                         _______ _______ _______ _____ _____    ______ ____
ROOT
ATOM      1  O   UNL     1       6.507  14.203  17.338  0.00  0.00    +0.000 OA
ATOM      2  C   UNL     1       7.637  14.222  17.825  0.00  0.00    +0.000 C 
ATOM      3  C   UNL     1       8.547  13.073  17.655  0.00  0.00    +0.000 C 
ATOM      4  C   UNL     1       9.779  13.218  18.580  0.00  0.00    +0.000 C 
ATOM      5  C   UNL     1      10.439  11.806  18.457  0.00  0.00    +0.000 C 
ATOM      6  C   UNL     1       9.515  10.752  19.171  0.00  0.00    +0.000 C 
ATOM      7  C   UNL     1       9.282  11.037  20.658  0.00  0.00    +0.000 C 
ATOM      8  C   UNL     1       9.323  12.495  21.026  0.00  0.00    +0.000 A 
ATOM      9  C   UNL     1       9.112  12.863  22.371  0.00  0.00    +0.000 A 
ATOM     10  C   UNL     1       9.440  14.132  22.829  0.00  0.00    +0.000 A 
ATOM     11  C   UNL     1      10.130  14.993  22.001  0.00  0.00    +0.000 A 
ATOM     12  C   UNL     1      10.386  14.590  20.700  0.00  0.00    +0.000 A 
ATOM     13  C   UNL     1       9.790  13.445  20.119  0.00  0.00    +0.000 A 
ATOM     14  O   UNL     1      10.367  14.423  17.951  0.00  0.00    +0.000 OA
ATOM     15  C   UNL     1       9.520  15.576  18.226  0.00  0.00    +0.000 C 
ATOM     16  C   UNL     1       8.194  15.419  18.498  0.00  0.00    +0.000 C 
ENDROOT
BRANCH  15  17
ATOM     17  O   UNL     1      10.206  16.742  18.493  0.00  0.00    +0.000 OA
ATOM     18  H   UNL     1      10.758  16.510  19.268  0.00  0.00    +0.000 HD
ENDBRANCH  15  17
BRANCH  16  19
ATOM     19  S   UNL     1       7.072  16.005  19.687  0.00  0.00    +0.000 S 
BRANCH  19  20
ATOM     20  C   UNL     1       6.005  14.779  20.410  0.00  0.00    +0.000 C 
BRANCH  20  21
ATOM     21  C   UNL     1       5.979  14.730  21.953  0.00  0.00    +0.000 A 
ATOM     22  C   UNL     1       5.639  13.619  22.748  0.00  0.00    +0.000 A 
ATOM     23  C   UNL     1       5.684  13.682  24.158  0.00  0.00    +0.000 A 
ATOM     24  C   UNL     1       6.095  14.847  24.802  0.00  0.00    +0.000 A 
ATOM     25  C   UNL     1       6.460  15.946  24.027  0.00  0.00    +0.000 A 
ATOM     26  C   UNL     1       6.398  15.889  22.638  0.00  0.00    +0.000 A 
ENDBRANCH  20  21
ENDBRANCH  19  20
ENDBRANCH  16  19
TORSDOF 4
ENDMDL
MODEL 9
REMARK VINA RESULT:      -6.2      8.709     11.787
REMARK  Name = 
REMARK  4 active torsions:
REMARK  status: ('A' for Active; 'I' for Inactive)
REMARK    1  A    between atoms: C_15  and  O_16
REMARK    2  A    between atoms: C_17  and  S_18
REMARK    3  A    between atoms: S_18  and  C_19
REMARK    4  A    between atoms: C_19  and  C_20
REMARK                            x       y       z     vdW  Elec       q    Type
REMARK                         _______ _______ _______ _____ _____    ______ ____
ROOT
ATOM      1  O   UNL     1      12.063  11.706  20.874  0.00  0.00    +0.000 OA
ATOM      2  C   UNL     1      11.403  11.842  19.843  0.00  0.00    +0.000 C 
ATOM      3  C   UNL     1      12.041  12.320  18.602  0.00  0.00    +0.000 C 
ATOM      4  C   UNL     1      10.968  12.671  17.544  0.00  0.00    +0.000 C 
ATOM      5  C   UNL     1      11.819  13.404  16.456  0.00  0.00    +0.000 C 
ATOM      6  C   UNL     1      12.291  14.790  17.032  0.00  0.00    +0.000 C 
ATOM      7  C   UNL     1      11.142  15.717  17.438  0.00  0.00    +0.000 C 
ATOM      8  C   UNL     1       9.898  15.004  17.894  0.00  0.00    +0.000 A 
ATOM      9  C   UNL     1       8.785  15.771  18.297  0.00  0.00    +0.000 A 
ATOM     10  C   UNL     1       7.527  15.198  18.428  0.00  0.00    +0.000 A 
ATOM     11  C   UNL     1       7.327  13.901  18.002  0.00  0.00    +0.000 A 
ATOM     12  C   UNL     1       8.421  13.182  17.548  0.00  0.00    +0.000 A 
ATOM     13  C   UNL     1       9.755  13.632  17.704  0.00  0.00    +0.000 A 
ATOM     14  O   UNL     1      10.429  11.307  17.339  0.00  0.00    +0.000 OA
ATOM     15  C   UNL     1       9.699  10.890  18.529  0.00  0.00    +0.000 C 
ATOM     16  C   UNL     1       9.983  11.431  19.748  0.00  0.00    +0.000 C 
ENDROOT
BRANCH  15  17
ATOM     17  O   UNL     1       8.542  10.184  18.275  0.00  0.00    +0.000 OA
ATOM     18  H   UNL     1       8.164  10.035  19.166  0.00  0.00    +0.000 HD
ENDBRANCH  15  17
BRANCH  16  19
ATOM     19  S   UNL     1       9.082  12.103  21.071  0.00  0.00    +0.000 S 
BRANCH  19  20
ATOM     20  C   UNL     1       9.551  13.745  21.568  0.00  0.00    +0.000 C 
BRANCH  20  21
ATOM     21  C   UNL     1       8.391  14.728  21.836  0.00  0.00    +0.000 A 
ATOM     22  C   UNL     1       8.492  16.127  21.957  0.00  0.00    +0.000 A 
ATOM     23  C   UNL     1       7.352  16.932  22.169  0.00  0.00    +0.000 A 
ATOM     24  C   UNL     1       6.084  16.359  22.240  0.00  0.00    +0.000 A 
ATOM     25  C   UNL     1       5.966  14.978  22.096  0.00  0.00    +0.000 A 
ATOM     26  C   UNL     1       7.092  14.183  21.905  0.00  0.00    +0.000 A 
ENDBRANCH  20  21
ENDBRANCH  19  20
ENDBRANCH  16  19
TORSDOF 4
ENDMDL
