MODEL 1
REMARK VINA RESULT:      -6.0      0.000      0.000
REMARK  Name = 
REMARK  5 active torsions:
REMARK  status: ('A' for Active; 'I' for Inactive)
REMARK    1  A    between atoms: N_1  and  C_2
REMARK    2  A    between atoms: C_2  and  C_3
REMARK    3  A    between atoms: C_3  and  C_4
REMARK    4  A    between atoms: C_4  and  C_5
REMARK    5  A    between atoms: C_5  and  O_7
REMARK                            x       y       z     vdW  Elec       q    Type
REMARK                         _______ _______ _______ _____ _____    ______ ____
ROOT
ATOM      1  C   UNL     1       5.117   4.798  17.896  0.00  0.00    +0.000 C 
ATOM      2  C   UNL     1       4.790   3.662  18.891  0.00  0.00    +0.000 C 
ATOM      3  C   UNL     1       3.490   3.051  18.364  0.00  0.00    +0.000 C 
ATOM      4  C   UNL     1       2.215   3.183  19.237  0.00  0.00    +0.000 C 
ATOM      5  C   UNL     1       1.496   3.804  18.030  0.00  0.00    +0.000 C 
ATOM      6  C   UNL     1       2.870   4.091  17.397  0.00  0.00    +0.000 C 
ATOM      7  C   UNL     1       3.690   5.358  17.646  0.00  0.00    +0.000 C 
ENDROOT
BRANCH   1   8
ATOM      8  C   UNL     1       6.050   5.845  18.538  0.00  0.00    +0.000 C 
BRANCH   8   9
ATOM      9  N   UNL     1       6.759   5.305  19.703  0.00  0.00    +0.000 NA
ATOM     10  H   UNL     1       7.708   5.053  19.410  0.00  0.00    +0.000 HD
ATOM     11  H   UNL     1       6.334   4.406  19.953  0.00  0.00    +0.000 HD
ENDBRANCH   8   9
ENDBRANCH   1   8
BRANCH   1  12
ATOM     12  C   UNL     1       5.708   4.245  16.568  0.00  0.00    +0.000 C 
BRANCH  12  13
ATOM     13  C   UNL     1       7.123   4.690  16.281  0.00  0.00    +0.000 C 
ATOM     14  O   UNL     1       7.423   5.506  15.424  0.00  0.00    +0.000 OA
BRANCH  13  15
ATOM     15  O   UNL     1       8.040   4.090  17.064  0.00  0.00    +0.000 OA
ATOM     16  H   UNL     1       8.340   4.682  17.793  0.00  0.00    +0.000 HD
ENDBRANCH  13  15
ENDBRANCH  12  13
ENDBRANCH   1  12
TORSDOF 5
ENDMDL
MODEL 2
REMARK VINA RESULT:      -5.8      1.663      1.998
REMARK  Name = 
REMARK  5 active torsions:
REMARK  status: ('A' for Active; 'I' for Inactive)
REMARK    1  A    between atoms: N_1  and  C_2
REMARK    2  A    between atoms: C_2  and  C_3
REMARK    3  A    between atoms: C_3  and  C_4
REMARK    4  A    between atoms: C_4  and  C_5
REMARK    5  A    between atoms: C_5  and  O_7
REMARK                            x       y       z     vdW  Elec       q    Type
REMARK                         _______ _______ _______ _____ _____    ______ ____
ROOT
ATOM      1  C   UNL     1       4.644   5.171  18.345  0.00  0.00    +0.000 C 
ATOM      2  C   UNL     1       4.582   3.917  17.444  0.00  0.00    +0.000 C 
ATOM      3  C   UNL     1       3.092   3.731  17.146  0.00  0.00    +0.000 C 
ATOM      4  C   UNL     1       2.389   2.464  17.698  0.00  0.00    +0.000 C 
ATOM      5  C   UNL     1       1.344   3.375  18.358  0.00  0.00    +0.000 C 
ATOM      6  C   UNL     1       2.320   4.556  18.206  0.00  0.00    +0.000 C 
ATOM      7  C   UNL     1       3.392   4.930  19.231  0.00  0.00    +0.000 C 
ENDROOT
BRANCH   1   8
ATOM      8  C   UNL     1       5.947   5.195  19.170  0.00  0.00    +0.000 C 
BRANCH   8   9
ATOM      9  N   UNL     1       6.992   4.360  18.568  0.00  0.00    +0.000 NA
ATOM     10  H   UNL     1       7.869   4.536  19.068  0.00  0.00    +0.000 HD
ATOM     11  H   UNL     1       7.176   4.705  17.621  0.00  0.00    +0.000 HD
ENDBRANCH   8   9
ENDBRANCH   1   8
BRANCH   1  12
ATOM     12  C   UNL     1       4.465   6.478  17.522  0.00  0.00    +0.000 C 
BRANCH  12  13
ATOM     13  C   UNL     1       5.563   6.738  16.517  0.00  0.00    +0.000 C 
ATOM     14  O   UNL     1       6.696   7.080  16.815  0.00  0.00    +0.000 OA
BRANCH  13  15
ATOM     15  O   UNL     1       5.170   6.564  15.240  0.00  0.00    +0.000 OA
ATOM     16  H   UNL     1       5.923   6.304  14.660  0.00  0.00    +0.000 HD
ENDBRANCH  13  15
ENDBRANCH  12  13
ENDBRANCH   1  12
TORSDOF 5
ENDMDL
MODEL 3
REMARK VINA RESULT:      -5.8      1.896      2.365
REMARK  Name = 
REMARK  5 active torsions:
REMARK  status: ('A' for Active; 'I' for Inactive)
REMARK    1  A    between atoms: N_1  and  C_2
REMARK    2  A    between atoms: C_2  and  C_3
REMARK    3  A    between atoms: C_3  and  C_4
REMARK    4  A    between atoms: C_4  and  C_5
REMARK    5  A    between atoms: C_5  and  O_7
REMARK                            x       y       z     vdW  Elec       q    Type
REMARK                         _______ _______ _______ _____ _____    ______ ____
ROOT
ATOM      1  C   UNL     1       4.905   5.642  17.675  0.00  0.00    +0.000 C 
ATOM      2  C   UNL     1       3.485   6.053  18.126  0.00  0.00    +0.000 C 
ATOM      3  C   UNL     1       2.818   4.739  18.540  0.00  0.00    +0.000 C 
ATOM      4  C   UNL     1       1.610   4.239  17.707  0.00  0.00    +0.000 C 
ATOM      5  C   UNL     1       2.340   2.901  17.517  0.00  0.00    +0.000 C 
ATOM      6  C   UNL     1       3.656   3.598  17.911  0.00  0.00    +0.000 C 
ATOM      7  C   UNL     1       4.581   4.319  16.930  0.00  0.00    +0.000 C 
ENDROOT
BRANCH   1   8
ATOM      8  C   UNL     1       5.517   6.704  16.739  0.00  0.00    +0.000 C 
BRANCH   8   9
ATOM      9  N   UNL     1       5.605   6.228  15.355  0.00  0.00    +0.000 NA
ATOM     10  H   UNL     1       6.454   6.620  14.936  0.00  0.00    +0.000 HD
ATOM     11  H   UNL     1       4.846   6.657  14.816  0.00  0.00    +0.000 HD
ENDBRANCH   8   9
ENDBRANCH   1   8
BRANCH   1  12
ATOM     12  C   UNL     1       5.830   5.351  18.891  0.00  0.00    +0.000 C 
BRANCH  12  13
ATOM     13  C   UNL     1       7.308   5.410  18.579  0.00  0.00    +0.000 C 
ATOM     14  O   UNL     1       8.020   6.371  18.823  0.00  0.00    +0.000 OA
BRANCH  13  15
ATOM     15  O   UNL     1       7.774   4.292  17.989  0.00  0.00    +0.000 OA
ATOM     16  H   UNL     1       8.059   4.462  17.061  0.00  0.00    +0.000 HD
ENDBRANCH  13  15
ENDBRANCH  12  13
ENDBRANCH   1  12
TORSDOF 5
ENDMDL
MODEL 4
REMARK VINA RESULT:      -5.7      1.863      2.119
REMARK  Name = 
REMARK  5 active torsions:
REMARK  status: ('A' for Active; 'I' for Inactive)
REMARK    1  A    between atoms: N_1  and  C_2
REMARK    2  A    between atoms: C_2  and  C_3
REMARK    3  A    between atoms: C_3  and  C_4
REMARK    4  A    between atoms: C_4  and  C_5
REMARK    5  A    between atoms: C_5  and  O_7
REMARK                            x       y       z     vdW  Elec       q    Type
REMARK                         _______ _______ _______ _____ _____    ______ ____
ROOT
ATOM      1  C   UNL     1       6.559   5.719  17.895  0.00  0.00    +0.000 C 
ATOM      2  C   UNL     1       6.000   5.305  19.275  0.00  0.00    +0.000 C 
ATOM      3  C   UNL     1       4.613   4.734  18.972  0.00  0.00    +0.000 C 
ATOM      4  C   UNL     1       3.375   5.490  19.520  0.00  0.00    +0.000 C 
ATOM      5  C   UNL     1       2.812   5.530  18.092  0.00  0.00    +0.000 C 
ATOM      6  C   UNL     1       4.225   5.233  17.558  0.00  0.00    +0.000 C 
ATOM      7  C   UNL     1       5.275   6.301  17.246  0.00  0.00    +0.000 C 
ENDROOT
BRANCH   1   8
ATOM      8  C   UNL     1       7.670   6.779  18.044  0.00  0.00    +0.000 C 
BRANCH   8   9
ATOM      9  N   UNL     1       7.493   7.892  17.105  0.00  0.00    +0.000 NA
ATOM     10  H   UNL     1       7.315   8.742  17.649  0.00  0.00    +0.000 HD
ATOM     11  H   UNL     1       6.620   7.745  16.589  0.00  0.00    +0.000 HD
ENDBRANCH   8   9
ENDBRANCH   1   8
BRANCH   1  12
ATOM     12  C   UNL     1       7.050   4.487  17.082  0.00  0.00    +0.000 C 
BRANCH  12  13
ATOM     13  C   UNL     1       7.022   4.677  15.584  0.00  0.00    +0.000 C 
ATOM     14  O   UNL     1       7.664   5.530  14.990  0.00  0.00    +0.000 OA
BRANCH  13  15
ATOM     15  O   UNL     1       6.205   3.813  14.951  0.00  0.00    +0.000 OA
ATOM     16  H   UNL     1       5.266   4.111  14.981  0.00  0.00    +0.000 HD
ENDBRANCH  13  15
ENDBRANCH  12  13
ENDBRANCH   1  12
TORSDOF 5
ENDMDL
MODEL 5
REMARK VINA RESULT:      -5.7      2.018      2.510
REMARK  Name = 
REMARK  5 active torsions:
REMARK  status: ('A' for Active; 'I' for Inactive)
REMARK    1  A    between atoms: N_1  and  C_2
REMARK    2  A    between atoms: C_2  and  C_3
REMARK    3  A    between atoms: C_3  and  C_4
REMARK    4  A    between atoms: C_4  and  C_5
REMARK    5  A    between atoms: C_5  and  O_7
REMARK                            x       y       z     vdW  Elec       q    Type
REMARK                         _______ _______ _______ _____ _____    ______ ____
ROOT
ATOM      1  C   UNL     1       5.467   5.101  16.804  0.00  0.00    +0.000 C 
ATOM      2  C   UNL     1       4.459   6.004  17.551  0.00  0.00    +0.000 C 
ATOM      3  C   UNL     1       3.582   5.029  18.340  0.00  0.00    +0.000 C 
ATOM      4  C   UNL     1       2.082   4.926  17.960  0.00  0.00    +0.000 C 
ATOM      5  C   UNL     1       2.263   3.409  17.798  0.00  0.00    +0.000 C 
ATOM      6  C   UNL     1       3.784   3.632  17.700  0.00  0.00    +0.000 C 
ATOM      7  C   UNL     1       4.533   3.928  16.400  0.00  0.00    +0.000 C 
ENDROOT
BRANCH   1   8
ATOM      8  C   UNL     1       6.055   5.827  15.576  0.00  0.00    +0.000 C 
BRANCH   8   9
ATOM      9  N   UNL     1       7.409   5.359  15.261  0.00  0.00    +0.000 NA
ATOM     10  H   UNL     1       8.007   5.542  16.073  0.00  0.00    +0.000 HD
ATOM     11  H   UNL     1       7.799   5.963  14.531  0.00  0.00    +0.000 HD
ENDBRANCH   8   9
ENDBRANCH   1   8
BRANCH   1  12
ATOM     12  C   UNL     1       6.586   4.583  17.751  0.00  0.00    +0.000 C 
BRANCH  12  13
ATOM     13  C   UNL     1       7.186   5.643  18.647  0.00  0.00    +0.000 C 
ATOM     14  O   UNL     1       7.794   6.619  18.238  0.00  0.00    +0.000 OA
BRANCH  13  15
ATOM     15  O   UNL     1       6.993   5.405  19.959  0.00  0.00    +0.000 OA
ATOM     16  H   UNL     1       7.652   5.882  20.515  0.00  0.00    +0.000 HD
ENDBRANCH  13  15
ENDBRANCH  12  13
ENDBRANCH   1  12
TORSDOF 5
ENDMDL
MODEL 6
REMARK VINA RESULT:      -5.7      1.641      2.161
REMARK  Name = 
REMARK  5 active torsions:
REMARK  status: ('A' for Active; 'I' for Inactive)
REMARK    1  A    between atoms: N_1  and  C_2
REMARK    2  A    between atoms: C_2  and  C_3
REMARK    3  A    between atoms: C_3  and  C_4
REMARK    4  A    between atoms: C_4  and  C_5
REMARK    5  A    between atoms: C_5  and  O_7
REMARK                            x       y       z     vdW  Elec       q    Type
REMARK                         _______ _______ _______ _____ _____    ______ ____
ROOT
ATOM      1  C   UNL     1       5.849   5.035  16.822  0.00  0.00    +0.000 C 
ATOM      2  C   UNL     1       4.793   4.013  17.298  0.00  0.00    +0.000 C 
ATOM      3  C   UNL     1       3.511   4.833  17.463  0.00  0.00    +0.000 C 
ATOM      4  C   UNL     1       2.925   4.993  18.889  0.00  0.00    +0.000 C 
ATOM      5  C   UNL     1       2.944   6.515  18.688  0.00  0.00    +0.000 C 
ATOM      6  C   UNL     1       3.941   6.320  17.531  0.00  0.00    +0.000 C 
ATOM      7  C   UNL     1       5.460   6.256  17.698  0.00  0.00    +0.000 C 
ENDROOT
BRANCH   1   8
ATOM      8  C   UNL     1       7.278   4.535  17.120  0.00  0.00    +0.000 C 
BRANCH   8   9
ATOM      9  N   UNL     1       7.641   4.726  18.528  0.00  0.00    +0.000 NA
ATOM     10  H   UNL     1       7.926   3.818  18.910  0.00  0.00    +0.000 HD
ATOM     11  H   UNL     1       6.792   4.956  19.053  0.00  0.00    +0.000 HD
ENDBRANCH   8   9
ENDBRANCH   1   8
BRANCH   1  12
ATOM     12  C   UNL     1       5.670   5.387  15.317  0.00  0.00    +0.000 C 
BRANCH  12  13
ATOM     13  C   UNL     1       6.713   4.782  14.407  0.00  0.00    +0.000 C 
ATOM     14  O   UNL     1       7.719   5.366  14.036  0.00  0.00    +0.000 OA
BRANCH  13  15
ATOM     15  O   UNL     1       6.424   3.522  14.027  0.00  0.00    +0.000 OA
ATOM     16  H   UNL     1       7.241   2.990  13.879  0.00  0.00    +0.000 HD
ENDBRANCH  13  15
ENDBRANCH  12  13
ENDBRANCH   1  12
TORSDOF 5
ENDMDL
MODEL 7
REMARK VINA RESULT:      -5.7      3.468      4.785
REMARK  Name = 
REMARK  5 active torsions:
REMARK  status: ('A' for Active; 'I' for Inactive)
REMARK    1  A    between atoms: N_1  and  C_2
REMARK    2  A    between atoms: C_2  and  C_3
REMARK    3  A    between atoms: C_3  and  C_4
REMARK    4  A    between atoms: C_4  and  C_5
REMARK    5  A    between atoms: C_5  and  O_7
REMARK                            x       y       z     vdW  Elec       q    Type
REMARK                         _______ _______ _______ _____ _____    ______ ____
ROOT
ATOM      1  C   UNL     1       3.540   3.824  19.075  0.00  0.00    +0.000 C 
ATOM      2  C   UNL     1       4.493   5.010  19.345  0.00  0.00    +0.000 C 
ATOM      3  C   UNL     1       4.589   5.739  18.003  0.00  0.00    +0.000 C 
ATOM      4  C   UNL     1       5.960   5.759  17.279  0.00  0.00    +0.000 C 
ATOM      5  C   UNL     1       5.269   5.188  16.031  0.00  0.00    +0.000 C 
ATOM      6  C   UNL     1       4.092   4.747  16.922  0.00  0.00    +0.000 C 
ATOM      7  C   UNL     1       4.018   3.408  17.658  0.00  0.00    +0.000 C 
ENDROOT
BRANCH   1   8
ATOM      8  C   UNL     1       3.745   2.701  20.113  0.00  0.00    +0.000 C 
BRANCH   8   9
ATOM      9  N   UNL     1       4.997   1.970  19.887  0.00  0.00    +0.000 NA
ATOM     10  H   UNL     1       5.477   2.399  19.090  0.00  0.00    +0.000 HD
ATOM     11  H   UNL     1       4.766   1.029  19.555  0.00  0.00    +0.000 HD
ENDBRANCH   8   9
ENDBRANCH   1   8
BRANCH   1  12
ATOM     12  C   UNL     1       2.055   4.283  19.018  0.00  0.00    +0.000 C 
BRANCH  12  13
ATOM     13  C   UNL     1       1.050   3.170  19.206  0.00  0.00    +0.000 C 
ATOM     14  O   UNL     1       0.799   2.325  18.361  0.00  0.00    +0.000 OA
BRANCH  13  15
ATOM     15  O   UNL     1       0.439   3.200  20.407  0.00  0.00    +0.000 OA
ATOM     16  H   UNL     1       1.015   3.602  21.098  0.00  0.00    +0.000 HD
ENDBRANCH  13  15
ENDBRANCH  12  13
ENDBRANCH   1  12
TORSDOF 5
ENDMDL
MODEL 8
REMARK VINA RESULT:      -5.7      2.882      4.353
REMARK  Name = 
REMARK  5 active torsions:
REMARK  status: ('A' for Active; 'I' for Inactive)
REMARK    1  A    between atoms: N_1  and  C_2
REMARK    2  A    between atoms: C_2  and  C_3
REMARK    3  A    between atoms: C_3  and  C_4
REMARK    4  A    between atoms: C_4  and  C_5
REMARK    5  A    between atoms: C_5  and  O_7
REMARK                            x       y       z     vdW  Elec       q    Type
REMARK                         _______ _______ _______ _____ _____    ______ ____
ROOT
ATOM      1  C   UNL     1       3.585   4.744  17.891  0.00  0.00    +0.000 C 
ATOM      2  C   UNL     1       3.841   3.635  16.846  0.00  0.00    +0.000 C 
ATOM      3  C   UNL     1       5.291   3.848  16.406  0.00  0.00    +0.000 C 
ATOM      4  C   UNL     1       5.555   4.271  14.938  0.00  0.00    +0.000 C 
ATOM      5  C   UNL     1       6.361   5.468  15.465  0.00  0.00    +0.000 C 
ATOM      6  C   UNL     1       5.679   5.286  16.833  0.00  0.00    +0.000 C 
ATOM      7  C   UNL     1       4.346   5.924  17.228  0.00  0.00    +0.000 C 
ENDROOT
BRANCH   1   8
ATOM      8  C   UNL     1       2.076   5.030  18.037  0.00  0.00    +0.000 C 
BRANCH   8   9
ATOM      9  N   UNL     1       1.259   3.897  17.590  0.00  0.00    +0.000 NA
ATOM     10  H   UNL     1       1.672   3.038  17.967  0.00  0.00    +0.000 HD
ATOM     11  H   UNL     1       1.371   3.798  16.577  0.00  0.00    +0.000 HD
ENDBRANCH   8   9
ENDBRANCH   1   8
BRANCH   1  12
ATOM     12  C   UNL     1       4.236   4.401  19.262  0.00  0.00    +0.000 C 
BRANCH  12  13
ATOM     13  C   UNL     1       4.010   2.979  19.722  0.00  0.00    +0.000 C 
ATOM     14  O   UNL     1       2.918   2.524  20.025  0.00  0.00    +0.000 OA
BRANCH  13  15
ATOM     15  O   UNL     1       5.140   2.249  19.777  0.00  0.00    +0.000 OA
ATOM     16  H   UNL     1       5.197   1.609  19.030  0.00  0.00    +0.000 HD
ENDBRANCH  13  15
ENDBRANCH  12  13
ENDBRANCH   1  12
TORSDOF 5
ENDMDL
MODEL 9
REMARK VINA RESULT:      -5.7      2.246      3.094
REMARK  Name = 
REMARK  5 active torsions:
REMARK  status: ('A' for Active; 'I' for Inactive)
REMARK    1  A    between atoms: N_1  and  C_2
REMARK    2  A    between atoms: C_2  and  C_3
REMARK    3  A    between atoms: C_3  and  C_4
REMARK    4  A    between atoms: C_4  and  C_5
REMARK    5  A    between atoms: C_5  and  O_7
REMARK                            x       y       z     vdW  Elec       q    Type
REMARK                         _______ _______ _______ _____ _____    ______ ____
ROOT
ATOM      1  C   UNL     1       5.772   5.543  16.677  0.00  0.00    +0.000 C 
ATOM      2  C   UNL     1       4.736   6.659  16.417  0.00  0.00    +0.000 C 
ATOM      3  C   UNL     1       4.070   6.890  17.776  0.00  0.00    +0.000 C 
ATOM      4  C   UNL     1       2.565   6.542  17.920  0.00  0.00    +0.000 C 
ATOM      5  C   UNL     1       2.922   5.655  19.123  0.00  0.00    +0.000 C 
ATOM      6  C   UNL     1       4.385   5.644  18.642  0.00  0.00    +0.000 C 
ATOM      7  C   UNL     1       4.961   4.639  17.644  0.00  0.00    +0.000 C 
ENDROOT
BRANCH   1   8
ATOM      8  C   UNL     1       6.142   4.815  15.368  0.00  0.00    +0.000 C 
BRANCH   8   9
ATOM      9  N   UNL     1       7.436   5.259  14.842  0.00  0.00    +0.000 NA
ATOM     10  H   UNL     1       7.366   5.305  13.821  0.00  0.00    +0.000 HD
ATOM     11  H   UNL     1       8.124   4.517  15.006  0.00  0.00    +0.000 HD
ENDBRANCH   8   9
ENDBRANCH   1   8
BRANCH   1  12
ATOM     12  C   UNL     1       7.035   6.090  17.402  0.00  0.00    +0.000 C 
BRANCH  12  13
ATOM     13  C   UNL     1       7.708   5.097  18.320  0.00  0.00    +0.000 C 
ATOM     14  O   UNL     1       7.755   5.211  19.535  0.00  0.00    +0.000 OA
BRANCH  13  15
ATOM     15  O   UNL     1       8.267   4.060  17.667  0.00  0.00    +0.000 OA
ATOM     16  H   UNL     1       9.203   4.247  17.420  0.00  0.00    +0.000 HD
ENDBRANCH  13  15
ENDBRANCH  12  13
ENDBRANCH   1  12
TORSDOF 5
ENDMDL
