MODEL 1
REMARK VINA RESULT:      -8.3      0.000      0.000
REMARK  Name = 
REMARK  4 active torsions:
REMARK  status: ('A' for Active; 'I' for Inactive)
REMARK    1  A    between atoms: C_1  and  S_2
REMARK    2  A    between atoms: S_2  and  N_5
REMARK    3  A    between atoms: C_7  and  C_8
REMARK    4  A    between atoms: C_19  and  C_20
REMARK                            x       y       z     vdW  Elec       q    Type
REMARK                         _______ _______ _______ _____ _____    ______ ____
ROOT
ATOM      1  N   UNL     1       3.009   4.375  18.927  0.00  0.00    +0.000 N 
ATOM      2  N   UNL     1       1.977   5.340  19.168  0.00  0.00    +0.000 NA
ATOM      3  C   UNL     1       2.591   6.457  19.390  0.00  0.00    +0.000 C 
ATOM      4  C   UNL     1       4.098   6.415  19.310  0.00  0.00    +0.000 C 
ATOM      5  C   UNL     1       4.365   4.942  18.973  0.00  0.00    +0.000 C 
ENDROOT
BRANCH   3   6
ATOM      6  C   UNL     1       1.890   7.709  19.721  0.00  0.00    +0.000 A 
ATOM      7  C   UNL     1       1.729   8.708  18.763  0.00  0.00    +0.000 A 
ATOM      8  C   UNL     1       1.025   9.865  19.101  0.00  0.00    +0.000 A 
ATOM      9  C   UNL     1       0.492  10.044  20.374  0.00  0.00    +0.000 A 
ATOM     10  N   UNL     1      -0.181  11.171  20.663  0.00  0.00    +0.000 NA
ATOM     11  C   UNL     1      -0.667  11.276  21.919  0.00  0.00    +0.000 A 
ATOM     12  C   UNL     1      -0.487  10.285  22.863  0.00  0.00    +0.000 A 
ATOM     13  N   UNL     1       0.180   9.143  22.590  0.00  0.00    +0.000 NA
ATOM     14  C   UNL     1       0.668   9.022  21.343  0.00  0.00    +0.000 A 
ATOM     15  C   UNL     1       1.355   7.873  21.000  0.00  0.00    +0.000 A 
ENDBRANCH   3   6
BRANCH   5  16
ATOM     16  C   UNL     1       5.214   4.812  17.728  0.00  0.00    +0.000 A 
ATOM     17  C   UNL     1       6.575   4.481  17.841  0.00  0.00    +0.000 A 
ATOM     18  C   UNL     1       7.398   4.453  16.713  0.00  0.00    +0.000 A 
ATOM     19  C   UNL     1       6.870   4.747  15.458  0.00  0.00    +0.000 A 
ATOM     20  C   UNL     1       5.515   5.039  15.325  0.00  0.00    +0.000 A 
ATOM     21  C   UNL     1       4.690   5.060  16.450  0.00  0.00    +0.000 A 
ENDBRANCH   5  16
BRANCH   1  23
ATOM     22  C   UNL     1       1.326   2.328  19.362  0.00  0.00    +0.000 C 
ATOM     23  S   UNL     1       2.716   2.822  18.365  0.00  0.00    +0.000 S 
ATOM     24  O   UNL     1       3.838   1.991  18.741  0.00  0.00    +0.000 OA
ATOM     25  O   UNL     1       2.264   2.898  16.986  0.00  0.00    +0.000 OA
ENDBRANCH   1  23
TORSDOF 3
ENDMDL
MODEL 2
REMARK VINA RESULT:      -8.0      0.810      1.647
REMARK  Name = 
REMARK  4 active torsions:
REMARK  status: ('A' for Active; 'I' for Inactive)
REMARK    1  A    between atoms: C_1  and  S_2
REMARK    2  A    between atoms: S_2  and  N_5
REMARK    3  A    between atoms: C_7  and  C_8
REMARK    4  A    between atoms: C_19  and  C_20
REMARK                            x       y       z     vdW  Elec       q    Type
REMARK                         _______ _______ _______ _____ _____    ______ ____
ROOT
ATOM      1  N   UNL     1       3.004   4.320  18.798  0.00  0.00    +0.000 N 
ATOM      2  N   UNL     1       1.964   5.250  19.127  0.00  0.00    +0.000 NA
ATOM      3  C   UNL     1       2.568   6.351  19.439  0.00  0.00    +0.000 C 
ATOM      4  C   UNL     1       4.075   6.333  19.344  0.00  0.00    +0.000 C 
ATOM      5  C   UNL     1       4.354   4.897  18.883  0.00  0.00    +0.000 C 
ENDROOT
BRANCH   3   6
ATOM      6  C   UNL     1       1.856   7.563  19.879  0.00  0.00    +0.000 A 
ATOM      7  C   UNL     1       1.317   7.643  21.162  0.00  0.00    +0.000 A 
ATOM      8  C   UNL     1       0.683   8.822  21.557  0.00  0.00    +0.000 A 
ATOM      9  C   UNL     1       0.570   9.910  20.697  0.00  0.00    +0.000 A 
ATOM     10  N   UNL     1      -0.046  11.029  21.114  0.00  0.00    +0.000 NA
ATOM     11  C   UNL     1      -0.120  12.042  20.223  0.00  0.00    +0.000 A 
ATOM     12  C   UNL     1       0.406  11.944  18.951  0.00  0.00    +0.000 A 
ATOM     13  N   UNL     1       1.034  10.830  18.516  0.00  0.00    +0.000 NA
ATOM     14  C   UNL     1       1.118   9.814  19.392  0.00  0.00    +0.000 A 
ATOM     15  C   UNL     1       1.755   8.649  19.008  0.00  0.00    +0.000 A 
ENDBRANCH   3   6
BRANCH   5  16
ATOM     16  C   UNL     1       5.195   4.881  17.625  0.00  0.00    +0.000 A 
ATOM     17  C   UNL     1       6.508   4.383  17.667  0.00  0.00    +0.000 A 
ATOM     18  C   UNL     1       7.332   4.451  16.542  0.00  0.00    +0.000 A 
ATOM     19  C   UNL     1       6.854   5.010  15.360  0.00  0.00    +0.000 A 
ATOM     20  C   UNL     1       5.543   5.474  15.291  0.00  0.00    +0.000 A 
ATOM     21  C   UNL     1       4.715   5.400  16.412  0.00  0.00    +0.000 A 
ENDBRANCH   5  16
BRANCH   1  23
ATOM     22  C   UNL     1       1.276   2.274  18.994  0.00  0.00    +0.000 C 
ATOM     23  S   UNL     1       2.723   2.818  18.110  0.00  0.00    +0.000 S 
ATOM     24  O   UNL     1       3.813   1.944  18.482  0.00  0.00    +0.000 OA
ATOM     25  O   UNL     1       2.346   3.001  16.718  0.00  0.00    +0.000 OA
ENDBRANCH   1  23
TORSDOF 3
ENDMDL
MODEL 3
REMARK VINA RESULT:      -7.9      1.007      1.432
REMARK  Name = 
REMARK  4 active torsions:
REMARK  status: ('A' for Active; 'I' for Inactive)
REMARK    1  A    between atoms: C_1  and  S_2
REMARK    2  A    between atoms: S_2  and  N_5
REMARK    3  A    between atoms: C_7  and  C_8
REMARK    4  A    between atoms: C_19  and  C_20
REMARK                            x       y       z     vdW  Elec       q    Type
REMARK                         _______ _______ _______ _____ _____    ______ ____
ROOT
ATOM      1  N   UNL     1       3.818   4.791  19.076  0.00  0.00    +0.000 N 
ATOM      2  N   UNL     1       2.649   5.593  19.290  0.00  0.00    +0.000 NA
ATOM      3  C   UNL     1       2.987   6.796  18.957  0.00  0.00    +0.000 C 
ATOM      4  C   UNL     1       4.400   6.975  18.456  0.00  0.00    +0.000 C 
ATOM      5  C   UNL     1       4.959   5.549  18.541  0.00  0.00    +0.000 C 
ENDROOT
BRANCH   3   6
ATOM      6  C   UNL     1       2.075   7.948  19.064  0.00  0.00    +0.000 A 
ATOM      7  C   UNL     1       1.693   8.659  17.929  0.00  0.00    +0.000 A 
ATOM      8  C   UNL     1       0.797   9.721  18.064  0.00  0.00    +0.000 A 
ATOM      9  C   UNL     1       0.288  10.087  19.306  0.00  0.00    +0.000 A 
ATOM     10  N   UNL     1      -0.575  11.114  19.398  0.00  0.00    +0.000 NA
ATOM     11  C   UNL     1      -1.024  11.413  20.636  0.00  0.00    +0.000 A 
ATOM     12  C   UNL     1      -0.626  10.710  21.754  0.00  0.00    +0.000 A 
ATOM     13  N   UNL     1       0.234   9.671  21.682  0.00  0.00    +0.000 NA
ATOM     14  C   UNL     1       0.689   9.358  20.456  0.00  0.00    +0.000 A 
ATOM     15  C   UNL     1       1.567   8.301  20.315  0.00  0.00    +0.000 A 
ENDBRANCH   3   6
BRANCH   5  16
ATOM     16  C   UNL     1       5.524   5.104  17.210  0.00  0.00    +0.000 A 
ATOM     17  C   UNL     1       4.715   5.133  16.061  0.00  0.00    +0.000 A 
ATOM     18  C   UNL     1       5.186   4.635  14.845  0.00  0.00    +0.000 A 
ATOM     19  C   UNL     1       6.472   4.107  14.759  0.00  0.00    +0.000 A 
ATOM     20  C   UNL     1       7.299   4.106  15.879  0.00  0.00    +0.000 A 
ATOM     21  C   UNL     1       6.833   4.611  17.094  0.00  0.00    +0.000 A 
ENDBRANCH   5  16
BRANCH   1  23
ATOM     22  C   UNL     1       2.509   2.796  20.307  0.00  0.00    +0.000 C 
ATOM     23  S   UNL     1       3.821   3.116  19.147  0.00  0.00    +0.000 S 
ATOM     24  O   UNL     1       5.059   2.697  19.765  0.00  0.00    +0.000 OA
ATOM     25  O   UNL     1       3.408   2.589  17.857  0.00  0.00    +0.000 OA
ENDBRANCH   1  23
TORSDOF 3
ENDMDL
MODEL 4
REMARK VINA RESULT:      -7.7      4.002      7.957
REMARK  Name = 
REMARK  4 active torsions:
REMARK  status: ('A' for Active; 'I' for Inactive)
REMARK    1  A    between atoms: C_1  and  S_2
REMARK    2  A    between atoms: S_2  and  N_5
REMARK    3  A    between atoms: C_7  and  C_8
REMARK    4  A    between atoms: C_19  and  C_20
REMARK                            x       y       z     vdW  Elec       q    Type
REMARK                         _______ _______ _______ _____ _____    ______ ____
ROOT
ATOM      1  N   UNL     1       0.729   9.711  20.008  0.00  0.00    +0.000 N 
ATOM      2  N   UNL     1       1.534   8.525  20.008  0.00  0.00    +0.000 NA
ATOM      3  C   UNL     1       1.876   8.338  18.774  0.00  0.00    +0.000 C 
ATOM      4  C   UNL     1       1.382   9.364  17.783  0.00  0.00    +0.000 C 
ATOM      5  C   UNL     1       0.587  10.323  18.678  0.00  0.00    +0.000 C 
ENDROOT
BRANCH   3   6
ATOM      6  C   UNL     1       2.686   7.191  18.329  0.00  0.00    +0.000 A 
ATOM      7  C   UNL     1       2.378   5.898  18.748  0.00  0.00    +0.000 A 
ATOM      8  C   UNL     1       3.144   4.832  18.275  0.00  0.00    +0.000 A 
ATOM      9  C   UNL     1       4.211   5.034  17.406  0.00  0.00    +0.000 A 
ATOM     10  N   UNL     1       4.926   3.983  16.970  0.00  0.00    +0.000 NA
ATOM     11  C   UNL     1       5.948   4.257  16.131  0.00  0.00    +0.000 A 
ATOM     12  C   UNL     1       6.252   5.543  15.736  0.00  0.00    +0.000 A 
ATOM     13  N   UNL     1       5.542   6.612  16.157  0.00  0.00    +0.000 NA
ATOM     14  C   UNL     1       4.519   6.356  16.991  0.00  0.00    +0.000 A 
ATOM     15  C   UNL     1       3.751   7.408  17.453  0.00  0.00    +0.000 A 
ENDBRANCH   3   6
BRANCH   5  16
ATOM     16  C   UNL     1       1.069  11.749  18.516  0.00  0.00    +0.000 A 
ATOM     17  C   UNL     1       2.427  12.003  18.258  0.00  0.00    +0.000 A 
ATOM     18  C   UNL     1       2.909  13.312  18.203  0.00  0.00    +0.000 A 
ATOM     19  C   UNL     1       2.041  14.383  18.398  0.00  0.00    +0.000 A 
ATOM     20  C   UNL     1       0.686  14.149  18.616  0.00  0.00    +0.000 A 
ATOM     21  C   UNL     1       0.200  12.841  18.664  0.00  0.00    +0.000 A 
ENDBRANCH   5  16
BRANCH   1  23
ATOM     22  C   UNL     1       0.373   9.206  22.621  0.00  0.00    +0.000 C 
ATOM     23  S   UNL     1       0.232  10.497  21.403  0.00  0.00    +0.000 S 
ATOM     24  O   UNL     1      -1.172  10.812  21.264  0.00  0.00    +0.000 OA
ATOM     25  O   UNL     1       1.205  11.525  21.736  0.00  0.00    +0.000 OA
ENDBRANCH   1  23
TORSDOF 3
ENDMDL
MODEL 5
REMARK VINA RESULT:      -7.7      2.295      3.155
REMARK  Name = 
REMARK  4 active torsions:
REMARK  status: ('A' for Active; 'I' for Inactive)
REMARK    1  A    between atoms: C_1  and  S_2
REMARK    2  A    between atoms: S_2  and  N_5
REMARK    3  A    between atoms: C_7  and  C_8
REMARK    4  A    between atoms: C_19  and  C_20
REMARK                            x       y       z     vdW  Elec       q    Type
REMARK                         _______ _______ _______ _____ _____    ______ ____
ROOT
ATOM      1  N   UNL     1       4.314   5.793  17.228  0.00  0.00    +0.000 N 
ATOM      2  N   UNL     1       4.006   7.096  17.741  0.00  0.00    +0.000 NA
ATOM      3  C   UNL     1       2.803   7.011  18.208  0.00  0.00    +0.000 C 
ATOM      4  C   UNL     1       2.143   5.657  18.103  0.00  0.00    +0.000 C 
ATOM      5  C   UNL     1       3.230   4.818  17.419  0.00  0.00    +0.000 C 
ENDROOT
BRANCH   3   6
ATOM      6  C   UNL     1       2.086   8.153  18.799  0.00  0.00    +0.000 A 
ATOM      7  C   UNL     1       1.797   9.283  18.036  0.00  0.00    +0.000 A 
ATOM      8  C   UNL     1       1.082  10.330  18.619  0.00  0.00    +0.000 A 
ATOM      9  C   UNL     1       0.664  10.273  19.945  0.00  0.00    +0.000 A 
ATOM     10  N   UNL     1      -0.024  11.301  20.472  0.00  0.00    +0.000 NA
ATOM     11  C   UNL     1      -0.395  11.176  21.765  0.00  0.00    +0.000 A 
ATOM     12  C   UNL     1      -0.089  10.058  22.514  0.00  0.00    +0.000 A 
ATOM     13  N   UNL     1       0.595   9.013  22.001  0.00  0.00    +0.000 NA
ATOM     14  C   UNL     1       0.969   9.121  20.714  0.00  0.00    +0.000 A 
ATOM     15  C   UNL     1       1.666   8.081  20.129  0.00  0.00    +0.000 A 
ENDBRANCH   3   6
BRANCH   5  16
ATOM     16  C   UNL     1       3.548   3.576  18.223  0.00  0.00    +0.000 A 
ATOM     17  C   UNL     1       3.934   3.694  19.569  0.00  0.00    +0.000 A 
ATOM     18  C   UNL     1       4.327   2.571  20.299  0.00  0.00    +0.000 A 
ATOM     19  C   UNL     1       4.332   1.315  19.697  0.00  0.00    +0.000 A 
ATOM     20  C   UNL     1       3.916   1.176  18.375  0.00  0.00    +0.000 A 
ATOM     21  C   UNL     1       3.516   2.297  17.646  0.00  0.00    +0.000 A 
ENDBRANCH   5  16
BRANCH   1  23
ATOM     22  C   UNL     1       5.471   4.325  15.300  0.00  0.00    +0.000 C 
ATOM     23  S   UNL     1       5.843   5.331  16.721  0.00  0.00    +0.000 S 
ATOM     24  O   UNL     1       6.407   4.464  17.732  0.00  0.00    +0.000 OA
ATOM     25  O   UNL     1       6.559   6.507  16.254  0.00  0.00    +0.000 OA
ENDBRANCH   1  23
TORSDOF 3
ENDMDL
MODEL 6
REMARK VINA RESULT:      -7.6      2.293      3.282
REMARK  Name = 
REMARK  4 active torsions:
REMARK  status: ('A' for Active; 'I' for Inactive)
REMARK    1  A    between atoms: C_1  and  S_2
REMARK    2  A    between atoms: S_2  and  N_5
REMARK    3  A    between atoms: C_7  and  C_8
REMARK    4  A    between atoms: C_19  and  C_20
REMARK                            x       y       z     vdW  Elec       q    Type
REMARK                         _______ _______ _______ _____ _____    ______ ____
ROOT
ATOM      1  N   UNL     1       4.366   5.927  17.289  0.00  0.00    +0.000 N 
ATOM      2  N   UNL     1       3.995   7.201  17.832  0.00  0.00    +0.000 NA
ATOM      3  C   UNL     1       2.794   7.049  18.288  0.00  0.00    +0.000 C 
ATOM      4  C   UNL     1       2.198   5.669  18.144  0.00  0.00    +0.000 C 
ATOM      5  C   UNL     1       3.327   4.898  17.448  0.00  0.00    +0.000 C 
ENDROOT
BRANCH   3   6
ATOM      6  C   UNL     1       2.022   8.142  18.901  0.00  0.00    +0.000 A 
ATOM      7  C   UNL     1       1.609   9.234  18.140  0.00  0.00    +0.000 A 
ATOM      8  C   UNL     1       0.845  10.233  18.747  0.00  0.00    +0.000 A 
ATOM      9  C   UNL     1       0.499  10.165  20.093  0.00  0.00    +0.000 A 
ATOM     10  N   UNL     1      -0.239  11.145  20.643  0.00  0.00    +0.000 NA
ATOM     11  C   UNL     1      -0.533  11.012  21.955  0.00  0.00    +0.000 A 
ATOM     12  C   UNL     1      -0.105   9.932  22.700  0.00  0.00    +0.000 A 
ATOM     13  N   UNL     1       0.631   8.935  22.164  0.00  0.00    +0.000 NA
ATOM     14  C   UNL     1       0.930   9.051  20.859  0.00  0.00    +0.000 A 
ATOM     15  C   UNL     1       1.676   8.058  20.251  0.00  0.00    +0.000 A 
ENDBRANCH   3   6
BRANCH   5  16
ATOM     16  C   UNL     1       3.696   3.652  18.224  0.00  0.00    +0.000 A 
ATOM     17  C   UNL     1       3.467   2.385  17.663  0.00  0.00    +0.000 A 
ATOM     18  C   UNL     1       3.709   1.224  18.401  0.00  0.00    +0.000 A 
ATOM     19  C   UNL     1       4.190   1.315  19.704  0.00  0.00    +0.000 A 
ATOM     20  C   UNL     1       4.459   2.563  20.260  0.00  0.00    +0.000 A 
ATOM     21  C   UNL     1       4.224   3.724  19.522  0.00  0.00    +0.000 A 
ENDBRANCH   5  16
BRANCH   1  23
ATOM     22  C   UNL     1       6.828   5.610  18.312  0.00  0.00    +0.000 C 
ATOM     23  S   UNL     1       5.918   5.548  16.783  0.00  0.00    +0.000 S 
ATOM     24  O   UNL     1       6.394   6.629  15.950  0.00  0.00    +0.000 OA
ATOM     25  O   UNL     1       5.938   4.172  16.314  0.00  0.00    +0.000 OA
ENDBRANCH   1  23
TORSDOF 3
ENDMDL
MODEL 7
REMARK VINA RESULT:      -7.6      2.316      3.246
REMARK  Name = 
REMARK  4 active torsions:
REMARK  status: ('A' for Active; 'I' for Inactive)
REMARK    1  A    between atoms: C_1  and  S_2
REMARK    2  A    between atoms: S_2  and  N_5
REMARK    3  A    between atoms: C_7  and  C_8
REMARK    4  A    between atoms: C_19  and  C_20
REMARK                            x       y       z     vdW  Elec       q    Type
REMARK                         _______ _______ _______ _____ _____    ______ ____
ROOT
ATOM      1  N   UNL     1       4.278   6.106  17.270  0.00  0.00    +0.000 N 
ATOM      2  N   UNL     1       3.914   7.367  17.845  0.00  0.00    +0.000 NA
ATOM      3  C   UNL     1       2.711   7.210  18.296  0.00  0.00    +0.000 C 
ATOM      4  C   UNL     1       2.108   5.837  18.115  0.00  0.00    +0.000 C 
ATOM      5  C   UNL     1       3.234   5.079  17.401  0.00  0.00    +0.000 C 
ENDROOT
BRANCH   3   6
ATOM      6  C   UNL     1       1.943   8.291  18.936  0.00  0.00    +0.000 A 
ATOM      7  C   UNL     1       1.523   9.396  18.200  0.00  0.00    +0.000 A 
ATOM      8  C   UNL     1       0.764  10.383  18.832  0.00  0.00    +0.000 A 
ATOM      9  C   UNL     1       0.430  10.290  20.179  0.00  0.00    +0.000 A 
ATOM     10  N   UNL     1      -0.304  11.258  20.753  0.00  0.00    +0.000 NA
ATOM     11  C   UNL     1      -0.587  11.101  22.065  0.00  0.00    +0.000 A 
ATOM     12  C   UNL     1      -0.152  10.008  22.786  0.00  0.00    +0.000 A 
ATOM     13  N   UNL     1       0.580   9.021  22.226  0.00  0.00    +0.000 NA
ATOM     14  C   UNL     1       0.868   9.162  20.920  0.00  0.00    +0.000 A 
ATOM     15  C   UNL     1       1.610   8.182  20.287  0.00  0.00    +0.000 A 
ENDBRANCH   3   6
BRANCH   5  16
ATOM     16  C   UNL     1       3.596   3.812  18.145  0.00  0.00    +0.000 A 
ATOM     17  C   UNL     1       3.545   2.573  17.484  0.00  0.00    +0.000 A 
ATOM     18  C   UNL     1       3.779   1.384  18.178  0.00  0.00    +0.000 A 
ATOM     19  C   UNL     1       4.075   1.418  19.538  0.00  0.00    +0.000 A 
ATOM     20  C   UNL     1       4.167   2.640  20.199  0.00  0.00    +0.000 A 
ATOM     21  C   UNL     1       3.940   3.830  19.506  0.00  0.00    +0.000 A 
ENDBRANCH   5  16
BRANCH   1  23
ATOM     22  C   UNL     1       5.510   4.809  15.268  0.00  0.00    +0.000 C 
ATOM     23  S   UNL     1       5.830   5.732  16.757  0.00  0.00    +0.000 S 
ATOM     24  O   UNL     1       6.412   4.821  17.716  0.00  0.00    +0.000 OA
ATOM     25  O   UNL     1       6.508   6.961  16.377  0.00  0.00    +0.000 OA
ENDBRANCH   1  23
TORSDOF 3
ENDMDL
MODEL 8
REMARK VINA RESULT:      -7.6      4.202      7.885
REMARK  Name = 
REMARK  4 active torsions:
REMARK  status: ('A' for Active; 'I' for Inactive)
REMARK    1  A    between atoms: C_1  and  S_2
REMARK    2  A    between atoms: S_2  and  N_5
REMARK    3  A    between atoms: C_7  and  C_8
REMARK    4  A    between atoms: C_19  and  C_20
REMARK                            x       y       z     vdW  Elec       q    Type
REMARK                         _______ _______ _______ _____ _____    ______ ____
ROOT
ATOM      1  N   UNL     1       0.252  10.329  20.256  0.00  0.00    +0.000 N 
ATOM      2  N   UNL     1       1.006   9.118  20.396  0.00  0.00    +0.000 NA
ATOM      3  C   UNL     1       1.460   8.853  19.214  0.00  0.00    +0.000 C 
ATOM      4  C   UNL     1       1.105   9.840  18.128  0.00  0.00    +0.000 C 
ATOM      5  C   UNL     1       0.263  10.872  18.890  0.00  0.00    +0.000 C 
ENDROOT
BRANCH   3   6
ATOM      6  C   UNL     1       2.265   7.657  18.910  0.00  0.00    +0.000 A 
ATOM      7  C   UNL     1       3.138   7.646  17.825  0.00  0.00    +0.000 A 
ATOM      8  C   UNL     1       3.914   6.509  17.591  0.00  0.00    +0.000 A 
ATOM      9  C   UNL     1       3.824   5.388  18.410  0.00  0.00    +0.000 A 
ATOM     10  N   UNL     1       4.587   4.312  18.154  0.00  0.00    +0.000 NA
ATOM     11  C   UNL     1       4.444   3.261  18.990  0.00  0.00    +0.000 A 
ATOM     12  C   UNL     1       3.563   3.280  20.053  0.00  0.00    +0.000 A 
ATOM     13  N   UNL     1       2.793   4.354  20.330  0.00  0.00    +0.000 NA
ATOM     14  C   UNL     1       2.926   5.410  19.509  0.00  0.00    +0.000 A 
ATOM     15  C   UNL     1       2.169   6.542  19.744  0.00  0.00    +0.000 A 
ENDBRANCH   3   6
BRANCH   5  16
ATOM     16  C   UNL     1       0.813  12.270  18.703  0.00  0.00    +0.000 A 
ATOM     17  C   UNL     1       2.202  12.470  18.623  0.00  0.00    +0.000 A 
ATOM     18  C   UNL     1       2.733  13.759  18.550  0.00  0.00    +0.000 A 
ATOM     19  C   UNL     1       1.885  14.864  18.550  0.00  0.00    +0.000 A 
ATOM     20  C   UNL     1       0.505  14.680  18.591  0.00  0.00    +0.000 A 
ATOM     21  C   UNL     1      -0.028  13.392  18.656  0.00  0.00    +0.000 A 
ENDBRANCH   5  16
BRANCH   1  23
ATOM     22  C   UNL     1      -0.416   9.968  22.832  0.00  0.00    +0.000 C 
ATOM     23  S   UNL     1      -0.348  11.206  21.553  0.00  0.00    +0.000 S 
ATOM     24  O   UNL     1      -1.708  11.588  21.246  0.00  0.00    +0.000 OA
ATOM     25  O   UNL     1       0.641  12.195  21.950  0.00  0.00    +0.000 OA
ENDBRANCH   1  23
TORSDOF 3
ENDMDL
MODEL 9
REMARK VINA RESULT:      -7.5      1.131      1.241
REMARK  Name = 
REMARK  4 active torsions:
REMARK  status: ('A' for Active; 'I' for Inactive)
REMARK    1  A    between atoms: C_1  and  S_2
REMARK    2  A    between atoms: S_2  and  N_5
REMARK    3  A    between atoms: C_7  and  C_8
REMARK    4  A    between atoms: C_19  and  C_20
REMARK                            x       y       z     vdW  Elec       q    Type
REMARK                         _______ _______ _______ _____ _____    ______ ____
ROOT
ATOM      1  N   UNL     1       3.553   4.699  19.437  0.00  0.00    +0.000 N 
ATOM      2  N   UNL     1       2.411   5.556  19.566  0.00  0.00    +0.000 NA
ATOM      3  C   UNL     1       2.822   6.736  19.230  0.00  0.00    +0.000 C 
ATOM      4  C   UNL     1       4.269   6.841  18.810  0.00  0.00    +0.000 C 
ATOM      5  C   UNL     1       4.756   5.394  18.955  0.00  0.00    +0.000 C 
ENDROOT
BRANCH   3   6
ATOM      6  C   UNL     1       1.959   7.928  19.261  0.00  0.00    +0.000 A 
ATOM      7  C   UNL     1       1.660   8.619  18.089  0.00  0.00    +0.000 A 
ATOM      8  C   UNL     1       0.807   9.723  18.151  0.00  0.00    +0.000 A 
ATOM      9  C   UNL     1       0.260  10.150  19.357  0.00  0.00    +0.000 A 
ATOM     10  N   UNL     1      -0.559  11.215  19.378  0.00  0.00    +0.000 NA
ATOM     11  C   UNL     1      -1.050  11.573  20.585  0.00  0.00    +0.000 A 
ATOM     12  C   UNL     1      -0.734  10.888  21.740  0.00  0.00    +0.000 A 
ATOM     13  N   UNL     1       0.081   9.811  21.739  0.00  0.00    +0.000 NA
ATOM     14  C   UNL     1       0.576   9.441  20.545  0.00  0.00    +0.000 A 
ATOM     15  C   UNL     1       1.412   8.342  20.477  0.00  0.00    +0.000 A 
ENDBRANCH   3   6
BRANCH   5  16
ATOM     16  C   UNL     1       5.377   4.895  17.668  0.00  0.00    +0.000 A 
ATOM     17  C   UNL     1       6.759   4.647  17.609  0.00  0.00    +0.000 A 
ATOM     18  C   UNL     1       7.366   4.282  16.406  0.00  0.00    +0.000 A 
ATOM     19  C   UNL     1       6.601   4.153  15.250  0.00  0.00    +0.000 A 
ATOM     20  C   UNL     1       5.224   4.358  15.301  0.00  0.00    +0.000 A 
ATOM     21  C   UNL     1       4.614   4.716  16.504  0.00  0.00    +0.000 A 
ENDBRANCH   5  16
BRANCH   1  23
ATOM     22  C   UNL     1       2.667   2.602  18.012  0.00  0.00    +0.000 C 
ATOM     23  S   UNL     1       3.477   3.027  19.540  0.00  0.00    +0.000 S 
ATOM     24  O   UNL     1       2.576   2.686  20.618  0.00  0.00    +0.000 OA
ATOM     25  O   UNL     1       4.826   2.490  19.488  0.00  0.00    +0.000 OA
ENDBRANCH   1  23
TORSDOF 3
ENDMDL
