MODEL 1
REMARK VINA RESULT:      -9.0      0.000      0.000
REMARK  Name = 
REMARK  8 active torsions:
REMARK  status: ('A' for Active; 'I' for Inactive)
REMARK    1  A    between atoms: C_1  and  C_2
REMARK    2  A    between atoms: C_5  and  C_6
REMARK    3  A    between atoms: N_8  and  C_9
REMARK    4  A    between atoms: N_8  and  C_25
REMARK    5  A    between atoms: C_9  and  C_10
REMARK    6  A    between atoms: C_16  and  C_17
REMARK    7  A    between atoms: C_20  and  N_21
REMARK    8  A    between atoms: C_25  and  C_26
REMARK                            x       y       z     vdW  Elec       q    Type
REMARK                         _______ _______ _______ _____ _____    ______ ____
ROOT
ATOM      1  C   UNL     1       3.909   5.650  19.245  0.00  0.00    +0.000 C 
ENDROOT
BRANCH   1   2
ATOM      2  C   UNL     1       3.196   7.008  18.992  0.00  0.00    +0.000 C 
ATOM      3  O   UNL     1       3.286   7.514  17.871  0.00  0.00    +0.000 OA
ATOM      4  N   UNL     1       2.380   7.470  19.990  0.00  0.00    +0.000 N 
ATOM      5  C   UNL     1       1.472   8.481  19.805  0.00  0.00    +0.000 A 
ATOM      6  N   UNL     1       1.105   9.071  18.702  0.00  0.00    +0.000 NA
ATOM      7  C   UNL     1       0.250  10.112  19.017  0.00  0.00    +0.000 A 
ATOM      8  C   UNL     1      -0.056  10.280  20.356  0.00  0.00    +0.000 A 
ATOM      9  S   UNL     1       0.724   9.023  21.240  0.00  0.00    +0.000 S 
ATOM     10  H   UNL     1       2.468   7.156  20.940  0.00  0.00    +0.000 HD
BRANCH   8  11
ATOM     11  C   UNL     1      -0.869  11.323  21.000  0.00  0.00    +0.000 A 
ATOM     12  C   UNL     1      -0.787  11.504  22.388  0.00  0.00    +0.000 A 
ATOM     13  C   UNL     1      -1.634  12.400  23.053  0.00  0.00    +0.000 A 
ATOM     14  C   UNL     1      -2.549  13.175  22.344  0.00  0.00    +0.000 A 
ATOM     15  C   UNL     1      -2.659  12.980  20.967  0.00  0.00    +0.000 A 
ATOM     16  C   UNL     1      -1.814  12.083  20.295  0.00  0.00    +0.000 A 
BRANCH  14  17
ATOM     17  N   UNL     1      -3.498  13.940  23.031  0.00  0.00    +0.000 N 
ATOM     18  H   UNL     1      -3.132  14.805  23.416  0.00  0.00    +0.000 HD
ATOM     19  H   UNL     1      -4.363  14.081  22.516  0.00  0.00    +0.000 HD
ENDBRANCH  14  17
ENDBRANCH   8  11
ENDBRANCH   1   2
BRANCH   1  22
ATOM     20  C   UNL     1       5.617   4.830  17.459  0.00  0.00    +0.000 C 
ATOM     21  O   UNL     1       5.898   4.018  16.577  0.00  0.00    +0.000 OA
ATOM     22  N   UNL     1       4.408   4.759  18.171  0.00  0.00    +0.000 N 
BRANCH  20  27
ATOM     23  C   UNL     1       8.735   9.544  18.306  0.00  0.00    +0.000 C 
ATOM     24  C   UNL     1       8.046   8.238  18.040  0.00  0.00    +0.000 A 
ATOM     25  C   UNL     1       8.330   7.115  18.816  0.00  0.00    +0.000 A 
ATOM     26  C   UNL     1       7.610   5.938  18.596  0.00  0.00    +0.000 A 
ATOM     27  C   UNL     1       6.592   5.921  17.647  0.00  0.00    +0.000 A 
ATOM     28  C   UNL     1       6.454   7.052  16.845  0.00  0.00    +0.000 A 
ATOM     29  N   UNL     1       7.146   8.205  17.033  0.00  0.00    +0.000 NA
ENDBRANCH  20  27
BRANCH  22  30
ATOM     30  C   UNL     1       3.689   3.464  18.057  0.00  0.00    +0.000 C 
BRANCH  30  31
ATOM     31  C   UNL     1       2.822   3.156  19.271  0.00  0.00    +0.000 A 
ATOM     32  C   UNL     1       1.427   3.327  19.225  0.00  0.00    +0.000 A 
ATOM     33  C   UNL     1       0.632   3.065  20.351  0.00  0.00    +0.000 A 
ATOM     34  C   UNL     1       1.225   2.616  21.529  0.00  0.00    +0.000 A 
ATOM     35  C   UNL     1       2.595   2.397  21.578  0.00  0.00    +0.000 A 
ATOM     36  C   UNL     1       3.388   2.653  20.452  0.00  0.00    +0.000 A 
ENDBRANCH  30  31
ENDBRANCH  22  30
ENDBRANCH   1  22
TORSDOF 7
ENDMDL
MODEL 2
REMARK VINA RESULT:      -8.6      0.898      1.339
REMARK  Name = 
REMARK  8 active torsions:
REMARK  status: ('A' for Active; 'I' for Inactive)
REMARK    1  A    between atoms: C_1  and  C_2
REMARK    2  A    between atoms: C_5  and  C_6
REMARK    3  A    between atoms: N_8  and  C_9
REMARK    4  A    between atoms: N_8  and  C_25
REMARK    5  A    between atoms: C_9  and  C_10
REMARK    6  A    between atoms: C_16  and  C_17
REMARK    7  A    between atoms: C_20  and  N_21
REMARK    8  A    between atoms: C_25  and  C_26
REMARK                            x       y       z     vdW  Elec       q    Type
REMARK                         _______ _______ _______ _____ _____    ______ ____
ROOT
ATOM      1  C   UNL     1       3.509   5.982  19.210  0.00  0.00    +0.000 C 
ENDROOT
BRANCH   1   2
ATOM      2  C   UNL     1       2.729   7.319  19.077  0.00  0.00    +0.000 C 
ATOM      3  O   UNL     1       2.492   7.747  17.945  0.00  0.00    +0.000 OA
ATOM      4  N   UNL     1       2.215   7.849  20.231  0.00  0.00    +0.000 N 
ATOM      5  C   UNL     1       1.273   8.845  20.241  0.00  0.00    +0.000 A 
ATOM      6  N   UNL     1       0.601   9.358  19.249  0.00  0.00    +0.000 NA
ATOM      7  C   UNL     1      -0.151  10.418  19.721  0.00  0.00    +0.000 A 
ATOM      8  C   UNL     1      -0.074  10.678  21.078  0.00  0.00    +0.000 A 
ATOM      9  S   UNL     1       0.945   9.485  21.789  0.00  0.00    +0.000 S 
ATOM     10  H   UNL     1       2.571   7.601  21.137  0.00  0.00    +0.000 HD
BRANCH   8  11
ATOM     11  C   UNL     1      -0.695  11.763  21.854  0.00  0.00    +0.000 A 
ATOM     12  C   UNL     1      -0.118  13.041  21.838  0.00  0.00    +0.000 A 
ATOM     13  C   UNL     1      -0.606  14.066  22.659  0.00  0.00    +0.000 A 
ATOM     14  C   UNL     1      -1.713  13.858  23.478  0.00  0.00    +0.000 A 
ATOM     15  C   UNL     1      -2.276  12.581  23.521  0.00  0.00    +0.000 A 
ATOM     16  C   UNL     1      -1.790  11.550  22.703  0.00  0.00    +0.000 A 
BRANCH  14  17
ATOM     17  N   UNL     1      -2.087  14.831  24.410  0.00  0.00    +0.000 N 
ATOM     18  H   UNL     1      -1.309  15.227  24.929  0.00  0.00    +0.000 HD
ATOM     19  H   UNL     1      -2.705  15.546  24.033  0.00  0.00    +0.000 HD
ENDBRANCH  14  17
ENDBRANCH   8  11
ENDBRANCH   1   2
BRANCH   1  22
ATOM     20  C   UNL     1       5.025   5.059  17.304  0.00  0.00    +0.000 C 
ATOM     21  O   UNL     1       5.165   4.271  16.368  0.00  0.00    +0.000 OA
ATOM     22  N   UNL     1       3.847   5.099  18.068  0.00  0.00    +0.000 N 
BRANCH  20  27
ATOM     23  C   UNL     1       8.753   9.276  18.301  0.00  0.00    +0.000 C 
ATOM     24  C   UNL     1       7.891   8.092  17.977  0.00  0.00    +0.000 A 
ATOM     25  C   UNL     1       8.101   6.867  18.607  0.00  0.00    +0.000 A 
ATOM     26  C   UNL     1       7.228   5.808  18.344  0.00  0.00    +0.000 A 
ATOM     27  C   UNL     1       6.138   6.008  17.502  0.00  0.00    +0.000 A 
ATOM     28  C   UNL     1       6.070   7.227  16.831  0.00  0.00    +0.000 A 
ATOM     29  N   UNL     1       6.910   8.269  17.064  0.00  0.00    +0.000 NA
ENDBRANCH  20  27
BRANCH  22  30
ATOM     30  C   UNL     1       2.966   3.912  17.921  0.00  0.00    +0.000 C 
BRANCH  30  31
ATOM     31  C   UNL     1       2.454   3.383  19.254  0.00  0.00    +0.000 A 
ATOM     32  C   UNL     1       3.340   2.851  20.209  0.00  0.00    +0.000 A 
ATOM     33  C   UNL     1       2.864   2.344  21.428  0.00  0.00    +0.000 A 
ATOM     34  C   UNL     1       1.499   2.375  21.707  0.00  0.00    +0.000 A 
ATOM     35  C   UNL     1       0.616   2.937  20.795  0.00  0.00    +0.000 A 
ATOM     36  C   UNL     1       1.091   3.451  19.581  0.00  0.00    +0.000 A 
ENDBRANCH  30  31
ENDBRANCH  22  30
ENDBRANCH   1  22
TORSDOF 7
ENDMDL
MODEL 3
REMARK VINA RESULT:      -8.5      1.902      2.628
REMARK  Name = 
REMARK  8 active torsions:
REMARK  status: ('A' for Active; 'I' for Inactive)
REMARK    1  A    between atoms: C_1  and  C_2
REMARK    2  A    between atoms: C_5  and  C_6
REMARK    3  A    between atoms: N_8  and  C_9
REMARK    4  A    between atoms: N_8  and  C_25
REMARK    5  A    between atoms: C_9  and  C_10
REMARK    6  A    between atoms: C_16  and  C_17
REMARK    7  A    between atoms: C_20  and  N_21
REMARK    8  A    between atoms: C_25  and  C_26
REMARK                            x       y       z     vdW  Elec       q    Type
REMARK                         _______ _______ _______ _____ _____    ______ ____
ROOT
ATOM      1  C   UNL     1       3.235   6.001  17.541  0.00  0.00    +0.000 C 
ENDROOT
BRANCH   1   2
ATOM      2  C   UNL     1       2.950   7.506  17.802  0.00  0.00    +0.000 C 
ATOM      3  O   UNL     1       3.338   8.327  16.967  0.00  0.00    +0.000 OA
ATOM      4  N   UNL     1       2.143   7.804  18.868  0.00  0.00    +0.000 N 
ATOM      5  C   UNL     1       1.571   9.037  19.050  0.00  0.00    +0.000 A 
ATOM      6  N   UNL     1       1.542  10.063  18.247  0.00  0.00    +0.000 NA
ATOM      7  C   UNL     1       0.953  11.127  18.904  0.00  0.00    +0.000 A 
ATOM      8  C   UNL     1       0.504  10.891  20.190  0.00  0.00    +0.000 A 
ATOM      9  S   UNL     1       0.783   9.229  20.552  0.00  0.00    +0.000 S 
ATOM     10  H   UNL     1       2.000   7.161  19.626  0.00  0.00    +0.000 HD
BRANCH   8  11
ATOM     11  C   UNL     1      -0.095  11.827  21.153  0.00  0.00    +0.000 A 
ATOM     12  C   UNL     1       0.316  13.168  21.160  0.00  0.00    +0.000 A 
ATOM     13  C   UNL     1      -0.138  14.060  22.140  0.00  0.00    +0.000 A 
ATOM     14  C   UNL     1      -1.053  13.651  23.107  0.00  0.00    +0.000 A 
ATOM     15  C   UNL     1      -1.445  12.312  23.126  0.00  0.00    +0.000 A 
ATOM     16  C   UNL     1      -0.992  11.413  22.148  0.00  0.00    +0.000 A 
BRANCH  14  17
ATOM     17  N   UNL     1      -1.370  14.499  24.173  0.00  0.00    +0.000 N 
ATOM     18  H   UNL     1      -0.598  14.668  24.811  0.00  0.00    +0.000 HD
ATOM     19  H   UNL     1      -1.833  15.360  23.891  0.00  0.00    +0.000 HD
ENDBRANCH  14  17
ENDBRANCH   8  11
ENDBRANCH   1   2
BRANCH   1  22
ATOM     20  C   UNL     1       5.471   4.683  17.752  0.00  0.00    +0.000 C 
ATOM     21  O   UNL     1       6.240   4.036  18.463  0.00  0.00    +0.000 OA
ATOM     22  N   UNL     1       4.271   5.215  18.252  0.00  0.00    +0.000 N 
BRANCH  20  27
ATOM     23  C   UNL     1       7.699   4.772  12.489  0.00  0.00    +0.000 C 
ATOM     24  C   UNL     1       6.995   4.824  13.812  0.00  0.00    +0.000 A 
ATOM     25  C   UNL     1       5.798   4.138  14.007  0.00  0.00    +0.000 A 
ATOM     26  C   UNL     1       5.211   4.140  15.275  0.00  0.00    +0.000 A 
ATOM     27  C   UNL     1       5.856   4.779  16.330  0.00  0.00    +0.000 A 
ATOM     28  C   UNL     1       6.987   5.531  16.020  0.00  0.00    +0.000 A 
ATOM     29  N   UNL     1       7.572   5.552  14.795  0.00  0.00    +0.000 NA
ENDBRANCH  20  27
BRANCH  22  30
ATOM     30  C   UNL     1       4.181   5.270  19.734  0.00  0.00    +0.000 C 
BRANCH  30  31
ATOM     31  C   UNL     1       3.138   4.317  20.302  0.00  0.00    +0.000 A 
ATOM     32  C   UNL     1       1.764   4.567  20.138  0.00  0.00    +0.000 A 
ATOM     33  C   UNL     1       0.804   3.700  20.682  0.00  0.00    +0.000 A 
ATOM     34  C   UNL     1       1.211   2.567  21.383  0.00  0.00    +0.000 A 
ATOM     35  C   UNL     1       2.563   2.280  21.515  0.00  0.00    +0.000 A 
ATOM     36  C   UNL     1       3.521   3.142  20.967  0.00  0.00    +0.000 A 
ENDBRANCH  30  31
ENDBRANCH  22  30
ENDBRANCH   1  22
TORSDOF 7
ENDMDL
MODEL 4
REMARK VINA RESULT:      -8.4      0.940      1.248
REMARK  Name = 
REMARK  8 active torsions:
REMARK  status: ('A' for Active; 'I' for Inactive)
REMARK    1  A    between atoms: C_1  and  C_2
REMARK    2  A    between atoms: C_5  and  C_6
REMARK    3  A    between atoms: N_8  and  C_9
REMARK    4  A    between atoms: N_8  and  C_25
REMARK    5  A    between atoms: C_9  and  C_10
REMARK    6  A    between atoms: C_16  and  C_17
REMARK    7  A    between atoms: C_20  and  N_21
REMARK    8  A    between atoms: C_25  and  C_26
REMARK                            x       y       z     vdW  Elec       q    Type
REMARK                         _______ _______ _______ _____ _____    ______ ____
ROOT
ATOM      1  C   UNL     1       3.393   6.242  18.918  0.00  0.00    +0.000 C 
ENDROOT
BRANCH   1   2
ATOM      2  C   UNL     1       2.705   7.586  18.551  0.00  0.00    +0.000 C 
ATOM      3  O   UNL     1       2.741   7.959  17.377  0.00  0.00    +0.000 OA
ATOM      4  N   UNL     1       1.964   8.186  19.535  0.00  0.00    +0.000 N 
ATOM      5  C   UNL     1       1.075   9.201  19.286  0.00  0.00    +0.000 A 
ATOM      6  N   UNL     1       0.659   9.675  18.146  0.00  0.00    +0.000 NA
ATOM      7  C   UNL     1      -0.146  10.773  18.387  0.00  0.00    +0.000 A 
ATOM      8  C   UNL     1      -0.366  11.102  19.713  0.00  0.00    +0.000 A 
ATOM      9  S   UNL     1       0.430   9.927  20.690  0.00  0.00    +0.000 S 
ATOM     10  H   UNL     1       2.099   7.978  20.508  0.00  0.00    +0.000 HD
BRANCH   8  11
ATOM     11  C   UNL     1      -1.109  12.239  20.278  0.00  0.00    +0.000 A 
ATOM     12  C   UNL     1      -0.439  13.171  21.082  0.00  0.00    +0.000 A 
ATOM     13  C   UNL     1      -1.136  14.195  21.738  0.00  0.00    +0.000 A 
ATOM     14  C   UNL     1      -2.509  14.346  21.567  0.00  0.00    +0.000 A 
ATOM     15  C   UNL     1      -3.189  13.405  20.792  0.00  0.00    +0.000 A 
ATOM     16  C   UNL     1      -2.498  12.376  20.134  0.00  0.00    +0.000 A 
BRANCH  14  17
ATOM     17  N   UNL     1      -3.215  15.263  22.352  0.00  0.00    +0.000 N 
ATOM     18  H   UNL     1      -4.017  15.676  21.886  0.00  0.00    +0.000 HD
ATOM     19  H   UNL     1      -3.444  14.919  23.282  0.00  0.00    +0.000 HD
ENDBRANCH  14  17
ENDBRANCH   8  11
ENDBRANCH   1   2
BRANCH   1  22
ATOM     20  C   UNL     1       5.084   5.077  17.316  0.00  0.00    +0.000 C 
ATOM     21  O   UNL     1       5.301   4.188  16.492  0.00  0.00    +0.000 OA
ATOM     22  N   UNL     1       3.827   5.231  17.924  0.00  0.00    +0.000 N 
BRANCH  20  27
ATOM     23  C   UNL     1       8.832   9.253  18.404  0.00  0.00    +0.000 C 
ATOM     24  C   UNL     1       7.966   8.078  18.062  0.00  0.00    +0.000 A 
ATOM     25  C   UNL     1       8.133   6.859  18.716  0.00  0.00    +0.000 A 
ATOM     26  C   UNL     1       7.255   5.809  18.433  0.00  0.00    +0.000 A 
ATOM     27  C   UNL     1       6.202   6.013  17.546  0.00  0.00    +0.000 A 
ATOM     28  C   UNL     1       6.179   7.223  16.857  0.00  0.00    +0.000 A 
ATOM     29  N   UNL     1       7.025   8.256  17.108  0.00  0.00    +0.000 NA
ENDBRANCH  20  27
BRANCH  22  30
ATOM     30  C   UNL     1       2.923   4.058  17.799  0.00  0.00    +0.000 C 
BRANCH  30  31
ATOM     31  C   UNL     1       2.469   3.511  19.145  0.00  0.00    +0.000 A 
ATOM     32  C   UNL     1       3.395   2.974  20.057  0.00  0.00    +0.000 A 
ATOM     33  C   UNL     1       2.971   2.449  21.288  0.00  0.00    +0.000 A 
ATOM     34  C   UNL     1       1.619   2.469  21.622  0.00  0.00    +0.000 A 
ATOM     35  C   UNL     1       0.697   3.037  20.753  0.00  0.00    +0.000 A 
ATOM     36  C   UNL     1       1.120   3.567  19.527  0.00  0.00    +0.000 A 
ENDBRANCH  30  31
ENDBRANCH  22  30
ENDBRANCH   1  22
TORSDOF 7
ENDMDL
MODEL 5
REMARK VINA RESULT:      -8.4      1.897      2.685
REMARK  Name = 
REMARK  8 active torsions:
REMARK  status: ('A' for Active; 'I' for Inactive)
REMARK    1  A    between atoms: C_1  and  C_2
REMARK    2  A    between atoms: C_5  and  C_6
REMARK    3  A    between atoms: N_8  and  C_9
REMARK    4  A    between atoms: N_8  and  C_25
REMARK    5  A    between atoms: C_9  and  C_10
REMARK    6  A    between atoms: C_16  and  C_17
REMARK    7  A    between atoms: C_20  and  N_21
REMARK    8  A    between atoms: C_25  and  C_26
REMARK                            x       y       z     vdW  Elec       q    Type
REMARK                         _______ _______ _______ _____ _____    ______ ____
ROOT
ATOM      1  C   UNL     1       3.320   5.912  17.549  0.00  0.00    +0.000 C 
ENDROOT
BRANCH   1   2
ATOM      2  C   UNL     1       2.991   7.407  17.819  0.00  0.00    +0.000 C 
ATOM      3  O   UNL     1       3.282   8.234  16.953  0.00  0.00    +0.000 OA
ATOM      4  N   UNL     1       2.250   7.680  18.939  0.00  0.00    +0.000 N 
ATOM      5  C   UNL     1       1.641   8.890  19.153  0.00  0.00    +0.000 A 
ATOM      6  N   UNL     1       1.510   9.905  18.347  0.00  0.00    +0.000 NA
ATOM      7  C   UNL     1       0.924  10.950  19.038  0.00  0.00    +0.000 A 
ATOM      8  C   UNL     1       0.579  10.707  20.355  0.00  0.00    +0.000 A 
ATOM      9  S   UNL     1       0.955   9.063  20.707  0.00  0.00    +0.000 S 
ATOM     10  H   UNL     1       2.191   7.039  19.710  0.00  0.00    +0.000 HD
BRANCH   8  11
ATOM     11  C   UNL     1       0.011  11.627  21.353  0.00  0.00    +0.000 A 
ATOM     12  C   UNL     1      -0.930  11.150  22.276  0.00  0.00    +0.000 A 
ATOM     13  C   UNL     1      -1.584  12.020  23.158  0.00  0.00    +0.000 A 
ATOM     14  C   UNL     1      -1.278  13.379  23.178  0.00  0.00    +0.000 A 
ATOM     15  C   UNL     1      -0.364  13.867  22.243  0.00  0.00    +0.000 A 
ATOM     16  C   UNL     1       0.293  13.001  21.355  0.00  0.00    +0.000 A 
BRANCH  14  17
ATOM     17  N   UNL     1      -2.051  14.259  23.943  0.00  0.00    +0.000 N 
ATOM     18  H   UNL     1      -1.546  14.693  24.710  0.00  0.00    +0.000 HD
ATOM     19  H   UNL     1      -2.572  14.935  23.390  0.00  0.00    +0.000 HD
ENDBRANCH  14  17
ENDBRANCH   8  11
ENDBRANCH   1   2
BRANCH   1  22
ATOM     20  C   UNL     1       5.593   4.652  17.719  0.00  0.00    +0.000 C 
ATOM     21  O   UNL     1       6.394   4.030  18.418  0.00  0.00    +0.000 OA
ATOM     22  N   UNL     1       4.392   5.158  18.242  0.00  0.00    +0.000 N 
BRANCH  20  27
ATOM     23  C   UNL     1       7.701   4.752  12.408  0.00  0.00    +0.000 C 
ATOM     24  C   UNL     1       7.025   4.798  13.746  0.00  0.00    +0.000 A 
ATOM     25  C   UNL     1       5.849   4.086  13.972  0.00  0.00    +0.000 A 
ATOM     26  C   UNL     1       5.291   4.084  15.253  0.00  0.00    +0.000 A 
ATOM     27  C   UNL     1       5.943   4.746  16.289  0.00  0.00    +0.000 A 
ATOM     28  C   UNL     1       7.050   5.521  15.948  0.00  0.00    +0.000 A 
ATOM     29  N   UNL     1       7.606   5.546  14.710  0.00  0.00    +0.000 NA
ENDBRANCH  20  27
BRANCH  22  30
ATOM     30  C   UNL     1       4.333   5.222  19.726  0.00  0.00    +0.000 C 
BRANCH  30  31
ATOM     31  C   UNL     1       3.266   4.312  20.319  0.00  0.00    +0.000 A 
ATOM     32  C   UNL     1       3.583   3.011  20.750  0.00  0.00    +0.000 A 
ATOM     33  C   UNL     1       2.594   2.166  21.276  0.00  0.00    +0.000 A 
ATOM     34  C   UNL     1       1.282   2.620  21.387  0.00  0.00    +0.000 A 
ATOM     35  C   UNL     1       0.960   3.916  21.010  0.00  0.00    +0.000 A 
ATOM     36  C   UNL     1       1.948   4.763  20.491  0.00  0.00    +0.000 A 
ENDBRANCH  30  31
ENDBRANCH  22  30
ENDBRANCH   1  22
TORSDOF 7
ENDMDL
MODEL 6
REMARK VINA RESULT:      -8.3      3.061     10.040
REMARK  Name = 
REMARK  8 active torsions:
REMARK  status: ('A' for Active; 'I' for Inactive)
REMARK    1  A    between atoms: C_1  and  C_2
REMARK    2  A    between atoms: C_5  and  C_6
REMARK    3  A    between atoms: N_8  and  C_9
REMARK    4  A    between atoms: N_8  and  C_25
REMARK    5  A    between atoms: C_9  and  C_10
REMARK    6  A    between atoms: C_16  and  C_17
REMARK    7  A    between atoms: C_20  and  N_21
REMARK    8  A    between atoms: C_25  and  C_26
REMARK                            x       y       z     vdW  Elec       q    Type
REMARK                         _______ _______ _______ _____ _____    ______ ____
ROOT
ATOM      1  C   UNL     1      -0.626   9.933  21.168  0.00  0.00    +0.000 C 
ENDROOT
BRANCH   1   2
ATOM      2  C   UNL     1       0.524   8.893  21.054  0.00  0.00    +0.000 C 
ATOM      3  O   UNL     1       0.716   8.129  22.002  0.00  0.00    +0.000 OA
ATOM      4  N   UNL     1       1.142   8.792  19.836  0.00  0.00    +0.000 N 
ATOM      5  C   UNL     1       1.957   7.741  19.498  0.00  0.00    +0.000 A 
ATOM      6  N   UNL     1       2.182   6.629  20.138  0.00  0.00    +0.000 NA
ATOM      7  C   UNL     1       3.165   5.922  19.471  0.00  0.00    +0.000 A 
ATOM      8  C   UNL     1       3.652   6.485  18.305  0.00  0.00    +0.000 A 
ATOM      9  S   UNL     1       2.776   7.940  18.014  0.00  0.00    +0.000 S 
ATOM     10  H   UNL     1       1.108   9.530  19.156  0.00  0.00    +0.000 HD
BRANCH   8  11
ATOM     11  C   UNL     1       4.731   6.012  17.424  0.00  0.00    +0.000 A 
ATOM     12  C   UNL     1       5.990   6.627  17.482  0.00  0.00    +0.000 A 
ATOM     13  C   UNL     1       7.003   6.290  16.575  0.00  0.00    +0.000 A 
ATOM     14  C   UNL     1       6.804   5.295  15.621  0.00  0.00    +0.000 A 
ATOM     15  C   UNL     1       5.545   4.698  15.537  0.00  0.00    +0.000 A 
ATOM     16  C   UNL     1       4.525   5.033  16.441  0.00  0.00    +0.000 A 
BRANCH  14  17
ATOM     17  N   UNL     1       7.759   5.083  14.621  0.00  0.00    +0.000 N 
ATOM     18  H   UNL     1       8.183   5.936  14.267  0.00  0.00    +0.000 HD
ATOM     19  H   UNL     1       8.450   4.376  14.856  0.00  0.00    +0.000 HD
ENDBRANCH  14  17
ENDBRANCH   8  11
ENDBRANCH   1   2
BRANCH   1  22
ATOM     20  C   UNL     1      -0.981  12.038  19.678  0.00  0.00    +0.000 C 
ATOM     21  O   UNL     1      -0.783  13.241  19.503  0.00  0.00    +0.000 OA
ATOM     22  N   UNL     1      -0.491  11.364  20.808  0.00  0.00    +0.000 N 
BRANCH  20  27
ATOM     23  C   UNL     1      -3.753  10.110  15.066  0.00  0.00    +0.000 C 
ATOM     24  C   UNL     1      -3.049  10.478  16.338  0.00  0.00    +0.000 A 
ATOM     25  C   UNL     1      -1.855   9.855  16.695  0.00  0.00    +0.000 A 
ATOM     26  C   UNL     1      -1.182  10.280  17.843  0.00  0.00    +0.000 A 
ATOM     27  C   UNL     1      -1.686  11.348  18.580  0.00  0.00    +0.000 A 
ATOM     28  C   UNL     1      -2.939  11.835  18.215  0.00  0.00    +0.000 A 
ATOM     29  N   UNL     1      -3.616  11.434  17.108  0.00  0.00    +0.000 NA
ENDBRANCH  20  27
BRANCH  22  30
ATOM     30  C   UNL     1      -0.062  12.246  21.925  0.00  0.00    +0.000 C 
BRANCH  30  31
ATOM     31  C   UNL     1      -1.228  12.758  22.760  0.00  0.00    +0.000 A 
ATOM     32  C   UNL     1      -2.311  11.920  23.080  0.00  0.00    +0.000 A 
ATOM     33  C   UNL     1      -3.396  12.401  23.830  0.00  0.00    +0.000 A 
ATOM     34  C   UNL     1      -3.398  13.720  24.278  0.00  0.00    +0.000 A 
ATOM     35  C   UNL     1      -2.316  14.547  24.011  0.00  0.00    +0.000 A 
ATOM     36  C   UNL     1      -1.230  14.066  23.268  0.00  0.00    +0.000 A 
ENDBRANCH  30  31
ENDBRANCH  22  30
ENDBRANCH   1  22
TORSDOF 7
ENDMDL
MODEL 7
REMARK VINA RESULT:      -8.3      0.984      1.395
REMARK  Name = 
REMARK  8 active torsions:
REMARK  status: ('A' for Active; 'I' for Inactive)
REMARK    1  A    between atoms: C_1  and  C_2
REMARK    2  A    between atoms: C_5  and  C_6
REMARK    3  A    between atoms: N_8  and  C_9
REMARK    4  A    between atoms: N_8  and  C_25
REMARK    5  A    between atoms: C_9  and  C_10
REMARK    6  A    between atoms: C_16  and  C_17
REMARK    7  A    between atoms: C_20  and  N_21
REMARK    8  A    between atoms: C_25  and  C_26
REMARK                            x       y       z     vdW  Elec       q    Type
REMARK                         _______ _______ _______ _____ _____    ______ ____
ROOT
ATOM      1  C   UNL     1       3.304   6.487  17.458  0.00  0.00    +0.000 C 
ENDROOT
BRANCH   1   2
ATOM      2  C   UNL     1       2.626   6.983  18.766  0.00  0.00    +0.000 C 
ATOM      3  O   UNL     1       2.959   6.460  19.831  0.00  0.00    +0.000 OA
ATOM      4  N   UNL     1       1.818   8.085  18.660  0.00  0.00    +0.000 N 
ATOM      5  C   UNL     1       1.392   8.805  19.746  0.00  0.00    +0.000 A 
ATOM      6  N   UNL     1       1.750   8.709  20.995  0.00  0.00    +0.000 NA
ATOM      7  C   UNL     1       0.968   9.563  21.751  0.00  0.00    +0.000 A 
ATOM      8  C   UNL     1       0.046  10.332  21.063  0.00  0.00    +0.000 A 
ATOM      9  S   UNL     1       0.229  10.001  19.381  0.00  0.00    +0.000 S 
ATOM     10  H   UNL     1       1.416   8.370  17.785  0.00  0.00    +0.000 HD
BRANCH   8  11
ATOM     11  C   UNL     1      -0.959  11.269  21.587  0.00  0.00    +0.000 A 
ATOM     12  C   UNL     1      -1.353  11.180  22.930  0.00  0.00    +0.000 A 
ATOM     13  C   UNL     1      -2.394  11.971  23.433  0.00  0.00    +0.000 A 
ATOM     14  C   UNL     1      -3.034  12.907  22.624  0.00  0.00    +0.000 A 
ATOM     15  C   UNL     1      -2.669  12.982  21.279  0.00  0.00    +0.000 A 
ATOM     16  C   UNL     1      -1.628  12.191  20.768  0.00  0.00    +0.000 A 
BRANCH  14  17
ATOM     17  N   UNL     1      -4.175  13.569  23.088  0.00  0.00    +0.000 N 
ATOM     18  H   UNL     1      -5.049  13.160  22.770  0.00  0.00    +0.000 HD
ATOM     19  H   UNL     1      -4.171  13.742  24.090  0.00  0.00    +0.000 HD
ENDBRANCH  14  17
ENDBRANCH   8  11
ENDBRANCH   1   2
BRANCH   1  22
ATOM     20  C   UNL     1       5.267   4.777  17.428  0.00  0.00    +0.000 C 
ATOM     21  O   UNL     1       5.639   3.616  17.255  0.00  0.00    +0.000 OA
ATOM     22  N   UNL     1       3.919   5.148  17.297  0.00  0.00    +0.000 N 
BRANCH  20  27
ATOM     23  C   UNL     1       8.825   9.114  18.520  0.00  0.00    +0.000 C 
ATOM     24  C   UNL     1       8.015   7.893  18.200  0.00  0.00    +0.000 A 
ATOM     25  C   UNL     1       8.111   6.750  18.991  0.00  0.00    +0.000 A 
ATOM     26  C   UNL     1       7.282   5.660  18.715  0.00  0.00    +0.000 A 
ATOM     27  C   UNL     1       6.342   5.752  17.692  0.00  0.00    +0.000 A 
ATOM     28  C   UNL     1       6.394   6.886  16.884  0.00  0.00    +0.000 A 
ATOM     29  N   UNL     1       7.195   7.955  17.127  0.00  0.00    +0.000 NA
ENDBRANCH  20  27
BRANCH  22  30
ATOM     30  C   UNL     1       2.954   4.019  17.310  0.00  0.00    +0.000 C 
BRANCH  30  31
ATOM     31  C   UNL     1       2.536   3.610  18.716  0.00  0.00    +0.000 A 
ATOM     32  C   UNL     1       3.490   3.186  19.660  0.00  0.00    +0.000 A 
ATOM     33  C   UNL     1       3.100   2.788  20.948  0.00  0.00    +0.000 A 
ATOM     34  C   UNL     1       1.755   2.824  21.307  0.00  0.00    +0.000 A 
ATOM     35  C   UNL     1       0.806   3.283  20.404  0.00  0.00    +0.000 A 
ATOM     36  C   UNL     1       1.194   3.687  19.121  0.00  0.00    +0.000 A 
ENDBRANCH  30  31
ENDBRANCH  22  30
ENDBRANCH   1  22
TORSDOF 7
ENDMDL
MODEL 8
REMARK VINA RESULT:      -8.0      1.743      2.435
REMARK  Name = 
REMARK  8 active torsions:
REMARK  status: ('A' for Active; 'I' for Inactive)
REMARK    1  A    between atoms: C_1  and  C_2
REMARK    2  A    between atoms: C_5  and  C_6
REMARK    3  A    between atoms: N_8  and  C_9
REMARK    4  A    between atoms: N_8  and  C_25
REMARK    5  A    between atoms: C_9  and  C_10
REMARK    6  A    between atoms: C_16  and  C_17
REMARK    7  A    between atoms: C_20  and  N_21
REMARK    8  A    between atoms: C_25  and  C_26
REMARK                            x       y       z     vdW  Elec       q    Type
REMARK                         _______ _______ _______ _____ _____    ______ ____
ROOT
ATOM      1  C   UNL     1       3.057   6.655  17.508  0.00  0.00    +0.000 C 
ENDROOT
BRANCH   1   2
ATOM      2  C   UNL     1       2.768   8.114  17.960  0.00  0.00    +0.000 C 
ATOM      3  O   UNL     1       3.354   9.032  17.381  0.00  0.00    +0.000 OA
ATOM      4  N   UNL     1       1.756   8.288  18.866  0.00  0.00    +0.000 N 
ATOM      5  C   UNL     1       1.195   9.511  19.134  0.00  0.00    +0.000 A 
ATOM      6  N   UNL     1       1.374  10.653  18.532  0.00  0.00    +0.000 NA
ATOM      7  C   UNL     1       0.688  11.634  19.224  0.00  0.00    +0.000 A 
ATOM      8  C   UNL     1      -0.040  11.222  20.326  0.00  0.00    +0.000 A 
ATOM      9  S   UNL     1       0.103   9.509  20.446  0.00  0.00    +0.000 S 
ATOM     10  H   UNL     1       1.431   7.542  19.454  0.00  0.00    +0.000 HD
BRANCH   8  11
ATOM     11  C   UNL     1      -0.807  12.028  21.288  0.00  0.00    +0.000 A 
ATOM     12  C   UNL     1      -1.244  11.443  22.485  0.00  0.00    +0.000 A 
ATOM     13  C   UNL     1      -2.081  12.140  23.368  0.00  0.00    +0.000 A 
ATOM     14  C   UNL     1      -2.460  13.454  23.104  0.00  0.00    +0.000 A 
ATOM     15  C   UNL     1      -2.054  14.033  21.902  0.00  0.00    +0.000 A 
ATOM     16  C   UNL     1      -1.218  13.340  21.012  0.00  0.00    +0.000 A 
BRANCH  14  17
ATOM     17  N   UNL     1      -3.423  14.078  23.904  0.00  0.00    +0.000 N 
ATOM     18  H   UNL     1      -4.089  13.438  24.325  0.00  0.00    +0.000 HD
ATOM     19  H   UNL     1      -3.035  14.731  24.580  0.00  0.00    +0.000 HD
ENDBRANCH  14  17
ENDBRANCH   8  11
ENDBRANCH   1   2
BRANCH   1  22
ATOM     20  C   UNL     1       4.991   4.962  17.923  0.00  0.00    +0.000 C 
ATOM     21  O   UNL     1       5.542   4.171  18.690  0.00  0.00    +0.000 OA
ATOM     22  N   UNL     1       3.845   5.681  18.300  0.00  0.00    +0.000 N 
BRANCH  20  27
ATOM     23  C   UNL     1       7.906   4.918  13.007  0.00  0.00    +0.000 C 
ATOM     24  C   UNL     1       7.033   5.008  14.223  0.00  0.00    +0.000 A 
ATOM     25  C   UNL     1       5.798   4.363  14.260  0.00  0.00    +0.000 A 
ATOM     26  C   UNL     1       5.048   4.398  15.439  0.00  0.00    +0.000 A 
ATOM     27  C   UNL     1       5.566   5.029  16.566  0.00  0.00    +0.000 A 
ATOM     28  C   UNL     1       6.753   5.741  16.405  0.00  0.00    +0.000 A 
ATOM     29  N   UNL     1       7.497   5.728  15.269  0.00  0.00    +0.000 NA
ENDBRANCH  20  27
BRANCH  22  30
ATOM     30  C   UNL     1       3.576   5.709  19.761  0.00  0.00    +0.000 C 
BRANCH  30  31
ATOM     31  C   UNL     1       2.627   4.608  20.213  0.00  0.00    +0.000 A 
ATOM     32  C   UNL     1       1.608   4.138  19.364  0.00  0.00    +0.000 A 
ATOM     33  C   UNL     1       0.720   3.138  19.790  0.00  0.00    +0.000 A 
ATOM     34  C   UNL     1       0.852   2.591  21.064  0.00  0.00    +0.000 A 
ATOM     35  C   UNL     1       1.880   3.010  21.898  0.00  0.00    +0.000 A 
ATOM     36  C   UNL     1       2.771   4.003  21.471  0.00  0.00    +0.000 A 
ENDBRANCH  30  31
ENDBRANCH  22  30
ENDBRANCH   1  22
TORSDOF 7
ENDMDL
MODEL 9
REMARK VINA RESULT:      -7.9      3.326      9.965
REMARK  Name = 
REMARK  8 active torsions:
REMARK  status: ('A' for Active; 'I' for Inactive)
REMARK    1  A    between atoms: C_1  and  C_2
REMARK    2  A    between atoms: C_5  and  C_6
REMARK    3  A    between atoms: N_8  and  C_9
REMARK    4  A    between atoms: N_8  and  C_25
REMARK    5  A    between atoms: C_9  and  C_10
REMARK    6  A    between atoms: C_16  and  C_17
REMARK    7  A    between atoms: C_20  and  N_21
REMARK    8  A    between atoms: C_25  and  C_26
REMARK                            x       y       z     vdW  Elec       q    Type
REMARK                         _______ _______ _______ _____ _____    ______ ____
ROOT
ATOM      1  C   UNL     1      -0.409  11.208  20.904  0.00  0.00    +0.000 C 
ENDROOT
BRANCH   1   2
ATOM      2  C   UNL     1       0.579  10.009  20.902  0.00  0.00    +0.000 C 
ATOM      3  O   UNL     1       0.791   9.425  21.966  0.00  0.00    +0.000 OA
ATOM      4  N   UNL     1       1.025   9.582  19.678  0.00  0.00    +0.000 N 
ATOM      5  C   UNL     1       1.654   8.378  19.492  0.00  0.00    +0.000 A 
ATOM      6  N   UNL     1       1.818   7.392  20.328  0.00  0.00    +0.000 NA
ATOM      7  C   UNL     1       2.615   6.431  19.733  0.00  0.00    +0.000 A 
ATOM      8  C   UNL     1       3.020   6.678  18.434  0.00  0.00    +0.000 A 
ATOM      9  S   UNL     1       2.303   8.161  17.928  0.00  0.00    +0.000 S 
ATOM     10  H   UNL     1       0.998  10.170  18.865  0.00  0.00    +0.000 HD
BRANCH   8  11
ATOM     11  C   UNL     1       3.915   5.889  17.573  0.00  0.00    +0.000 A 
ATOM     12  C   UNL     1       4.783   6.549  16.691  0.00  0.00    +0.000 A 
ATOM     13  C   UNL     1       5.559   5.834  15.769  0.00  0.00    +0.000 A 
ATOM     14  C   UNL     1       5.527   4.442  15.738  0.00  0.00    +0.000 A 
ATOM     15  C   UNL     1       4.644   3.779  16.591  0.00  0.00    +0.000 A 
ATOM     16  C   UNL     1       3.863   4.489  17.516  0.00  0.00    +0.000 A 
BRANCH  14  17
ATOM     17  N   UNL     1       6.176   3.750  14.709  0.00  0.00    +0.000 N 
ATOM     18  H   UNL     1       5.672   3.753  13.828  0.00  0.00    +0.000 HD
ATOM     19  H   UNL     1       7.154   4.004  14.597  0.00  0.00    +0.000 HD
ENDBRANCH  14  17
ENDBRANCH   8  11
ENDBRANCH   1   2
BRANCH   1  22
ATOM     20  C   UNL     1      -0.187  13.491  22.136  0.00  0.00    +0.000 C 
ATOM     21  O   UNL     1      -0.385  14.152  23.156  0.00  0.00    +0.000 OA
ATOM     22  N   UNL     1      -0.577  12.146  22.040  0.00  0.00    +0.000 N 
BRANCH  20  27
ATOM     23  C   UNL     1       3.092  15.450  17.885  0.00  0.00    +0.000 C 
ATOM     24  C   UNL     1       2.191  15.082  19.025  0.00  0.00    +0.000 A 
ATOM     25  C   UNL     1       0.812  15.259  18.926  0.00  0.00    +0.000 A 
ATOM     26  C   UNL     1      -0.006  14.828  19.974  0.00  0.00    +0.000 A 
ATOM     27  C   UNL     1       0.561  14.184  21.070  0.00  0.00    +0.000 A 
ATOM     28  C   UNL     1       1.952  14.151  21.135  0.00  0.00    +0.000 A 
ATOM     29  N   UNL     1       2.769  14.570  20.134  0.00  0.00    +0.000 NA
ENDBRANCH  20  27
BRANCH  22  30
ATOM     30  C   UNL     1      -1.550  11.700  23.071  0.00  0.00    +0.000 C 
BRANCH  30  31
ATOM     31  C   UNL     1      -2.930  12.317  22.892  0.00  0.00    +0.000 A 
ATOM     32  C   UNL     1      -3.399  12.683  21.618  0.00  0.00    +0.000 A 
ATOM     33  C   UNL     1      -4.663  13.272  21.458  0.00  0.00    +0.000 A 
ATOM     34  C   UNL     1      -5.474  13.488  22.570  0.00  0.00    +0.000 A 
ATOM     35  C   UNL     1      -5.046  13.090  23.829  0.00  0.00    +0.000 A 
ATOM     36  C   UNL     1      -3.788  12.496  23.989  0.00  0.00    +0.000 A 
ENDBRANCH  30  31
ENDBRANCH  22  30
ENDBRANCH   1  22
TORSDOF 7
ENDMDL
