MODEL 1
REMARK VINA RESULT:      -6.4      0.000      0.000
REMARK  Name = 
REMARK  7 active torsions:
REMARK  status: ('A' for Active; 'I' for Inactive)
REMARK    1  A    between atoms: C_1  and  C_2
REMARK    2  A    between atoms: C_2  and  C_3
REMARK    3  A    between atoms: C_3  and  O_5
REMARK    4  A    between atoms: O_5  and  C_6
REMARK    5  A    between atoms: C_6  and  C_7
REMARK    6  A    between atoms: N_15  and  C_16
REMARK    7  A    between atoms: C_17  and  C_18
REMARK                            x       y       z     vdW  Elec       q    Type
REMARK                         _______ _______ _______ _____ _____    ______ ____
ROOT
ATOM      1  C   UNL     1       4.204   4.829  19.037  0.00  0.00    +0.000 C 
ATOM      2  C   UNL     1       5.748   4.893  19.126  0.00  0.00    +0.000 C 
ATOM      3  C   UNL     1       6.223   4.894  17.692  0.00  0.00    +0.000 C 
ATOM      4  N   UNL     1       5.331   3.970  16.990  0.00  0.00    +0.000 NA
ATOM      5  C   UNL     1       5.167   4.378  15.601  0.00  0.00    +0.000 C 
ATOM      6  C   UNL     1       4.094   3.825  17.811  0.00  0.00    +0.000 C 
ATOM      7  C   UNL     1       2.783   3.764  17.022  0.00  0.00    +0.000 C 
ENDROOT
BRANCH   1   8
ATOM      8  C   UNL     1       3.432   6.140  18.834  0.00  0.00    +0.000 A 
ATOM      9  C   UNL     1       3.642   6.994  17.740  0.00  0.00    +0.000 A 
ATOM     10  C   UNL     1       2.925   8.187  17.604  0.00  0.00    +0.000 A 
ATOM     11  C   UNL     1       1.975   8.552  18.552  0.00  0.00    +0.000 A 
ATOM     12  C   UNL     1       1.771   7.746  19.666  0.00  0.00    +0.000 A 
ATOM     13  C   UNL     1       2.513   6.573  19.817  0.00  0.00    +0.000 A 
ENDBRANCH   1   8
BRANCH   1  14
ATOM     14  O   UNL     1       3.697   4.189  20.250  0.00  0.00    +0.000 OA
BRANCH  14  15
ATOM     15  C   UNL     1       3.688   2.822  20.268  0.00  0.00    +0.000 C 
ATOM     16  O   UNL     1       4.677   2.101  20.299  0.00  0.00    +0.000 OA
BRANCH  15  18
ATOM     17  C   UNL     1       1.330   3.210  20.995  0.00  0.00    +0.000 C 
ATOM     18  C   UNL     1       2.276   2.292  20.230  0.00  0.00    +0.000 C 
ENDBRANCH  15  18
ENDBRANCH  14  15
ENDBRANCH   1  14
TORSDOF 4
ENDMDL
MODEL 2
REMARK VINA RESULT:      -6.3      0.069      1.134
REMARK  Name = 
REMARK  7 active torsions:
REMARK  status: ('A' for Active; 'I' for Inactive)
REMARK    1  A    between atoms: C_1  and  C_2
REMARK    2  A    between atoms: C_2  and  C_3
REMARK    3  A    between atoms: C_3  and  O_5
REMARK    4  A    between atoms: O_5  and  C_6
REMARK    5  A    between atoms: C_6  and  C_7
REMARK    6  A    between atoms: N_15  and  C_16
REMARK    7  A    between atoms: C_17  and  C_18
REMARK                            x       y       z     vdW  Elec       q    Type
REMARK                         _______ _______ _______ _____ _____    ______ ____
ROOT
ATOM      1  C   UNL     1       4.197   4.803  19.077  0.00  0.00    +0.000 C 
ATOM      2  C   UNL     1       5.741   4.860  19.168  0.00  0.00    +0.000 C 
ATOM      3  C   UNL     1       6.218   4.885  17.736  0.00  0.00    +0.000 C 
ATOM      4  N   UNL     1       5.323   3.976  17.016  0.00  0.00    +0.000 NA
ATOM      5  C   UNL     1       5.162   4.410  15.634  0.00  0.00    +0.000 C 
ATOM      6  C   UNL     1       4.085   3.821  17.833  0.00  0.00    +0.000 C 
ATOM      7  C   UNL     1       2.774   3.779  17.042  0.00  0.00    +0.000 C 
ENDROOT
BRANCH   1   8
ATOM      8  C   UNL     1       3.430   6.120  18.897  0.00  0.00    +0.000 A 
ATOM      9  C   UNL     1       2.449   6.567  19.796  0.00  0.00    +0.000 A 
ATOM     10  C   UNL     1       1.764   7.767  19.584  0.00  0.00    +0.000 A 
ATOM     11  C   UNL     1       2.047   8.555  18.473  0.00  0.00    +0.000 A 
ATOM     12  C   UNL     1       2.986   8.120  17.545  0.00  0.00    +0.000 A 
ATOM     13  C   UNL     1       3.643   6.904  17.741  0.00  0.00    +0.000 A 
ENDBRANCH   1   8
BRANCH   1  14
ATOM     14  O   UNL     1       3.686   4.143  20.278  0.00  0.00    +0.000 OA
BRANCH  14  15
ATOM     15  C   UNL     1       3.686   2.776  20.277  0.00  0.00    +0.000 C 
ATOM     16  O   UNL     1       4.680   2.062  20.326  0.00  0.00    +0.000 OA
BRANCH  15  18
ATOM     17  C   UNL     1       1.321   3.094  21.012  0.00  0.00    +0.000 C 
ATOM     18  C   UNL     1       2.280   2.238  20.194  0.00  0.00    +0.000 C 
ENDBRANCH  15  18
ENDBRANCH  14  15
ENDBRANCH   1  14
TORSDOF 4
ENDMDL
MODEL 3
REMARK VINA RESULT:      -6.2      1.820      3.462
REMARK  Name = 
REMARK  7 active torsions:
REMARK  status: ('A' for Active; 'I' for Inactive)
REMARK    1  A    between atoms: C_1  and  C_2
REMARK    2  A    between atoms: C_2  and  C_3
REMARK    3  A    between atoms: C_3  and  O_5
REMARK    4  A    between atoms: O_5  and  C_6
REMARK    5  A    between atoms: C_6  and  C_7
REMARK    6  A    between atoms: N_15  and  C_16
REMARK    7  A    between atoms: C_17  and  C_18
REMARK                            x       y       z     vdW  Elec       q    Type
REMARK                         _______ _______ _______ _____ _____    ______ ____
ROOT
ATOM      1  C   UNL     1       4.956   4.760  18.496  0.00  0.00    +0.000 C 
ATOM      2  C   UNL     1       5.442   4.323  17.093  0.00  0.00    +0.000 C 
ATOM      3  C   UNL     1       4.370   3.391  16.580  0.00  0.00    +0.000 C 
ATOM      4  N   UNL     1       3.947   2.612  17.745  0.00  0.00    +0.000 NA
ATOM      5  C   UNL     1       2.544   2.238  17.625  0.00  0.00    +0.000 C 
ATOM      6  C   UNL     1       4.352   3.367  18.965  0.00  0.00    +0.000 C 
ATOM      7  C   UNL     1       3.342   3.351  20.116  0.00  0.00    +0.000 C 
ENDROOT
BRANCH   1   8
ATOM      8  C   UNL     1       3.965   5.928  18.592  0.00  0.00    +0.000 A 
ATOM      9  C   UNL     1       3.855   6.925  17.609  0.00  0.00    +0.000 A 
ATOM     10  C   UNL     1       2.948   7.980  17.746  0.00  0.00    +0.000 A 
ATOM     11  C   UNL     1       2.122   8.061  18.862  0.00  0.00    +0.000 A 
ATOM     12  C   UNL     1       2.234   7.110  19.869  0.00  0.00    +0.000 A 
ATOM     13  C   UNL     1       3.165   6.077  19.746  0.00  0.00    +0.000 A 
ENDBRANCH   1   8
BRANCH   1  14
ATOM     14  O   UNL     1       6.126   5.092  19.308  0.00  0.00    +0.000 OA
BRANCH  14  15
ATOM     15  C   UNL     1       7.319   5.215  18.650  0.00  0.00    +0.000 C 
ATOM     16  O   UNL     1       7.921   4.309  18.090  0.00  0.00    +0.000 OA
BRANCH  15  18
ATOM     17  C   UNL     1       7.506   7.380  17.419  0.00  0.00    +0.000 C 
ATOM     18  C   UNL     1       7.822   6.636  18.711  0.00  0.00    +0.000 C 
ENDBRANCH  15  18
ENDBRANCH  14  15
ENDBRANCH   1  14
TORSDOF 4
ENDMDL
MODEL 4
REMARK VINA RESULT:      -6.2      1.528      2.019
REMARK  Name = 
REMARK  7 active torsions:
REMARK  status: ('A' for Active; 'I' for Inactive)
REMARK    1  A    between atoms: C_1  and  C_2
REMARK    2  A    between atoms: C_2  and  C_3
REMARK    3  A    between atoms: C_3  and  O_5
REMARK    4  A    between atoms: O_5  and  C_6
REMARK    5  A    between atoms: C_6  and  C_7
REMARK    6  A    between atoms: N_15  and  C_16
REMARK    7  A    between atoms: C_17  and  C_18
REMARK                            x       y       z     vdW  Elec       q    Type
REMARK                         _______ _______ _______ _____ _____    ______ ____
ROOT
ATOM      1  C   UNL     1       3.923   5.038  17.895  0.00  0.00    +0.000 C 
ATOM      2  C   UNL     1       4.636   4.236  19.009  0.00  0.00    +0.000 C 
ATOM      3  C   UNL     1       5.971   4.919  19.192  0.00  0.00    +0.000 C 
ATOM      4  N   UNL     1       6.398   5.294  17.843  0.00  0.00    +0.000 NA
ATOM      5  C   UNL     1       7.207   6.506  17.884  0.00  0.00    +0.000 C 
ATOM      6  C   UNL     1       5.188   5.309  16.973  0.00  0.00    +0.000 C 
ATOM      7  C   UNL     1       5.125   6.447  15.949  0.00  0.00    +0.000 C 
ENDROOT
BRANCH   1   8
ATOM      8  C   UNL     1       3.161   6.312  18.290  0.00  0.00    +0.000 A 
ATOM      9  C   UNL     1       2.983   7.400  17.421  0.00  0.00    +0.000 A 
ATOM     10  C   UNL     1       2.294   8.546  17.829  0.00  0.00    +0.000 A 
ATOM     11  C   UNL     1       1.760   8.632  19.110  0.00  0.00    +0.000 A 
ATOM     12  C   UNL     1       1.952   7.585  20.005  0.00  0.00    +0.000 A 
ATOM     13  C   UNL     1       2.670   6.456  19.606  0.00  0.00    +0.000 A 
ENDBRANCH   1   8
BRANCH   1  14
ATOM     14  O   UNL     1       2.989   4.148  17.208  0.00  0.00    +0.000 OA
BRANCH  14  15
ATOM     15  C   UNL     1       2.578   3.038  17.894  0.00  0.00    +0.000 C 
ATOM     16  O   UNL     1       3.216   2.001  18.022  0.00  0.00    +0.000 OA
BRANCH  15  18
ATOM     17  C   UNL     1       1.210   3.010  19.983  0.00  0.00    +0.000 C 
ATOM     18  C   UNL     1       1.203   3.244  18.478  0.00  0.00    +0.000 C 
ENDBRANCH  15  18
ENDBRANCH  14  15
ENDBRANCH   1  14
TORSDOF 4
ENDMDL
MODEL 5
REMARK VINA RESULT:      -6.1      2.792      4.879
REMARK  Name = 
REMARK  7 active torsions:
REMARK  status: ('A' for Active; 'I' for Inactive)
REMARK    1  A    between atoms: C_1  and  C_2
REMARK    2  A    between atoms: C_2  and  C_3
REMARK    3  A    between atoms: C_3  and  O_5
REMARK    4  A    between atoms: O_5  and  C_6
REMARK    5  A    between atoms: C_6  and  C_7
REMARK    6  A    between atoms: N_15  and  C_16
REMARK    7  A    between atoms: C_17  and  C_18
REMARK                            x       y       z     vdW  Elec       q    Type
REMARK                         _______ _______ _______ _____ _____    ______ ____
ROOT
ATOM      1  C   UNL     1       5.991   4.635  16.802  0.00  0.00    +0.000 C 
ATOM      2  C   UNL     1       7.348   4.475  17.528  0.00  0.00    +0.000 C 
ATOM      3  C   UNL     1       7.671   5.851  18.062  0.00  0.00    +0.000 C 
ATOM      4  N   UNL     1       7.234   6.780  17.019  0.00  0.00    +0.000 NA
ATOM      5  C   UNL     1       6.809   8.043  17.609  0.00  0.00    +0.000 C 
ATOM      6  C   UNL     1       6.251   6.063  16.157  0.00  0.00    +0.000 C 
ATOM      7  C   UNL     1       5.051   6.893  15.693  0.00  0.00    +0.000 C 
ENDROOT
BRANCH   1   8
ATOM      8  C   UNL     1       4.705   4.558  17.637  0.00  0.00    +0.000 A 
ATOM      9  C   UNL     1       4.594   5.099  18.927  0.00  0.00    +0.000 A 
ATOM     10  C   UNL     1       3.406   4.992  19.658  0.00  0.00    +0.000 A 
ATOM     11  C   UNL     1       2.298   4.350  19.115  0.00  0.00    +0.000 A 
ATOM     12  C   UNL     1       2.390   3.773  17.854  0.00  0.00    +0.000 A 
ATOM     13  C   UNL     1       3.588   3.851  17.141  0.00  0.00    +0.000 A 
ENDBRANCH   1   8
BRANCH   1  14
ATOM     14  O   UNL     1       5.907   3.623  15.750  0.00  0.00    +0.000 OA
BRANCH  14  15
ATOM     15  C   UNL     1       6.337   3.990  14.505  0.00  0.00    +0.000 C 
ATOM     16  O   UNL     1       7.444   4.440  14.235  0.00  0.00    +0.000 OA
BRANCH  15  18
ATOM     17  C   UNL     1       5.832   3.246  12.175  0.00  0.00    +0.000 C 
ATOM     18  C   UNL     1       5.252   3.783  13.478  0.00  0.00    +0.000 C 
ENDBRANCH  15  18
ENDBRANCH  14  15
ENDBRANCH   1  14
TORSDOF 4
ENDMDL
MODEL 6
REMARK VINA RESULT:      -6.1      1.727      3.743
REMARK  Name = 
REMARK  7 active torsions:
REMARK  status: ('A' for Active; 'I' for Inactive)
REMARK    1  A    between atoms: C_1  and  C_2
REMARK    2  A    between atoms: C_2  and  C_3
REMARK    3  A    between atoms: C_3  and  O_5
REMARK    4  A    between atoms: O_5  and  C_6
REMARK    5  A    between atoms: C_6  and  C_7
REMARK    6  A    between atoms: N_15  and  C_16
REMARK    7  A    between atoms: C_17  and  C_18
REMARK                            x       y       z     vdW  Elec       q    Type
REMARK                         _______ _______ _______ _____ _____    ______ ____
ROOT
ATOM      1  C   UNL     1       3.720   5.297  18.914  0.00  0.00    +0.000 C 
ATOM      2  C   UNL     1       3.835   4.559  17.560  0.00  0.00    +0.000 C 
ATOM      3  C   UNL     1       2.574   3.736  17.453  0.00  0.00    +0.000 C 
ATOM      4  N   UNL     1       2.321   3.241  18.807  0.00  0.00    +0.000 NA
ATOM      5  C   UNL     1       0.890   3.081  19.031  0.00  0.00    +0.000 C 
ATOM      6  C   UNL     1       3.067   4.118  19.755  0.00  0.00    +0.000 C 
ATOM      7  C   UNL     1       2.334   4.457  21.056  0.00  0.00    +0.000 C 
ENDROOT
BRANCH   1   8
ATOM      8  C   UNL     1       2.921   6.607  18.963  0.00  0.00    +0.000 A 
ATOM      9  C   UNL     1       2.226   7.042  20.103  0.00  0.00    +0.000 A 
ATOM     10  C   UNL     1       1.499   8.236  20.097  0.00  0.00    +0.000 A 
ATOM     11  C   UNL     1       1.454   9.030  18.956  0.00  0.00    +0.000 A 
ATOM     12  C   UNL     1       2.101   8.608  17.801  0.00  0.00    +0.000 A 
ATOM     13  C   UNL     1       2.798   7.398  17.799  0.00  0.00    +0.000 A 
ENDBRANCH   1   8
BRANCH   1  14
ATOM     14  O   UNL     1       5.068   5.572  19.409  0.00  0.00    +0.000 OA
BRANCH  14  15
ATOM     15  C   UNL     1       6.103   5.313  18.553  0.00  0.00    +0.000 C 
ATOM     16  O   UNL     1       6.751   4.275  18.509  0.00  0.00    +0.000 OA
BRANCH  15  18
ATOM     17  C   UNL     1       7.718   7.126  17.970  0.00  0.00    +0.000 C 
ATOM     18  C   UNL     1       6.367   6.495  17.655  0.00  0.00    +0.000 C 
ENDBRANCH  15  18
ENDBRANCH  14  15
ENDBRANCH   1  14
TORSDOF 4
ENDMDL
MODEL 7
REMARK VINA RESULT:      -6.1      1.551      2.318
REMARK  Name = 
REMARK  7 active torsions:
REMARK  status: ('A' for Active; 'I' for Inactive)
REMARK    1  A    between atoms: C_1  and  C_2
REMARK    2  A    between atoms: C_2  and  C_3
REMARK    3  A    between atoms: C_3  and  O_5
REMARK    4  A    between atoms: O_5  and  C_6
REMARK    5  A    between atoms: C_6  and  C_7
REMARK    6  A    between atoms: N_15  and  C_16
REMARK    7  A    between atoms: C_17  and  C_18
REMARK                            x       y       z     vdW  Elec       q    Type
REMARK                         _______ _______ _______ _____ _____    ______ ____
ROOT
ATOM      1  C   UNL     1       3.980   5.027  17.922  0.00  0.00    +0.000 C 
ATOM      2  C   UNL     1       4.718   4.182  18.987  0.00  0.00    +0.000 C 
ATOM      3  C   UNL     1       6.041   4.881  19.195  0.00  0.00    +0.000 C 
ATOM      4  N   UNL     1       6.449   5.335  17.864  0.00  0.00    +0.000 NA
ATOM      5  C   UNL     1       7.234   6.559  17.963  0.00  0.00    +0.000 C 
ATOM      6  C   UNL     1       5.232   5.371  17.006  0.00  0.00    +0.000 C 
ATOM      7  C   UNL     1       5.138   6.559  16.043  0.00  0.00    +0.000 C 
ENDROOT
BRANCH   1   8
ATOM      8  C   UNL     1       3.197   6.263  18.387  0.00  0.00    +0.000 A 
ATOM      9  C   UNL     1       2.695   6.408  19.691  0.00  0.00    +0.000 A 
ATOM     10  C   UNL     1       1.974   7.545  20.066  0.00  0.00    +0.000 A 
ATOM     11  C   UNL     1       1.741   8.568  19.153  0.00  0.00    +0.000 A 
ATOM     12  C   UNL     1       2.193   8.436  17.845  0.00  0.00    +0.000 A 
ATOM     13  C   UNL     1       2.883   7.284  17.463  0.00  0.00    +0.000 A 
ENDBRANCH   1   8
BRANCH   1  14
ATOM     14  O   UNL     1       3.058   4.155  17.196  0.00  0.00    +0.000 OA
BRANCH  14  15
ATOM     15  C   UNL     1       2.566   3.075  17.877  0.00  0.00    +0.000 C 
ATOM     16  O   UNL     1       3.133   1.998  18.012  0.00  0.00    +0.000 OA
BRANCH  15  18
ATOM     17  C   UNL     1       1.132   2.995  19.920  0.00  0.00    +0.000 C 
ATOM     18  C   UNL     1       1.202   3.373  18.445  0.00  0.00    +0.000 C 
ENDBRANCH  15  18
ENDBRANCH  14  15
ENDBRANCH   1  14
TORSDOF 4
ENDMDL
MODEL 8
REMARK VINA RESULT:      -6.0      3.084      5.215
REMARK  Name = 
REMARK  7 active torsions:
REMARK  status: ('A' for Active; 'I' for Inactive)
REMARK    1  A    between atoms: C_1  and  C_2
REMARK    2  A    between atoms: C_2  and  C_3
REMARK    3  A    between atoms: C_3  and  O_5
REMARK    4  A    between atoms: O_5  and  C_6
REMARK    5  A    between atoms: C_6  and  C_7
REMARK    6  A    between atoms: N_15  and  C_16
REMARK    7  A    between atoms: C_17  and  C_18
REMARK                            x       y       z     vdW  Elec       q    Type
REMARK                         _______ _______ _______ _____ _____    ______ ____
ROOT
ATOM      1  C   UNL     1       6.098   5.419  16.289  0.00  0.00    +0.000 C 
ATOM      2  C   UNL     1       7.027   4.189  16.421  0.00  0.00    +0.000 C 
ATOM      3  C   UNL     1       7.688   4.341  17.770  0.00  0.00    +0.000 C 
ATOM      4  N   UNL     1       7.952   5.774  17.911  0.00  0.00    +0.000 NA
ATOM      5  C   UNL     1       7.896   6.167  19.313  0.00  0.00    +0.000 C 
ATOM      6  C   UNL     1       7.055   6.494  16.962  0.00  0.00    +0.000 C 
ATOM      7  C   UNL     1       6.446   7.797  17.490  0.00  0.00    +0.000 C 
ENDROOT
BRANCH   1   8
ATOM      8  C   UNL     1       4.702   5.349  16.925  0.00  0.00    +0.000 A 
ATOM      9  C   UNL     1       4.064   6.458  17.502  0.00  0.00    +0.000 A 
ATOM     10  C   UNL     1       2.798   6.344  18.084  0.00  0.00    +0.000 A 
ATOM     11  C   UNL     1       2.134   5.122  18.097  0.00  0.00    +0.000 A 
ATOM     12  C   UNL     1       2.756   3.998  17.566  0.00  0.00    +0.000 A 
ATOM     13  C   UNL     1       4.035   4.108  17.017  0.00  0.00    +0.000 A 
ENDBRANCH   1   8
BRANCH   1  14
ATOM     14  O   UNL     1       5.931   5.724  14.868  0.00  0.00    +0.000 OA
BRANCH  14  15
ATOM     15  C   UNL     1       6.760   5.072  13.997  0.00  0.00    +0.000 C 
ATOM     16  O   UNL     1       7.892   5.424  13.690  0.00  0.00    +0.000 OA
BRANCH  15  18
ATOM     17  C   UNL     1       6.664   3.488  12.069  0.00  0.00    +0.000 C 
ATOM     18  C   UNL     1       6.091   3.843  13.435  0.00  0.00    +0.000 C 
ENDBRANCH  15  18
ENDBRANCH  14  15
ENDBRANCH   1  14
TORSDOF 4
ENDMDL
MODEL 9
REMARK VINA RESULT:      -6.0      2.800      4.831
REMARK  Name = 
REMARK  7 active torsions:
REMARK  status: ('A' for Active; 'I' for Inactive)
REMARK    1  A    between atoms: C_1  and  C_2
REMARK    2  A    between atoms: C_2  and  C_3
REMARK    3  A    between atoms: C_3  and  O_5
REMARK    4  A    between atoms: O_5  and  C_6
REMARK    5  A    between atoms: C_6  and  C_7
REMARK    6  A    between atoms: N_15  and  C_16
REMARK    7  A    between atoms: C_17  and  C_18
REMARK                            x       y       z     vdW  Elec       q    Type
REMARK                         _______ _______ _______ _____ _____    ______ ____
ROOT
ATOM      1  C   UNL     1       6.008   4.628  16.786  0.00  0.00    +0.000 C 
ATOM      2  C   UNL     1       7.362   4.475  17.519  0.00  0.00    +0.000 C 
ATOM      3  C   UNL     1       7.673   5.851  18.059  0.00  0.00    +0.000 C 
ATOM      4  N   UNL     1       7.236   6.781  17.016  0.00  0.00    +0.000 NA
ATOM      5  C   UNL     1       6.800   8.039  17.608  0.00  0.00    +0.000 C 
ATOM      6  C   UNL     1       6.263   6.060  16.147  0.00  0.00    +0.000 C 
ATOM      7  C   UNL     1       5.060   6.884  15.678  0.00  0.00    +0.000 C 
ENDROOT
BRANCH   1   8
ATOM      8  C   UNL     1       4.718   4.541  17.613  0.00  0.00    +0.000 A 
ATOM      9  C   UNL     1       3.547   3.924  17.147  0.00  0.00    +0.000 A 
ATOM     10  C   UNL     1       2.389   3.881  17.930  0.00  0.00    +0.000 A 
ATOM     11  C   UNL     1       2.375   4.447  19.200  0.00  0.00    +0.000 A 
ATOM     12  C   UNL     1       3.508   5.097  19.675  0.00  0.00    +0.000 A 
ATOM     13  C   UNL     1       4.651   5.169  18.877  0.00  0.00    +0.000 A 
ENDBRANCH   1   8
BRANCH   1  14
ATOM     14  O   UNL     1       5.937   3.619  15.730  0.00  0.00    +0.000 OA
BRANCH  14  15
ATOM     15  C   UNL     1       6.356   3.998  14.485  0.00  0.00    +0.000 C 
ATOM     16  O   UNL     1       7.461   4.448  14.210  0.00  0.00    +0.000 OA
BRANCH  15  18
ATOM     17  C   UNL     1       5.821   3.232  12.169  0.00  0.00    +0.000 C 
ATOM     18  C   UNL     1       5.261   3.803  13.466  0.00  0.00    +0.000 C 
ENDBRANCH  15  18
ENDBRANCH  14  15
ENDBRANCH   1  14
TORSDOF 4
ENDMDL
