MODEL 1
REMARK VINA RESULT:      -7.6      0.000      0.000
REMARK  Name = 
REMARK  8 active torsions:
REMARK  status: ('A' for Active; 'I' for Inactive)
REMARK    1  A    between atoms: C_1  and  C_2
REMARK    2  A    between atoms: C_2  and  C_3
REMARK    3  A    between atoms: C_3  and  C_4
REMARK    4  A    between atoms: C_4  and  N_5
REMARK    5  A    between atoms: C_9  and  C_10
REMARK    6  A    between atoms: C_11  and  C_12
REMARK    7  A    between atoms: C_16  and  C_17
REMARK    8  A    between atoms: C_18  and  C_19
REMARK                            x       y       z     vdW  Elec       q    Type
REMARK                         _______ _______ _______ _____ _____    ______ ____
ROOT
ATOM      1  C   UNL     1       7.822   7.007  17.638  0.00  0.00    +0.000 C 
ATOM      2  C   UNL     1       7.465   8.285  17.833  0.00  0.00    +0.000 C 
ENDROOT
BRANCH   2   3
ATOM      3  C   UNL     1       8.287   9.431  18.221  0.00  0.00    +0.000 A 
ATOM      4  N   UNL     1       8.046  10.593  17.593  0.00  0.00    +0.000 NA
ATOM      5  C   UNL     1       9.008  11.395  18.023  0.00  0.00    +0.000 A 
ATOM      6  C   UNL     1       9.258  12.657  17.554  0.00  0.00    +0.000 A 
ATOM      7  C   UNL     1      10.388  13.328  18.039  0.00  0.00    +0.000 A 
ATOM      8  C   UNL     1      10.783  14.599  17.343  0.00  0.00    +0.000 C 
ATOM      9  C   UNL     1      11.177  12.741  19.082  0.00  0.00    +0.000 A 
ATOM     10  C   UNL     1      12.333  13.500  19.675  0.00  0.00    +0.000 C 
ATOM     11  C   UNL     1      10.877  11.421  19.526  0.00  0.00    +0.000 A 
ATOM     12  C   UNL     1       9.795  10.761  18.933  0.00  0.00    +0.000 A 
ATOM     13  N   UNL     1       9.344   9.497  19.082  0.00  0.00    +0.000 N 
ATOM     14  H   UNL     1       9.751   8.735  19.671  0.00  0.00    +0.000 HD
ENDBRANCH   2   3
BRANCH   1  19
ATOM     15  N   UNL     1       4.719   4.807  17.323  0.00  0.00    +0.000 N 
ATOM     16  C   UNL     1       4.990   4.121  16.175  0.00  0.00    +0.000 A 
ATOM     17  C   UNL     1       6.176   4.347  15.476  0.00  0.00    +0.000 A 
ATOM     18  C   UNL     1       7.091   5.288  15.953  0.00  0.00    +0.000 A 
ATOM     19  C   UNL     1       6.829   5.994  17.134  0.00  0.00    +0.000 A 
ATOM     20  C   UNL     1       5.606   5.726  17.799  0.00  0.00    +0.000 A 
BRANCH  15  21
ATOM     21  C   UNL     1       3.463   4.574  18.062  0.00  0.00    +0.000 C 
BRANCH  21  22
ATOM     22  C   UNL     1       2.499   3.647  17.297  0.00  0.00    +0.000 C 
BRANCH  22  24
ATOM     23  C   UNL     1       0.864   2.422  18.781  0.00  0.00    +0.000 C 
ATOM     24  C   UNL     1       2.216   2.358  18.078  0.00  0.00    +0.000 C 
ENDBRANCH  22  24
ENDBRANCH  21  22
ENDBRANCH  15  21
ENDBRANCH   1  19
TORSDOF 5
ENDMDL
MODEL 2
REMARK VINA RESULT:      -7.5      0.938      1.255
REMARK  Name = 
REMARK  8 active torsions:
REMARK  status: ('A' for Active; 'I' for Inactive)
REMARK    1  A    between atoms: C_1  and  C_2
REMARK    2  A    between atoms: C_2  and  C_3
REMARK    3  A    between atoms: C_3  and  C_4
REMARK    4  A    between atoms: C_4  and  N_5
REMARK    5  A    between atoms: C_9  and  C_10
REMARK    6  A    between atoms: C_11  and  C_12
REMARK    7  A    between atoms: C_16  and  C_17
REMARK    8  A    between atoms: C_18  and  C_19
REMARK                            x       y       z     vdW  Elec       q    Type
REMARK                         _______ _______ _______ _____ _____    ______ ____
ROOT
ATOM      1  C   UNL     1       7.748   7.010  17.840  0.00  0.00    +0.000 C 
ATOM      2  C   UNL     1       7.460   8.320  17.814  0.00  0.00    +0.000 C 
ENDROOT
BRANCH   2   3
ATOM      3  C   UNL     1       8.285   9.460  18.212  0.00  0.00    +0.000 A 
ATOM      4  N   UNL     1       8.096  10.609  17.544  0.00  0.00    +0.000 NA
ATOM      5  C   UNL     1       9.051  11.405  18.000  0.00  0.00    +0.000 A 
ATOM      6  C   UNL     1       9.349  12.650  17.512  0.00  0.00    +0.000 A 
ATOM      7  C   UNL     1      10.467  13.312  18.034  0.00  0.00    +0.000 A 
ATOM      8  C   UNL     1      10.919  14.558  17.326  0.00  0.00    +0.000 C 
ATOM      9  C   UNL     1      11.192  12.739  19.129  0.00  0.00    +0.000 A 
ATOM     10  C   UNL     1      12.333  13.492  19.759  0.00  0.00    +0.000 C 
ATOM     11  C   UNL     1      10.846  11.437  19.591  0.00  0.00    +0.000 A 
ATOM     12  C   UNL     1       9.782  10.781  18.963  0.00  0.00    +0.000 A 
ATOM     13  N   UNL     1       9.300   9.530  19.122  0.00  0.00    +0.000 N 
ATOM     14  H   UNL     1       9.662   8.777  19.749  0.00  0.00    +0.000 HD
ENDBRANCH   2   3
BRANCH   1  19
ATOM     15  N   UNL     1       4.646   4.850  17.313  0.00  0.00    +0.000 N 
ATOM     16  C   UNL     1       5.009   4.117  16.220  0.00  0.00    +0.000 A 
ATOM     17  C   UNL     1       6.260   4.299  15.628  0.00  0.00    +0.000 A 
ATOM     18  C   UNL     1       7.144   5.242  16.155  0.00  0.00    +0.000 A 
ATOM     19  C   UNL     1       6.786   5.995  17.280  0.00  0.00    +0.000 A 
ATOM     20  C   UNL     1       5.502   5.771  17.836  0.00  0.00    +0.000 A 
BRANCH  15  21
ATOM     21  C   UNL     1       3.322   4.664  17.938  0.00  0.00    +0.000 C 
BRANCH  21  22
ATOM     22  C   UNL     1       2.607   6.003  18.201  0.00  0.00    +0.000 C 
BRANCH  22  24
ATOM     23  C   UNL     1       1.727   5.216  20.434  0.00  0.00    +0.000 C 
ATOM     24  C   UNL     1       2.508   6.303  19.702  0.00  0.00    +0.000 C 
ENDBRANCH  22  24
ENDBRANCH  21  22
ENDBRANCH  15  21
ENDBRANCH   1  19
TORSDOF 5
ENDMDL
MODEL 3
REMARK VINA RESULT:      -7.5      1.575      2.607
REMARK  Name = 
REMARK  8 active torsions:
REMARK  status: ('A' for Active; 'I' for Inactive)
REMARK    1  A    between atoms: C_1  and  C_2
REMARK    2  A    between atoms: C_2  and  C_3
REMARK    3  A    between atoms: C_3  and  C_4
REMARK    4  A    between atoms: C_4  and  N_5
REMARK    5  A    between atoms: C_9  and  C_10
REMARK    6  A    between atoms: C_11  and  C_12
REMARK    7  A    between atoms: C_16  and  C_17
REMARK    8  A    between atoms: C_18  and  C_19
REMARK                            x       y       z     vdW  Elec       q    Type
REMARK                         _______ _______ _______ _____ _____    ______ ____
ROOT
ATOM      1  C   UNL     1       7.926   8.919  17.766  0.00  0.00    +0.000 C 
ATOM      2  C   UNL     1       8.808   9.424  18.642  0.00  0.00    +0.000 C 
ENDROOT
BRANCH   2   3
ATOM      3  C   UNL     1       9.329  10.786  18.754  0.00  0.00    +0.000 A 
ATOM      4  N   UNL     1       9.757  11.176  19.965  0.00  0.00    +0.000 NA
ATOM      5  C   UNL     1      10.027  12.463  19.811  0.00  0.00    +0.000 A 
ATOM      6  C   UNL     1      10.370  13.329  20.816  0.00  0.00    +0.000 A 
ATOM      7  C   UNL     1      10.512  14.685  20.496  0.00  0.00    +0.000 A 
ATOM      8  C   UNL     1      10.646  15.649  21.640  0.00  0.00    +0.000 C 
ATOM      9  C   UNL     1      10.417  15.113  19.132  0.00  0.00    +0.000 A 
ATOM     10  C   UNL     1      10.666  16.553  18.770  0.00  0.00    +0.000 C 
ATOM     11  C   UNL     1      10.048  14.172  18.128  0.00  0.00    +0.000 A 
ATOM     12  C   UNL     1       9.821  12.849  18.523  0.00  0.00    +0.000 A 
ATOM     13  N   UNL     1       9.379  11.783  17.823  0.00  0.00    +0.000 N 
ATOM     14  H   UNL     1       9.085  11.750  16.820  0.00  0.00    +0.000 HD
ENDBRANCH   2   3
BRANCH   1  19
ATOM     15  N   UNL     1       5.867   5.734  17.336  0.00  0.00    +0.000 N 
ATOM     16  C   UNL     1       6.557   4.858  18.123  0.00  0.00    +0.000 A 
ATOM     17  C   UNL     1       7.698   5.270  18.812  0.00  0.00    +0.000 A 
ATOM     18  C   UNL     1       8.141   6.589  18.690  0.00  0.00    +0.000 A 
ATOM     19  C   UNL     1       7.439   7.499  17.891  0.00  0.00    +0.000 A 
ATOM     20  C   UNL     1       6.290   7.023  17.211  0.00  0.00    +0.000 A 
BRANCH  15  21
ATOM     21  C   UNL     1       4.663   5.300  16.602  0.00  0.00    +0.000 C 
BRANCH  21  22
ATOM     22  C   UNL     1       3.475   5.020  17.542  0.00  0.00    +0.000 C 
BRANCH  22  24
ATOM     23  C   UNL     1       1.574   3.441  18.063  0.00  0.00    +0.000 C 
ATOM     24  C   UNL     1       2.887   3.623  17.308  0.00  0.00    +0.000 C 
ENDBRANCH  22  24
ENDBRANCH  21  22
ENDBRANCH  15  21
ENDBRANCH   1  19
TORSDOF 5
ENDMDL
MODEL 4
REMARK VINA RESULT:      -7.4      5.916      7.362
REMARK  Name = 
REMARK  8 active torsions:
REMARK  status: ('A' for Active; 'I' for Inactive)
REMARK    1  A    between atoms: C_1  and  C_2
REMARK    2  A    between atoms: C_2  and  C_3
REMARK    3  A    between atoms: C_3  and  C_4
REMARK    4  A    between atoms: C_4  and  N_5
REMARK    5  A    between atoms: C_9  and  C_10
REMARK    6  A    between atoms: C_11  and  C_12
REMARK    7  A    between atoms: C_16  and  C_17
REMARK    8  A    between atoms: C_18  and  C_19
REMARK                            x       y       z     vdW  Elec       q    Type
REMARK                         _______ _______ _______ _____ _____    ______ ____
ROOT
ATOM      1  C   UNL     1       2.641   7.525  18.447  0.00  0.00    +0.000 C 
ATOM      2  C   UNL     1       2.410   8.667  17.782  0.00  0.00    +0.000 C 
ENDROOT
BRANCH   2   3
ATOM      3  C   UNL     1       1.816   9.916  18.258  0.00  0.00    +0.000 A 
ATOM      4  N   UNL     1       0.749   9.811  19.067  0.00  0.00    +0.000 NA
ATOM      5  C   UNL     1       0.339  11.060  19.219  0.00  0.00    +0.000 A 
ATOM      6  C   UNL     1      -0.810  11.448  19.857  0.00  0.00    +0.000 A 
ATOM      7  C   UNL     1      -1.154  12.805  19.829  0.00  0.00    +0.000 A 
ATOM      8  C   UNL     1      -2.525  13.176  20.317  0.00  0.00    +0.000 C 
ATOM      9  C   UNL     1      -0.255  13.760  19.250  0.00  0.00    +0.000 A 
ATOM     10  C   UNL     1      -0.573  15.230  19.304  0.00  0.00    +0.000 C 
ATOM     11  C   UNL     1       0.921  13.301  18.590  0.00  0.00    +0.000 A 
ATOM     12  C   UNL     1       1.161  11.923  18.563  0.00  0.00    +0.000 A 
ATOM     13  N   UNL     1       2.124  11.207  17.945  0.00  0.00    +0.000 N 
ATOM     14  H   UNL     1       2.887  11.560  17.322  0.00  0.00    +0.000 HD
ENDBRANCH   2   3
BRANCH   1  19
ATOM     15  N   UNL     1       3.680   4.005  17.403  0.00  0.00    +0.000 N 
ATOM     16  C   UNL     1       4.715   4.269  16.553  0.00  0.00    +0.000 A 
ATOM     17  C   UNL     1       5.104   5.584  16.297  0.00  0.00    +0.000 A 
ATOM     18  C   UNL     1       4.425   6.639  16.911  0.00  0.00    +0.000 A 
ATOM     19  C   UNL     1       3.367   6.380  17.790  0.00  0.00    +0.000 A 
ATOM     20  C   UNL     1       3.012   5.025  18.009  0.00  0.00    +0.000 A 
BRANCH  15  21
ATOM     21  C   UNL     1       3.264   2.615  17.671  0.00  0.00    +0.000 C 
BRANCH  21  22
ATOM     22  C   UNL     1       1.817   2.530  18.197  0.00  0.00    +0.000 C 
BRANCH  22  24
ATOM     23  C   UNL     1       1.097   3.190  20.526  0.00  0.00    +0.000 C 
ATOM     24  C   UNL     1       1.778   2.122  19.675  0.00  0.00    +0.000 C 
ENDBRANCH  22  24
ENDBRANCH  21  22
ENDBRANCH  15  21
ENDBRANCH   1  19
TORSDOF 5
ENDMDL
MODEL 5
REMARK VINA RESULT:      -7.4      5.899      7.739
REMARK  Name = 
REMARK  8 active torsions:
REMARK  status: ('A' for Active; 'I' for Inactive)
REMARK    1  A    between atoms: C_1  and  C_2
REMARK    2  A    between atoms: C_2  and  C_3
REMARK    3  A    between atoms: C_3  and  C_4
REMARK    4  A    between atoms: C_4  and  N_5
REMARK    5  A    between atoms: C_9  and  C_10
REMARK    6  A    between atoms: C_11  and  C_12
REMARK    7  A    between atoms: C_16  and  C_17
REMARK    8  A    between atoms: C_18  and  C_19
REMARK                            x       y       z     vdW  Elec       q    Type
REMARK                         _______ _______ _______ _____ _____    ______ ____
ROOT
ATOM      1  C   UNL     1       2.330   7.392  18.515  0.00  0.00    +0.000 C 
ATOM      2  C   UNL     1       2.258   8.554  17.849  0.00  0.00    +0.000 C 
ENDROOT
BRANCH   2   3
ATOM      3  C   UNL     1       1.746   9.849  18.294  0.00  0.00    +0.000 A 
ATOM      4  N   UNL     1       0.732   9.832  19.174  0.00  0.00    +0.000 NA
ATOM      5  C   UNL     1       0.382  11.104  19.284  0.00  0.00    +0.000 A 
ATOM      6  C   UNL     1      -0.706  11.572  19.973  0.00  0.00    +0.000 A 
ATOM      7  C   UNL     1      -0.998  12.940  19.893  0.00  0.00    +0.000 A 
ATOM      8  C   UNL     1      -2.318  13.393  20.448  0.00  0.00    +0.000 C 
ATOM      9  C   UNL     1      -0.104  13.824  19.206  0.00  0.00    +0.000 A 
ATOM     10  C   UNL     1      -0.360  15.307  19.200  0.00  0.00    +0.000 C 
ATOM     11  C   UNL     1       1.007  13.282  18.497  0.00  0.00    +0.000 A 
ATOM     12  C   UNL     1       1.191  11.896  18.531  0.00  0.00    +0.000 A 
ATOM     13  N   UNL     1       2.083  11.109  17.891  0.00  0.00    +0.000 N 
ATOM     14  H   UNL     1       2.815  11.396  17.202  0.00  0.00    +0.000 HD
ENDBRANCH   2   3
BRANCH   1  19
ATOM     15  N   UNL     1       4.822   5.165  16.672  0.00  0.00    +0.000 N 
ATOM     16  C   UNL     1       4.226   3.942  16.784  0.00  0.00    +0.000 A 
ATOM     17  C   UNL     1       3.009   3.805  17.452  0.00  0.00    +0.000 A 
ATOM     18  C   UNL     1       2.399   4.927  18.015  0.00  0.00    +0.000 A 
ATOM     19  C   UNL     1       2.997   6.188  17.902  0.00  0.00    +0.000 A 
ATOM     20  C   UNL     1       4.235   6.267  17.217  0.00  0.00    +0.000 A 
BRANCH  15  21
ATOM     21  C   UNL     1       6.112   5.313  15.971  0.00  0.00    +0.000 C 
BRANCH  21  22
ATOM     22  C   UNL     1       7.191   5.958  16.861  0.00  0.00    +0.000 C 
BRANCH  22  24
ATOM     23  C   UNL     1       7.724   5.747  19.321  0.00  0.00    +0.000 C 
ATOM     24  C   UNL     1       7.633   5.014  17.986  0.00  0.00    +0.000 C 
ENDBRANCH  22  24
ENDBRANCH  21  22
ENDBRANCH  15  21
ENDBRANCH   1  19
TORSDOF 5
ENDMDL
MODEL 6
REMARK VINA RESULT:      -7.3      1.996      9.389
REMARK  Name = 
REMARK  8 active torsions:
REMARK  status: ('A' for Active; 'I' for Inactive)
REMARK    1  A    between atoms: C_1  and  C_2
REMARK    2  A    between atoms: C_2  and  C_3
REMARK    3  A    between atoms: C_3  and  C_4
REMARK    4  A    between atoms: C_4  and  N_5
REMARK    5  A    between atoms: C_9  and  C_10
REMARK    6  A    between atoms: C_11  and  C_12
REMARK    7  A    between atoms: C_16  and  C_17
REMARK    8  A    between atoms: C_18  and  C_19
REMARK                            x       y       z     vdW  Elec       q    Type
REMARK                         _______ _______ _______ _____ _____    ______ ____
ROOT
ATOM      1  C   UNL     1       8.819   9.929  18.641  0.00  0.00    +0.000 C 
ATOM      2  C   UNL     1       8.423   9.072  17.688  0.00  0.00    +0.000 C 
ENDROOT
BRANCH   2   3
ATOM      3  C   UNL     1       7.651   7.836  17.814  0.00  0.00    +0.000 A 
ATOM      4  N   UNL     1       6.520   7.750  17.097  0.00  0.00    +0.000 NA
ATOM      5  C   UNL     1       5.966   6.619  17.507  0.00  0.00    +0.000 A 
ATOM      6  C   UNL     1       4.720   6.172  17.155  0.00  0.00    +0.000 A 
ATOM      7  C   UNL     1       4.240   5.008  17.770  0.00  0.00    +0.000 A 
ATOM      8  C   UNL     1       2.792   4.668  17.559  0.00  0.00    +0.000 C 
ATOM      9  C   UNL     1       5.090   4.258  18.646  0.00  0.00    +0.000 A 
ATOM     10  C   UNL     1       4.615   2.956  19.232  0.00  0.00    +0.000 C 
ATOM     11  C   UNL     1       6.374   4.776  18.986  0.00  0.00    +0.000 A 
ATOM     12  C   UNL     1       6.759   5.994  18.418  0.00  0.00    +0.000 A 
ATOM     13  N   UNL     1       7.855   6.756  18.624  0.00  0.00    +0.000 N 
ATOM     14  H   UNL     1       8.639   6.586  19.294  0.00  0.00    +0.000 HD
ENDBRANCH   2   3
BRANCH   1  19
ATOM     15  N   UNL     1       9.570  13.632  18.105  0.00  0.00    +0.000 N 
ATOM     16  C   UNL     1      10.848  13.583  17.629  0.00  0.00    +0.000 A 
ATOM     17  C   UNL     1      11.498  12.359  17.467  0.00  0.00    +0.000 A 
ATOM     18  C   UNL     1      10.836  11.175  17.800  0.00  0.00    +0.000 A 
ATOM     19  C   UNL     1       9.523  11.212  18.283  0.00  0.00    +0.000 A 
ATOM     20  C   UNL     1       8.915  12.484  18.432  0.00  0.00    +0.000 A 
BRANCH  15  21
ATOM     21  C   UNL     1       8.882  14.926  18.282  0.00  0.00    +0.000 C 
BRANCH  21  22
ATOM     22  C   UNL     1       8.592  15.236  19.763  0.00  0.00    +0.000 C 
BRANCH  22  24
ATOM     23  C   UNL     1      10.048  14.242  21.572  0.00  0.00    +0.000 C 
ATOM     24  C   UNL     1       9.887  15.383  20.572  0.00  0.00    +0.000 C 
ENDBRANCH  22  24
ENDBRANCH  21  22
ENDBRANCH  15  21
ENDBRANCH   1  19
TORSDOF 5
ENDMDL
MODEL 7
REMARK VINA RESULT:      -7.3      5.513      8.325
REMARK  Name = 
REMARK  8 active torsions:
REMARK  status: ('A' for Active; 'I' for Inactive)
REMARK    1  A    between atoms: C_1  and  C_2
REMARK    2  A    between atoms: C_2  and  C_3
REMARK    3  A    between atoms: C_3  and  C_4
REMARK    4  A    between atoms: C_4  and  N_5
REMARK    5  A    between atoms: C_9  and  C_10
REMARK    6  A    between atoms: C_11  and  C_12
REMARK    7  A    between atoms: C_16  and  C_17
REMARK    8  A    between atoms: C_18  and  C_19
REMARK                            x       y       z     vdW  Elec       q    Type
REMARK                         _______ _______ _______ _____ _____    ______ ____
ROOT
ATOM      1  C   UNL     1       2.408   6.528  18.248  0.00  0.00    +0.000 C 
ATOM      2  C   UNL     1       2.591   7.502  19.152  0.00  0.00    +0.000 C 
ENDROOT
BRANCH   2   3
ATOM      3  C   UNL     1       1.599   8.329  19.839  0.00  0.00    +0.000 A 
ATOM      4  N   UNL     1       1.028   9.312  19.125  0.00  0.00    +0.000 NA
ATOM      5  C   UNL     1       0.304   9.974  20.014  0.00  0.00    +0.000 A 
ATOM      6  C   UNL     1      -0.359  11.150  19.782  0.00  0.00    +0.000 A 
ATOM      7  C   UNL     1      -0.986  11.777  20.865  0.00  0.00    +0.000 A 
ATOM      8  C   UNL     1      -1.496  13.174  20.648  0.00  0.00    +0.000 C 
ATOM      9  C   UNL     1      -1.024  11.131  22.144  0.00  0.00    +0.000 A 
ATOM     10  C   UNL     1      -1.781  11.754  23.286  0.00  0.00    +0.000 C 
ATOM     11  C   UNL     1      -0.309   9.914  22.332  0.00  0.00    +0.000 A 
ATOM     12  C   UNL     1       0.383   9.385  21.238  0.00  0.00    +0.000 A 
ATOM     13  N   UNL     1       1.206   8.318  21.145  0.00  0.00    +0.000 N 
ATOM     14  H   UNL     1       1.515   7.677  21.912  0.00  0.00    +0.000 HD
ENDBRANCH   2   3
BRANCH   1  19
ATOM     15  N   UNL     1       5.894   5.530  17.057  0.00  0.00    +0.000 N 
ATOM     16  C   UNL     1       5.722   4.201  16.798  0.00  0.00    +0.000 A 
ATOM     17  C   UNL     1       4.481   3.595  16.999  0.00  0.00    +0.000 A 
ATOM     18  C   UNL     1       3.409   4.354  17.473  0.00  0.00    +0.000 A 
ATOM     19  C   UNL     1       3.571   5.719  17.736  0.00  0.00    +0.000 A 
ATOM     20  C   UNL     1       4.855   6.280  17.518  0.00  0.00    +0.000 A 
BRANCH  15  21
ATOM     21  C   UNL     1       7.206   6.173  16.850  0.00  0.00    +0.000 C 
BRANCH  21  22
ATOM     22  C   UNL     1       7.609   7.073  18.035  0.00  0.00    +0.000 C 
BRANCH  22  24
ATOM     23  C   UNL     1       8.690   9.283  18.606  0.00  0.00    +0.000 C 
ATOM     24  C   UNL     1       7.849   8.520  17.587  0.00  0.00    +0.000 C 
ENDBRANCH  22  24
ENDBRANCH  21  22
ENDBRANCH  15  21
ENDBRANCH   1  19
TORSDOF 5
ENDMDL
MODEL 8
REMARK VINA RESULT:      -7.2      5.818      7.689
REMARK  Name = 
REMARK  8 active torsions:
REMARK  status: ('A' for Active; 'I' for Inactive)
REMARK    1  A    between atoms: C_1  and  C_2
REMARK    2  A    between atoms: C_2  and  C_3
REMARK    3  A    between atoms: C_3  and  C_4
REMARK    4  A    between atoms: C_4  and  N_5
REMARK    5  A    between atoms: C_9  and  C_10
REMARK    6  A    between atoms: C_11  and  C_12
REMARK    7  A    between atoms: C_16  and  C_17
REMARK    8  A    between atoms: C_18  and  C_19
REMARK                            x       y       z     vdW  Elec       q    Type
REMARK                         _______ _______ _______ _____ _____    ______ ____
ROOT
ATOM      1  C   UNL     1       3.501   7.556  18.033  0.00  0.00    +0.000 C 
ATOM      2  C   UNL     1       2.180   7.784  18.076  0.00  0.00    +0.000 C 
ENDROOT
BRANCH   2   3
ATOM      3  C   UNL     1       1.452   8.931  18.621  0.00  0.00    +0.000 A 
ATOM      4  N   UNL     1       1.377   9.023  19.958  0.00  0.00    +0.000 NA
ATOM      5  C   UNL     1       0.559  10.044  20.163  0.00  0.00    +0.000 A 
ATOM      6  C   UNL     1       0.068  10.438  21.380  0.00  0.00    +0.000 A 
ATOM      7  C   UNL     1      -0.878  11.470  21.405  0.00  0.00    +0.000 A 
ATOM      8  C   UNL     1      -1.582  11.723  22.709  0.00  0.00    +0.000 C 
ATOM      9  C   UNL     1      -1.218  12.161  20.197  0.00  0.00    +0.000 A 
ATOM     10  C   UNL     1      -2.159  13.335  20.234  0.00  0.00    +0.000 C 
ATOM     11  C   UNL     1      -0.685  11.704  18.957  0.00  0.00    +0.000 A 
ATOM     12  C   UNL     1       0.179  10.603  18.983  0.00  0.00    +0.000 A 
ATOM     13  N   UNL     1       0.749   9.907  17.977  0.00  0.00    +0.000 N 
ATOM     14  H   UNL     1       0.627  10.047  16.948  0.00  0.00    +0.000 HD
ENDBRANCH   2   3
BRANCH   1  19
ATOM     15  N   UNL     1       4.209   3.943  17.030  0.00  0.00    +0.000 N 
ATOM     16  C   UNL     1       5.081   4.116  15.995  0.00  0.00    +0.000 A 
ATOM     17  C   UNL     1       5.464   5.397  15.596  0.00  0.00    +0.000 A 
ATOM     18  C   UNL     1       4.945   6.511  16.259  0.00  0.00    +0.000 A 
ATOM     19  C   UNL     1       4.055   6.347  17.327  0.00  0.00    +0.000 A 
ATOM     20  C   UNL     1       3.698   5.023  17.685  0.00  0.00    +0.000 A 
BRANCH  15  21
ATOM     21  C   UNL     1       3.799   2.589  17.451  0.00  0.00    +0.000 C 
BRANCH  21  22
ATOM     22  C   UNL     1       3.183   2.578  18.864  0.00  0.00    +0.000 C 
BRANCH  22  24
ATOM     23  C   UNL     1       0.900   3.115  19.800  0.00  0.00    +0.000 C 
ATOM     24  C   UNL     1       1.687   2.246  18.824  0.00  0.00    +0.000 C 
ENDBRANCH  22  24
ENDBRANCH  21  22
ENDBRANCH  15  21
ENDBRANCH   1  19
TORSDOF 5
ENDMDL
MODEL 9
REMARK VINA RESULT:      -7.2      5.805      7.695
REMARK  Name = 
REMARK  8 active torsions:
REMARK  status: ('A' for Active; 'I' for Inactive)
REMARK    1  A    between atoms: C_1  and  C_2
REMARK    2  A    between atoms: C_2  and  C_3
REMARK    3  A    between atoms: C_3  and  C_4
REMARK    4  A    between atoms: C_4  and  N_5
REMARK    5  A    between atoms: C_9  and  C_10
REMARK    6  A    between atoms: C_11  and  C_12
REMARK    7  A    between atoms: C_16  and  C_17
REMARK    8  A    between atoms: C_18  and  C_19
REMARK                            x       y       z     vdW  Elec       q    Type
REMARK                         _______ _______ _______ _____ _____    ______ ____
ROOT
ATOM      1  C   UNL     1       2.212   7.156  18.717  0.00  0.00    +0.000 C 
ATOM      2  C   UNL     1       2.171   8.287  17.997  0.00  0.00    +0.000 C 
ENDROOT
BRANCH   2   3
ATOM      3  C   UNL     1       1.705   9.618  18.385  0.00  0.00    +0.000 A 
ATOM      4  N   UNL     1       0.713   9.676  19.287  0.00  0.00    +0.000 NA
ATOM      5  C   UNL     1       0.400  10.962  19.338  0.00  0.00    +0.000 A 
ATOM      6  C   UNL     1      -0.658  11.496  20.026  0.00  0.00    +0.000 A 
ATOM      7  C   UNL     1      -0.914  12.865  19.880  0.00  0.00    +0.000 A 
ATOM      8  C   UNL     1      -2.208  13.384  20.440  0.00  0.00    +0.000 C 
ATOM      9  C   UNL     1      -0.013  13.686  19.126  0.00  0.00    +0.000 A 
ATOM     10  C   UNL     1      -0.229  15.174  19.048  0.00  0.00    +0.000 C 
ATOM     11  C   UNL     1       1.065  13.077  18.422  0.00  0.00    +0.000 A 
ATOM     12  C   UNL     1       1.212  11.689  18.525  0.00  0.00    +0.000 A 
ATOM     13  N   UNL     1       2.066  10.845  17.908  0.00  0.00    +0.000 N 
ATOM     14  H   UNL     1       2.789  11.075  17.188  0.00  0.00    +0.000 HD
ENDBRANCH   2   3
BRANCH   1  19
ATOM     15  N   UNL     1       4.761   4.655  17.372  0.00  0.00    +0.000 N 
ATOM     16  C   UNL     1       3.971   3.568  17.130  0.00  0.00    +0.000 A 
ATOM     17  C   UNL     1       2.601   3.614  17.390  0.00  0.00    +0.000 A 
ATOM     18  C   UNL     1       2.035   4.780  17.909  0.00  0.00    +0.000 A 
ATOM     19  C   UNL     1       2.833   5.904  18.156  0.00  0.00    +0.000 A 
ATOM     20  C   UNL     1       4.219   5.798  17.877  0.00  0.00    +0.000 A 
BRANCH  15  21
ATOM     21  C   UNL     1       6.211   4.607  17.102  0.00  0.00    +0.000 C 
BRANCH  21  22
ATOM     22  C   UNL     1       6.601   5.434  15.862  0.00  0.00    +0.000 C 
BRANCH  22  24
ATOM     23  C   UNL     1       5.835   4.074  13.876  0.00  0.00    +0.000 C 
ATOM     24  C   UNL     1       7.036   4.535  14.698  0.00  0.00    +0.000 C 
ENDBRANCH  22  24
ENDBRANCH  21  22
ENDBRANCH  15  21
ENDBRANCH   1  19
TORSDOF 5
ENDMDL
