MODEL 1
REMARK VINA RESULT:      -7.5      0.000      0.000
REMARK  Name = 
REMARK  11 active torsions:
REMARK  status: ('A' for Active; 'I' for Inactive)
REMARK    1  A    between atoms: C_1  and  C_2
REMARK    2  A    between atoms: C_2  and  C_3
REMARK    3  A    between atoms: C_6  and  N_7
REMARK    4  A    between atoms: C_8  and  C_10
REMARK    5  A    between atoms: N_14  and  S_15
REMARK    6  A    between atoms: S_15  and  C_18
REMARK    7  A    between atoms: C_19  and  C_20
REMARK    8  A    between atoms: C_23  and  C_24
REMARK    9  A    between atoms: C_25  and  N_26
REMARK   10  A    between atoms: N_26  and  C_27
REMARK   11  A    between atoms: N_26  and  C_28
REMARK                            x       y       z     vdW  Elec       q    Type
REMARK                         _______ _______ _______ _____ _____    ______ ____
ROOT
ATOM      1  C   UNL     1       1.559   9.751  21.414  0.00  0.00    +0.000 C 
ATOM      2  C   UNL     1       1.042   9.348  22.792  0.00  0.00    +0.000 C 
ATOM      3  C   UNL     1      -0.480   9.336  22.835  0.00  0.00    +0.000 C 
ATOM      4  C   UNL     1      -1.090  10.641  22.335  0.00  0.00    +0.000 C 
ATOM      5  N   UNL     1      -0.531  11.089  21.011  0.00  0.00    +0.000 NA
ATOM      6  C   UNL     1       0.977  11.099  20.989  0.00  0.00    +0.000 C 
ENDROOT
BRANCH   1   8
ATOM      7  N   UNL     1       1.837   7.384  20.811  0.00  0.00    +0.000 N 
ATOM      8  C   UNL     1       1.354   8.615  20.408  0.00  0.00    +0.000 C 
ATOM      9  O   UNL     1       0.848   8.864  19.316  0.00  0.00    +0.000 OA
ATOM     10  H   UNL     1       2.136   7.306  21.779  0.00  0.00    +0.000 HD
BRANCH   7  14
ATOM     11  C   UNL     1       2.009   3.780  18.625  0.00  0.00    +0.000 A 
ATOM     12  C   UNL     1       2.592   4.937  18.101  0.00  0.00    +0.000 A 
ATOM     13  C   UNL     1       2.533   6.143  18.803  0.00  0.00    +0.000 A 
ATOM     14  C   UNL     1       1.903   6.208  20.044  0.00  0.00    +0.000 A 
ATOM     15  C   UNL     1       1.334   5.048  20.581  0.00  0.00    +0.000 A 
ATOM     16  C   UNL     1       1.370   3.845  19.868  0.00  0.00    +0.000 A 
BRANCH  11  18
ATOM     17  C   UNL     1       3.482   1.817  18.241  0.00  0.00    +0.000 C 
ATOM     18  C   UNL     1       2.149   2.467  17.903  0.00  0.00    +0.000 C 
ENDBRANCH  11  18
ENDBRANCH   7  14
ENDBRANCH   1   8
BRANCH   5  19
ATOM     19  S   UNL     1      -1.231  12.588  20.484  0.00  0.00    +0.000 S 
ATOM     20  O   UNL     1      -1.626  13.352  21.642  0.00  0.00    +0.000 OA
ATOM     21  O   UNL     1      -0.369  13.159  19.470  0.00  0.00    +0.000 OA
BRANCH  19  22
ATOM     22  C   UNL     1      -2.681  12.222  19.649  0.00  0.00    +0.000 A 
ATOM     23  C   UNL     1      -2.782  11.423  18.477  0.00  0.00    +0.000 A 
ATOM     24  C   UNL     1      -1.769  10.697  17.676  0.00  0.00    +0.000 C 
ATOM     25  N   UNL     1      -4.049  11.345  18.070  0.00  0.00    +0.000 NA
ATOM     26  O   UNL     1      -4.778  12.082  18.959  0.00  0.00    +0.000 OA
ATOM     27  C   UNL     1      -3.983  12.629  19.949  0.00  0.00    +0.000 A 
BRANCH  27  28
ATOM     28  C   UNL     1      -4.561  13.427  20.990  0.00  0.00    +0.000 C 
ATOM     29  C   UNL     1      -5.305  12.833  21.938  0.00  0.00    +0.000 C 
BRANCH  29  30
ATOM     30  N   UNL     1      -5.991  13.329  23.037  0.00  0.00    +0.000 N 
ATOM     31  C   UNL     1      -7.079  12.642  23.727  0.00  0.00    +0.000 C 
ATOM     32  C   UNL     1      -5.620  14.613  23.645  0.00  0.00    +0.000 C 
ENDBRANCH  29  30
ENDBRANCH  27  28
ENDBRANCH  19  22
ENDBRANCH   5  19
TORSDOF 7
ENDMDL
MODEL 2
REMARK VINA RESULT:      -7.4      5.048     10.493
REMARK  Name = 
REMARK  11 active torsions:
REMARK  status: ('A' for Active; 'I' for Inactive)
REMARK    1  A    between atoms: C_1  and  C_2
REMARK    2  A    between atoms: C_2  and  C_3
REMARK    3  A    between atoms: C_6  and  N_7
REMARK    4  A    between atoms: C_8  and  C_10
REMARK    5  A    between atoms: N_14  and  S_15
REMARK    6  A    between atoms: S_15  and  C_18
REMARK    7  A    between atoms: C_19  and  C_20
REMARK    8  A    between atoms: C_23  and  C_24
REMARK    9  A    between atoms: C_25  and  N_26
REMARK   10  A    between atoms: N_26  and  C_27
REMARK   11  A    between atoms: N_26  and  C_28
REMARK                            x       y       z     vdW  Elec       q    Type
REMARK                         _______ _______ _______ _____ _____    ______ ____
ROOT
ATOM      1  C   UNL     1       2.421   6.429  17.719  0.00  0.00    +0.000 C 
ATOM      2  C   UNL     1       1.513   5.285  18.162  0.00  0.00    +0.000 C 
ATOM      3  C   UNL     1       1.974   4.687  19.484  0.00  0.00    +0.000 C 
ATOM      4  C   UNL     1       3.448   4.296  19.467  0.00  0.00    +0.000 C 
ATOM      5  N   UNL     1       4.347   5.392  18.958  0.00  0.00    +0.000 NA
ATOM      6  C   UNL     1       3.877   5.968  17.646  0.00  0.00    +0.000 C 
ENDROOT
BRANCH   1   8
ATOM      7  N   UNL     1       1.726   8.781  17.890  0.00  0.00    +0.000 N 
ATOM      8  C   UNL     1       2.181   7.673  18.579  0.00  0.00    +0.000 C 
ATOM      9  O   UNL     1       2.454   7.636  19.777  0.00  0.00    +0.000 OA
ATOM     10  H   UNL     1       1.446   8.635  16.924  0.00  0.00    +0.000 HD
BRANCH   7  14
ATOM     11  C   UNL     1       1.321  12.711  19.368  0.00  0.00    +0.000 A 
ATOM     12  C   UNL     1       0.480  11.701  19.845  0.00  0.00    +0.000 A 
ATOM     13  C   UNL     1       0.590  10.398  19.357  0.00  0.00    +0.000 A 
ATOM     14  C   UNL     1       1.549  10.080  18.397  0.00  0.00    +0.000 A 
ATOM     15  C   UNL     1       2.404  11.084  17.931  0.00  0.00    +0.000 A 
ATOM     16  C   UNL     1       2.279  12.396  18.398  0.00  0.00    +0.000 A 
BRANCH  11  18
ATOM     17  C   UNL     1       1.561  15.138  18.894  0.00  0.00    +0.000 C 
ATOM     18  C   UNL     1       1.253  14.094  19.957  0.00  0.00    +0.000 C 
ENDBRANCH  11  18
ENDBRANCH   7  14
ENDBRANCH   1   8
BRANCH   5  19
ATOM     19  S   UNL     1       6.014   4.905  18.931  0.00  0.00    +0.000 S 
ATOM     20  O   UNL     1       6.711   5.567  20.006  0.00  0.00    +0.000 OA
ATOM     21  O   UNL     1       6.063   3.465  18.782  0.00  0.00    +0.000 OA
BRANCH  19  22
ATOM     22  C   UNL     1       6.709   5.504  17.485  0.00  0.00    +0.000 A 
ATOM     23  C   UNL     1       6.579   4.913  16.198  0.00  0.00    +0.000 A 
ATOM     24  C   UNL     1       5.857   3.710  15.721  0.00  0.00    +0.000 C 
ATOM     25  N   UNL     1       7.252   5.618  15.288  0.00  0.00    +0.000 NA
ATOM     26  O   UNL     1       7.821   6.661  15.962  0.00  0.00    +0.000 OA
ATOM     27  C   UNL     1       7.506   6.637  17.308  0.00  0.00    +0.000 A 
BRANCH  27  28
ATOM     28  C   UNL     1       7.994   7.656  18.189  0.00  0.00    +0.000 C 
ATOM     29  C   UNL     1       8.130   8.912  17.729  0.00  0.00    +0.000 C 
BRANCH  29  30
ATOM     30  N   UNL     1       8.582  10.083  18.323  0.00  0.00    +0.000 N 
ATOM     31  C   UNL     1       8.462  11.417  17.744  0.00  0.00    +0.000 C 
ATOM     32  C   UNL     1       9.190  10.068  19.659  0.00  0.00    +0.000 C 
ENDBRANCH  29  30
ENDBRANCH  27  28
ENDBRANCH  19  22
ENDBRANCH   5  19
TORSDOF 7
ENDMDL
MODEL 3
REMARK VINA RESULT:      -7.3      5.298      8.901
REMARK  Name = 
REMARK  11 active torsions:
REMARK  status: ('A' for Active; 'I' for Inactive)
REMARK    1  A    between atoms: C_1  and  C_2
REMARK    2  A    between atoms: C_2  and  C_3
REMARK    3  A    between atoms: C_6  and  N_7
REMARK    4  A    between atoms: C_8  and  C_10
REMARK    5  A    between atoms: N_14  and  S_15
REMARK    6  A    between atoms: S_15  and  C_18
REMARK    7  A    between atoms: C_19  and  C_20
REMARK    8  A    between atoms: C_23  and  C_24
REMARK    9  A    between atoms: C_25  and  N_26
REMARK   10  A    between atoms: N_26  and  C_27
REMARK   11  A    between atoms: N_26  and  C_28
REMARK                            x       y       z     vdW  Elec       q    Type
REMARK                         _______ _______ _______ _____ _____    ______ ____
ROOT
ATOM      1  C   UNL     1       5.880   6.864  16.896  0.00  0.00    +0.000 C 
ATOM      2  C   UNL     1       6.690   6.739  18.184  0.00  0.00    +0.000 C 
ATOM      3  C   UNL     1       6.553   5.351  18.795  0.00  0.00    +0.000 C 
ATOM      4  C   UNL     1       5.098   4.929  18.970  0.00  0.00    +0.000 C 
ATOM      5  N   UNL     1       4.271   5.121  17.727  0.00  0.00    +0.000 NA
ATOM      6  C   UNL     1       4.415   6.502  17.138  0.00  0.00    +0.000 C 
ENDROOT
BRANCH   1   8
ATOM      7  N   UNL     1       5.690   5.523  14.844  0.00  0.00    +0.000 N 
ATOM      8  C   UNL     1       6.555   6.092  15.758  0.00  0.00    +0.000 C 
ATOM      9  O   UNL     1       7.779   5.974  15.756  0.00  0.00    +0.000 OA
ATOM     10  H   UNL     1       4.712   5.790  14.913  0.00  0.00    +0.000 HD
BRANCH   7  14
ATOM     11  C   UNL     1       6.596   2.840  11.717  0.00  0.00    +0.000 A 
ATOM     12  C   UNL     1       7.506   3.846  12.052  0.00  0.00    +0.000 A 
ATOM     13  C   UNL     1       7.218   4.752  13.075  0.00  0.00    +0.000 A 
ATOM     14  C   UNL     1       6.023   4.659  13.786  0.00  0.00    +0.000 A 
ATOM     15  C   UNL     1       5.118   3.642  13.466  0.00  0.00    +0.000 A 
ATOM     16  C   UNL     1       5.392   2.749  12.425  0.00  0.00    +0.000 A 
BRANCH  11  18
ATOM     17  C   UNL     1       6.290   0.484  10.991  0.00  0.00    +0.000 C 
ATOM     18  C   UNL     1       6.949   1.817  10.671  0.00  0.00    +0.000 C 
ENDBRANCH  11  18
ENDBRANCH   7  14
ENDBRANCH   1   8
BRANCH   5  19
ATOM     19  S   UNL     1       2.617   4.652  17.969  0.00  0.00    +0.000 S 
ATOM     20  O   UNL     1       1.781   5.824  17.876  0.00  0.00    +0.000 OA
ATOM     21  O   UNL     1       2.354   3.480  17.159  0.00  0.00    +0.000 OA
BRANCH  19  22
ATOM     22  C   UNL     1       2.462   4.094  19.581  0.00  0.00    +0.000 A 
ATOM     23  C   UNL     1       2.977   2.869  20.086  0.00  0.00    +0.000 A 
ATOM     24  C   UNL     1       3.757   1.780  19.453  0.00  0.00    +0.000 C 
ATOM     25  N   UNL     1       2.673   2.729  21.376  0.00  0.00    +0.000 NA
ATOM     26  O   UNL     1       1.966   3.844  21.722  0.00  0.00    +0.000 OA
ATOM     27  C   UNL     1       1.821   4.714  20.657  0.00  0.00    +0.000 A 
BRANCH  27  28
ATOM     28  C   UNL     1       1.121   5.954  20.818  0.00  0.00    +0.000 C 
ATOM     29  C   UNL     1       1.812   7.107  20.787  0.00  0.00    +0.000 C 
BRANCH  29  30
ATOM     30  N   UNL     1       1.425   8.433  20.926  0.00  0.00    +0.000 N 
ATOM     31  C   UNL     1       0.988   9.297  19.833  0.00  0.00    +0.000 C 
ATOM     32  C   UNL     1       1.373   9.073  22.246  0.00  0.00    +0.000 C 
ENDBRANCH  29  30
ENDBRANCH  27  28
ENDBRANCH  19  22
ENDBRANCH   5  19
TORSDOF 7
ENDMDL
MODEL 4
REMARK VINA RESULT:      -7.2      4.867     10.405
REMARK  Name = 
REMARK  11 active torsions:
REMARK  status: ('A' for Active; 'I' for Inactive)
REMARK    1  A    between atoms: C_1  and  C_2
REMARK    2  A    between atoms: C_2  and  C_3
REMARK    3  A    between atoms: C_6  and  N_7
REMARK    4  A    between atoms: C_8  and  C_10
REMARK    5  A    between atoms: N_14  and  S_15
REMARK    6  A    between atoms: S_15  and  C_18
REMARK    7  A    between atoms: C_19  and  C_20
REMARK    8  A    between atoms: C_23  and  C_24
REMARK    9  A    between atoms: C_25  and  N_26
REMARK   10  A    between atoms: N_26  and  C_27
REMARK   11  A    between atoms: N_26  and  C_28
REMARK                            x       y       z     vdW  Elec       q    Type
REMARK                         _______ _______ _______ _____ _____    ______ ____
ROOT
ATOM      1  C   UNL     1       2.483   6.937  17.788  0.00  0.00    +0.000 C 
ATOM      2  C   UNL     1       1.568   5.720  17.684  0.00  0.00    +0.000 C 
ATOM      3  C   UNL     1       1.846   4.716  18.794  0.00  0.00    +0.000 C 
ATOM      4  C   UNL     1       3.320   4.339  18.887  0.00  0.00    +0.000 C 
ATOM      5  N   UNL     1       4.238   5.531  18.913  0.00  0.00    +0.000 NA
ATOM      6  C   UNL     1       3.951   6.512  17.803  0.00  0.00    +0.000 C 
ENDROOT
BRANCH   1   8
ATOM      7  N   UNL     1       1.265   8.908  18.610  0.00  0.00    +0.000 N 
ATOM      8  C   UNL     1       2.058   7.831  18.957  0.00  0.00    +0.000 C 
ATOM      9  O   UNL     1       2.481   7.586  20.084  0.00  0.00    +0.000 OA
ATOM     10  H   UNL     1       0.910   8.926  17.658  0.00  0.00    +0.000 HD
BRANCH   7  14
ATOM     11  C   UNL     1       0.110  12.122  21.087  0.00  0.00    +0.000 A 
ATOM     12  C   UNL     1      -0.410  10.845  21.320  0.00  0.00    +0.000 A 
ATOM     13  C   UNL     1      -0.050   9.772  20.502  0.00  0.00    +0.000 A 
ATOM     14  C   UNL     1       0.844   9.955  19.448  0.00  0.00    +0.000 A 
ATOM     15  C   UNL     1       1.381  11.227  19.224  0.00  0.00    +0.000 A 
ATOM     16  C   UNL     1       1.002  12.308  20.025  0.00  0.00    +0.000 A 
BRANCH  11  18
ATOM     17  C   UNL     1      -1.227  12.804  23.067  0.00  0.00    +0.000 C 
ATOM     18  C   UNL     1      -0.217  13.255  22.022  0.00  0.00    +0.000 C 
ENDBRANCH  11  18
ENDBRANCH   7  14
ENDBRANCH   1   8
BRANCH   5  19
ATOM     19  S   UNL     1       5.908   5.065  18.996  0.00  0.00    +0.000 S 
ATOM     20  O   UNL     1       6.550   5.812  20.049  0.00  0.00    +0.000 OA
ATOM     21  O   UNL     1       5.978   3.619  18.955  0.00  0.00    +0.000 OA
BRANCH  19  22
ATOM     22  C   UNL     1       6.663   5.565  17.542  0.00  0.00    +0.000 A 
ATOM     23  C   UNL     1       6.499   4.950  16.270  0.00  0.00    +0.000 A 
ATOM     24  C   UNL     1       5.688   3.794  15.820  0.00  0.00    +0.000 C 
ATOM     25  N   UNL     1       7.235   5.572  15.350  0.00  0.00    +0.000 NA
ATOM     26  O   UNL     1       7.877   6.586  16.000  0.00  0.00    +0.000 OA
ATOM     27  C   UNL     1       7.549   6.627  17.343  0.00  0.00    +0.000 A 
BRANCH  27  28
ATOM     28  C   UNL     1       8.107   7.629  18.200  0.00  0.00    +0.000 C 
ATOM     29  C   UNL     1       8.101   8.913  17.801  0.00  0.00    +0.000 C 
BRANCH  29  30
ATOM     30  N   UNL     1       8.572  10.078  18.391  0.00  0.00    +0.000 N 
ATOM     31  C   UNL     1       9.297  10.143  19.657  0.00  0.00    +0.000 C 
ATOM     32  C   UNL     1       8.415  11.379  17.729  0.00  0.00    +0.000 C 
ENDBRANCH  29  30
ENDBRANCH  27  28
ENDBRANCH  19  22
ENDBRANCH   5  19
TORSDOF 7
ENDMDL
MODEL 5
REMARK VINA RESULT:      -7.2      4.894     10.314
REMARK  Name = 
REMARK  11 active torsions:
REMARK  status: ('A' for Active; 'I' for Inactive)
REMARK    1  A    between atoms: C_1  and  C_2
REMARK    2  A    between atoms: C_2  and  C_3
REMARK    3  A    between atoms: C_6  and  N_7
REMARK    4  A    between atoms: C_8  and  C_10
REMARK    5  A    between atoms: N_14  and  S_15
REMARK    6  A    between atoms: S_15  and  C_18
REMARK    7  A    between atoms: C_19  and  C_20
REMARK    8  A    between atoms: C_23  and  C_24
REMARK    9  A    between atoms: C_25  and  N_26
REMARK   10  A    between atoms: N_26  and  C_27
REMARK   11  A    between atoms: N_26  and  C_28
REMARK                            x       y       z     vdW  Elec       q    Type
REMARK                         _______ _______ _______ _____ _____    ______ ____
ROOT
ATOM      1  C   UNL     1       2.423   6.345  17.836  0.00  0.00    +0.000 C 
ATOM      2  C   UNL     1       1.551   5.327  18.567  0.00  0.00    +0.000 C 
ATOM      3  C   UNL     1       2.132   4.972  19.929  0.00  0.00    +0.000 C 
ATOM      4  C   UNL     1       3.594   4.547  19.849  0.00  0.00    +0.000 C 
ATOM      5  N   UNL     1       4.449   5.505  19.064  0.00  0.00    +0.000 NA
ATOM      6  C   UNL     1       3.861   5.842  17.716  0.00  0.00    +0.000 C 
ENDROOT
BRANCH   1   8
ATOM      7  N   UNL     1       1.357   7.811  19.498  0.00  0.00    +0.000 N 
ATOM      8  C   UNL     1       2.275   7.732  18.468  0.00  0.00    +0.000 C 
ATOM      9  O   UNL     1       2.911   8.675  18.002  0.00  0.00    +0.000 OA
ATOM     10  H   UNL     1       0.983   6.932  19.844  0.00  0.00    +0.000 HD
BRANCH   7  14
ATOM     11  C   UNL     1       0.078  11.366  21.375  0.00  0.00    +0.000 A 
ATOM     12  C   UNL     1       0.567  10.310  22.150  0.00  0.00    +0.000 A 
ATOM     13  C   UNL     1       0.981   9.120  21.547  0.00  0.00    +0.000 A 
ATOM     14  C   UNL     1       0.927   8.972  20.163  0.00  0.00    +0.000 A 
ATOM     15  C   UNL     1       0.456  10.034  19.383  0.00  0.00    +0.000 A 
ATOM     16  C   UNL     1       0.017  11.217  19.985  0.00  0.00    +0.000 A 
BRANCH  11  18
ATOM     17  C   UNL     1      -1.487  12.491  22.943  0.00  0.00    +0.000 C 
ATOM     18  C   UNL     1      -0.288  12.674  22.023  0.00  0.00    +0.000 C 
ENDBRANCH  11  18
ENDBRANCH   7  14
ENDBRANCH   1   8
BRANCH   5  19
ATOM     19  S   UNL     1       6.101   4.979  18.975  0.00  0.00    +0.000 S 
ATOM     20  O   UNL     1       6.845   5.589  20.050  0.00  0.00    +0.000 OA
ATOM     21  O   UNL     1       6.110   3.544  18.780  0.00  0.00    +0.000 OA
BRANCH  19  22
ATOM     22  C   UNL     1       6.771   5.606  17.529  0.00  0.00    +0.000 A 
ATOM     23  C   UNL     1       6.651   5.020  16.239  0.00  0.00    +0.000 A 
ATOM     24  C   UNL     1       5.961   3.799  15.759  0.00  0.00    +0.000 C 
ATOM     25  N   UNL     1       7.299   5.749  15.330  0.00  0.00    +0.000 NA
ATOM     26  O   UNL     1       7.841   6.803  16.007  0.00  0.00    +0.000 OA
ATOM     27  C   UNL     1       7.535   6.763  17.355  0.00  0.00    +0.000 A 
BRANCH  27  28
ATOM     28  C   UNL     1       7.998   7.790  18.239  0.00  0.00    +0.000 C 
ATOM     29  C   UNL     1       8.219   9.024  17.754  0.00  0.00    +0.000 C 
BRANCH  29  30
ATOM     30  N   UNL     1       8.673  10.195  18.346  0.00  0.00    +0.000 N 
ATOM     31  C   UNL     1       8.551  11.529  17.765  0.00  0.00    +0.000 C 
ATOM     32  C   UNL     1       9.287  10.181  19.679  0.00  0.00    +0.000 C 
ENDBRANCH  29  30
ENDBRANCH  27  28
ENDBRANCH  19  22
ENDBRANCH   5  19
TORSDOF 7
ENDMDL
MODEL 6
REMARK VINA RESULT:      -7.2      5.629      9.753
REMARK  Name = 
REMARK  11 active torsions:
REMARK  status: ('A' for Active; 'I' for Inactive)
REMARK    1  A    between atoms: C_1  and  C_2
REMARK    2  A    between atoms: C_2  and  C_3
REMARK    3  A    between atoms: C_6  and  N_7
REMARK    4  A    between atoms: C_8  and  C_10
REMARK    5  A    between atoms: N_14  and  S_15
REMARK    6  A    between atoms: S_15  and  C_18
REMARK    7  A    between atoms: C_19  and  C_20
REMARK    8  A    between atoms: C_23  and  C_24
REMARK    9  A    between atoms: C_25  and  N_26
REMARK   10  A    between atoms: N_26  and  C_27
REMARK   11  A    between atoms: N_26  and  C_28
REMARK                            x       y       z     vdW  Elec       q    Type
REMARK                         _______ _______ _______ _____ _____    ______ ____
ROOT
ATOM      1  C   UNL     1       7.052   5.562  18.550  0.00  0.00    +0.000 C 
ATOM      2  C   UNL     1       7.695   4.542  17.614  0.00  0.00    +0.000 C 
ATOM      3  C   UNL     1       6.896   4.385  16.328  0.00  0.00    +0.000 C 
ATOM      4  C   UNL     1       5.421   4.100  16.586  0.00  0.00    +0.000 C 
ATOM      5  N   UNL     1       4.795   5.053  17.568  0.00  0.00    +0.000 NA
ATOM      6  C   UNL     1       5.598   5.192  18.838  0.00  0.00    +0.000 C 
ENDROOT
BRANCH   1   8
ATOM      7  N   UNL     1       8.218   7.721  18.703  0.00  0.00    +0.000 N 
ATOM      8  C   UNL     1       7.265   6.984  18.026  0.00  0.00    +0.000 C 
ATOM      9  O   UNL     1       6.560   7.397  17.107  0.00  0.00    +0.000 OA
ATOM     10  H   UNL     1       8.794   7.217  19.372  0.00  0.00    +0.000 HD
BRANCH   7  14
ATOM     11  C   UNL     1       9.177  11.809  18.297  0.00  0.00    +0.000 A 
ATOM     12  C   UNL     1       8.273  11.217  17.409  0.00  0.00    +0.000 A 
ATOM     13  C   UNL     1       7.955   9.863  17.519  0.00  0.00    +0.000 A 
ATOM     14  C   UNL     1       8.522   9.081  18.524  0.00  0.00    +0.000 A 
ATOM     15  C   UNL     1       9.413   9.674  19.425  0.00  0.00    +0.000 A 
ATOM     16  C   UNL     1       9.754  11.024  19.302  0.00  0.00    +0.000 A 
BRANCH  11  18
ATOM     17  C   UNL     1      10.924  13.565  18.496  0.00  0.00    +0.000 C 
ATOM     18  C   UNL     1       9.453  13.286  18.224  0.00  0.00    +0.000 C 
ENDBRANCH  11  18
ENDBRANCH   7  14
ENDBRANCH   1   8
BRANCH   5  19
ATOM     19  S   UNL     1       3.122   4.685  17.856  0.00  0.00    +0.000 S 
ATOM     20  O   UNL     1       2.361   5.909  17.812  0.00  0.00    +0.000 OA
ATOM     21  O   UNL     1       2.760   3.549  17.034  0.00  0.00    +0.000 OA
BRANCH  19  22
ATOM     22  C   UNL     1       2.984   4.106  19.461  0.00  0.00    +0.000 A 
ATOM     23  C   UNL     1       3.598   2.930  19.973  0.00  0.00    +0.000 A 
ATOM     24  C   UNL     1       4.489   1.921  19.353  0.00  0.00    +0.000 C 
ATOM     25  N   UNL     1       3.280   2.754  21.255  0.00  0.00    +0.000 NA
ATOM     26  O   UNL     1       2.465   3.797  21.590  0.00  0.00    +0.000 OA
ATOM     27  C   UNL     1       2.265   4.657  20.525  0.00  0.00    +0.000 A 
BRANCH  27  28
ATOM     28  C   UNL     1       1.450   5.826  20.675  0.00  0.00    +0.000 C 
ATOM     29  C   UNL     1       2.023   7.040  20.600  0.00  0.00    +0.000 C 
BRANCH  29  30
ATOM     30  N   UNL     1       1.511   8.324  20.717  0.00  0.00    +0.000 N 
ATOM     31  C   UNL     1       1.220   8.998  21.980  0.00  0.00    +0.000 C 
ATOM     32  C   UNL     1       1.265   9.154  19.531  0.00  0.00    +0.000 C 
ENDBRANCH  29  30
ENDBRANCH  27  28
ENDBRANCH  19  22
ENDBRANCH   5  19
TORSDOF 7
ENDMDL
MODEL 7
REMARK VINA RESULT:      -7.2      4.913     10.326
REMARK  Name = 
REMARK  11 active torsions:
REMARK  status: ('A' for Active; 'I' for Inactive)
REMARK    1  A    between atoms: C_1  and  C_2
REMARK    2  A    between atoms: C_2  and  C_3
REMARK    3  A    between atoms: C_6  and  N_7
REMARK    4  A    between atoms: C_8  and  C_10
REMARK    5  A    between atoms: N_14  and  S_15
REMARK    6  A    between atoms: S_15  and  C_18
REMARK    7  A    between atoms: C_19  and  C_20
REMARK    8  A    between atoms: C_23  and  C_24
REMARK    9  A    between atoms: C_25  and  N_26
REMARK   10  A    between atoms: N_26  and  C_27
REMARK   11  A    between atoms: N_26  and  C_28
REMARK                            x       y       z     vdW  Elec       q    Type
REMARK                         _______ _______ _______ _____ _____    ______ ____
ROOT
ATOM      1  C   UNL     1       2.398   6.281  17.993  0.00  0.00    +0.000 C 
ATOM      2  C   UNL     1       1.571   5.439  18.961  0.00  0.00    +0.000 C 
ATOM      3  C   UNL     1       2.273   5.281  20.302  0.00  0.00    +0.000 C 
ATOM      4  C   UNL     1       3.705   4.777  20.158  0.00  0.00    +0.000 C 
ATOM      5  N   UNL     1       4.508   5.552  19.148  0.00  0.00    +0.000 NA
ATOM      6  C   UNL     1       3.799   5.694  17.824  0.00  0.00    +0.000 C 
ENDROOT
BRANCH   1   8
ATOM      7  N   UNL     1       1.427   8.076  19.363  0.00  0.00    +0.000 N 
ATOM      8  C   UNL     1       2.361   7.758  18.396  0.00  0.00    +0.000 C 
ATOM      9  O   UNL     1       3.093   8.557  17.816  0.00  0.00    +0.000 OA
ATOM     10  H   UNL     1       0.965   7.298  19.826  0.00  0.00    +0.000 HD
BRANCH   7  14
ATOM     11  C   UNL     1       0.339  11.871  20.849  0.00  0.00    +0.000 A 
ATOM     12  C   UNL     1       0.725  11.735  19.512  0.00  0.00    +0.000 A 
ATOM     13  C   UNL     1       1.102  10.490  19.007  0.00  0.00    +0.000 A 
ATOM     14  C   UNL     1       1.087   9.360  19.823  0.00  0.00    +0.000 A 
ATOM     15  C   UNL     1       0.683   9.490  21.156  0.00  0.00    +0.000 A 
ATOM     16  C   UNL     1       0.330  10.740  21.672  0.00  0.00    +0.000 A 
BRANCH  11  18
ATOM     17  C   UNL     1      -1.427  13.608  20.656  0.00  0.00    +0.000 C 
ATOM     18  C   UNL     1      -0.145  13.200  21.366  0.00  0.00    +0.000 C 
ENDBRANCH  11  18
ENDBRANCH   7  14
ENDBRANCH   1   8
BRANCH   5  19
ATOM     19  S   UNL     1       6.125   4.937  18.993  0.00  0.00    +0.000 S 
ATOM     20  O   UNL     1       6.934   5.478  20.058  0.00  0.00    +0.000 OA
ATOM     21  O   UNL     1       6.047   3.509  18.764  0.00  0.00    +0.000 OA
BRANCH  19  22
ATOM     22  C   UNL     1       6.784   5.563  17.542  0.00  0.00    +0.000 A 
ATOM     23  C   UNL     1       6.640   4.985  16.251  0.00  0.00    +0.000 A 
ATOM     24  C   UNL     1       5.928   3.776  15.774  0.00  0.00    +0.000 C 
ATOM     25  N   UNL     1       7.286   5.710  15.337  0.00  0.00    +0.000 NA
ATOM     26  O   UNL     1       7.850   6.754  16.012  0.00  0.00    +0.000 OA
ATOM     27  C   UNL     1       7.561   6.711  17.364  0.00  0.00    +0.000 A 
BRANCH  27  28
ATOM     28  C   UNL     1       8.049   7.728  18.247  0.00  0.00    +0.000 C 
ATOM     29  C   UNL     1       8.184   8.985  17.791  0.00  0.00    +0.000 C 
BRANCH  29  30
ATOM     30  N   UNL     1       8.635  10.154  18.388  0.00  0.00    +0.000 N 
ATOM     31  C   UNL     1       9.357  10.222  19.656  0.00  0.00    +0.000 C 
ATOM     32  C   UNL     1       8.460  11.456  17.734  0.00  0.00    +0.000 C 
ENDBRANCH  29  30
ENDBRANCH  27  28
ENDBRANCH  19  22
ENDBRANCH   5  19
TORSDOF 7
ENDMDL
MODEL 8
REMARK VINA RESULT:      -7.1      0.907      1.331
REMARK  Name = 
REMARK  11 active torsions:
REMARK  status: ('A' for Active; 'I' for Inactive)
REMARK    1  A    between atoms: C_1  and  C_2
REMARK    2  A    between atoms: C_2  and  C_3
REMARK    3  A    between atoms: C_6  and  N_7
REMARK    4  A    between atoms: C_8  and  C_10
REMARK    5  A    between atoms: N_14  and  S_15
REMARK    6  A    between atoms: S_15  and  C_18
REMARK    7  A    between atoms: C_19  and  C_20
REMARK    8  A    between atoms: C_23  and  C_24
REMARK    9  A    between atoms: C_25  and  N_26
REMARK   10  A    between atoms: N_26  and  C_27
REMARK   11  A    between atoms: N_26  and  C_28
REMARK                            x       y       z     vdW  Elec       q    Type
REMARK                         _______ _______ _______ _____ _____    ______ ____
ROOT
ATOM      1  C   UNL     1       1.288   9.583  21.729  0.00  0.00    +0.000 C 
ATOM      2  C   UNL     1       0.698   9.788  23.122  0.00  0.00    +0.000 C 
ATOM      3  C   UNL     1      -0.814   9.955  23.068  0.00  0.00    +0.000 C 
ATOM      4  C   UNL     1      -1.250  11.031  22.079  0.00  0.00    +0.000 C 
ATOM      5  N   UNL     1      -0.614  10.884  20.723  0.00  0.00    +0.000 NA
ATOM      6  C   UNL     1       0.885  10.724  20.796  0.00  0.00    +0.000 C 
ENDROOT
BRANCH   1   8
ATOM      7  N   UNL     1       2.060   7.436  20.813  0.00  0.00    +0.000 N 
ATOM      8  C   UNL     1       0.964   8.179  21.208  0.00  0.00    +0.000 C 
ATOM      9  O   UNL     1      -0.210   7.829  21.117  0.00  0.00    +0.000 OA
ATOM     10  H   UNL     1       2.975   7.814  21.042  0.00  0.00    +0.000 HD
BRANCH   7  14
ATOM     11  C   UNL     1       2.028   3.734  18.791  0.00  0.00    +0.000 A 
ATOM     12  C   UNL     1       1.615   3.798  20.125  0.00  0.00    +0.000 A 
ATOM     13  C   UNL     1       1.633   5.012  20.815  0.00  0.00    +0.000 A 
ATOM     14  C   UNL     1       2.049   6.181  20.179  0.00  0.00    +0.000 A 
ATOM     15  C   UNL     1       2.444   6.124  18.839  0.00  0.00    +0.000 A 
ATOM     16  C   UNL     1       2.452   4.905  18.153  0.00  0.00    +0.000 A 
BRANCH  11  18
ATOM     17  C   UNL     1       3.296   1.781  17.924  0.00  0.00    +0.000 C 
ATOM     18  C   UNL     1       1.928   2.440  18.029  0.00  0.00    +0.000 C 
ENDBRANCH  11  18
ENDBRANCH   7  14
ENDBRANCH   1   8
BRANCH   5  19
ATOM     19  S   UNL     1      -1.113  12.138  19.630  0.00  0.00    +0.000 S 
ATOM     20  O   UNL     1      -1.348  13.346  20.383  0.00  0.00    +0.000 OA
ATOM     21  O   UNL     1      -0.221  12.128  18.490  0.00  0.00    +0.000 OA
BRANCH  19  22
ATOM     22  C   UNL     1      -2.633  11.689  18.981  0.00  0.00    +0.000 A 
ATOM     23  C   UNL     1      -2.837  10.806  17.885  0.00  0.00    +0.000 A 
ATOM     24  C   UNL     1      -1.896  10.041  17.034  0.00  0.00    +0.000 C 
ATOM     25  N   UNL     1      -4.137  10.679  17.621  0.00  0.00    +0.000 NA
ATOM     26  O   UNL     1      -4.787  11.466  18.527  0.00  0.00    +0.000 OA
ATOM     27  C   UNL     1      -3.907  12.096  19.388  0.00  0.00    +0.000 A 
BRANCH  27  28
ATOM     28  C   UNL     1      -4.391  12.957  20.425  0.00  0.00    +0.000 C 
ATOM     29  C   UNL     1      -5.563  12.675  21.020  0.00  0.00    +0.000 C 
BRANCH  29  30
ATOM     30  N   UNL     1      -6.283  13.314  22.020  0.00  0.00    +0.000 N 
ATOM     31  C   UNL     1      -5.726  13.777  23.288  0.00  0.00    +0.000 C 
ATOM     32  C   UNL     1      -7.705  13.632  21.845  0.00  0.00    +0.000 C 
ENDBRANCH  29  30
ENDBRANCH  27  28
ENDBRANCH  19  22
ENDBRANCH   5  19
TORSDOF 7
ENDMDL
MODEL 9
REMARK VINA RESULT:      -7.1      4.884     10.389
REMARK  Name = 
REMARK  11 active torsions:
REMARK  status: ('A' for Active; 'I' for Inactive)
REMARK    1  A    between atoms: C_1  and  C_2
REMARK    2  A    between atoms: C_2  and  C_3
REMARK    3  A    between atoms: C_6  and  N_7
REMARK    4  A    between atoms: C_8  and  C_10
REMARK    5  A    between atoms: N_14  and  S_15
REMARK    6  A    between atoms: S_15  and  C_18
REMARK    7  A    between atoms: C_19  and  C_20
REMARK    8  A    between atoms: C_23  and  C_24
REMARK    9  A    between atoms: C_25  and  N_26
REMARK   10  A    between atoms: N_26  and  C_27
REMARK   11  A    between atoms: N_26  and  C_28
REMARK                            x       y       z     vdW  Elec       q    Type
REMARK                         _______ _______ _______ _____ _____    ______ ____
ROOT
ATOM      1  C   UNL     1       2.445   6.665  17.842  0.00  0.00    +0.000 C 
ATOM      2  C   UNL     1       1.527   5.446  17.889  0.00  0.00    +0.000 C 
ATOM      3  C   UNL     1       1.886   4.521  19.043  0.00  0.00    +0.000 C 
ATOM      4  C   UNL     1       3.364   4.146  19.056  0.00  0.00    +0.000 C 
ATOM      5  N   UNL     1       4.279   5.335  18.933  0.00  0.00    +0.000 NA
ATOM      6  C   UNL     1       3.911   6.237  17.781  0.00  0.00    +0.000 C 
ENDROOT
BRANCH   1   8
ATOM      7  N   UNL     1       1.445   8.787  18.577  0.00  0.00    +0.000 N 
ATOM      8  C   UNL     1       2.104   7.639  18.973  0.00  0.00    +0.000 C 
ATOM      9  O   UNL     1       2.477   7.386  20.117  0.00  0.00    +0.000 OA
ATOM     10  H   UNL     1       1.110   8.813  17.618  0.00  0.00    +0.000 HD
BRANCH   7  14
ATOM     11  C   UNL     1       0.407  12.054  21.035  0.00  0.00    +0.000 A 
ATOM     12  C   UNL     1       1.051  12.282  19.815  0.00  0.00    +0.000 A 
ATOM     13  C   UNL     1       1.415  11.212  18.995  0.00  0.00    +0.000 A 
ATOM     14  C   UNL     1       1.130   9.901  19.373  0.00  0.00    +0.000 A 
ATOM     15  C   UNL     1       0.468   9.671  20.585  0.00  0.00    +0.000 A 
ATOM     16  C   UNL     1       0.126  10.739  21.420  0.00  0.00    +0.000 A 
BRANCH  11  18
ATOM     17  C   UNL     1      -1.212  12.793  22.769  0.00  0.00    +0.000 C 
ATOM     18  C   UNL     1      -0.056  13.215  21.874  0.00  0.00    +0.000 C 
ENDBRANCH  11  18
ENDBRANCH   7  14
ENDBRANCH   1   8
BRANCH   5  19
ATOM     19  S   UNL     1       5.952   4.869  18.927  0.00  0.00    +0.000 S 
ATOM     20  O   UNL     1       6.622   5.522  20.025  0.00  0.00    +0.000 OA
ATOM     21  O   UNL     1       6.022   3.433  18.755  0.00  0.00    +0.000 OA
BRANCH  19  22
ATOM     22  C   UNL     1       6.664   5.500  17.503  0.00  0.00    +0.000 A 
ATOM     23  C   UNL     1       6.637   4.886  16.221  0.00  0.00    +0.000 A 
ATOM     24  C   UNL     1       6.029   3.625  15.734  0.00  0.00    +0.000 C 
ATOM     25  N   UNL     1       7.296   5.627  15.331  0.00  0.00    +0.000 NA
ATOM     26  O   UNL     1       7.754   6.718  16.012  0.00  0.00    +0.000 OA
ATOM     27  C   UNL     1       7.381   6.689  17.344  0.00  0.00    +0.000 A 
BRANCH  27  28
ATOM     28  C   UNL     1       7.752   7.753  18.228  0.00  0.00    +0.000 C 
ATOM     29  C   UNL     1       8.205   8.909  17.712  0.00  0.00    +0.000 C 
BRANCH  29  30
ATOM     30  N   UNL     1       8.646  10.087  18.299  0.00  0.00    +0.000 N 
ATOM     31  C   UNL     1       8.399  11.427  17.776  0.00  0.00    +0.000 C 
ATOM     32  C   UNL     1       9.376  10.072  19.573  0.00  0.00    +0.000 C 
ENDBRANCH  29  30
ENDBRANCH  27  28
ENDBRANCH  19  22
ENDBRANCH   5  19
TORSDOF 7
ENDMDL
