MODEL 1
REMARK VINA RESULT:      -8.3      0.000      0.000
REMARK  Name = 
REMARK  7 active torsions:
REMARK  status: ('A' for Active; 'I' for Inactive)
REMARK    1  A    between atoms: N_11  and  C_12
REMARK    2  A    between atoms: C_12  and  C_13
REMARK    3  A    between atoms: C_13  and  O_14
REMARK    4  A    between atoms: O_14  and  C_15
REMARK    5  A    between atoms: C_15  and  N_17
REMARK    6  A    between atoms: N_17  and  C_25
REMARK    7  A    between atoms: C_18  and  C_20
REMARK                            x       y       z     vdW  Elec       q    Type
REMARK                         _______ _______ _______ _____ _____    ______ ____
ROOT
ATOM      1  C   UNL     1       2.921   6.717  18.946  0.00  0.00    +0.000 C 
ATOM      2  S   UNL     1       2.714   7.888  17.756  0.00  0.00    +0.000 S 
ENDROOT
BRANCH   1   3
ATOM      3  N   UNL     1       3.387   5.399  18.745  0.00  0.00    +0.000 N 
ATOM      4  C   UNL     1       4.446   5.095  17.838  0.00  0.00    +0.000 C 
ATOM      5  O   UNL     1       4.340   4.176  17.019  0.00  0.00    +0.000 OA
BRANCH   3   6
ATOM      6  C   UNL     1       2.501   4.286  19.099  0.00  0.00    +0.000 A 
ATOM      7  C   UNL     1       1.517   3.827  18.198  0.00  0.00    +0.000 A 
ATOM      8  C   UNL     1       0.599   2.827  18.552  0.00  0.00    +0.000 A 
ATOM      9  C   UNL     1       0.663   2.240  19.809  0.00  0.00    +0.000 A 
ATOM     10  C   UNL     1       1.642   2.659  20.696  0.00  0.00    +0.000 A 
ATOM     11  F   UNL     1       1.710   2.099  21.911  0.00  0.00    +0.000 F 
ATOM     12  C   UNL     1       2.546   3.668  20.360  0.00  0.00    +0.000 A 
ENDBRANCH   3   6
BRANCH   4  13
ATOM     13  C   UNL     1       5.658   5.928  17.881  0.00  0.00    +0.000 A 
ATOM     14  C   UNL     1       6.071   6.991  17.095  0.00  0.00    +0.000 A 
ATOM     15  C   UNL     1       7.380   7.452  17.441  0.00  0.00    +0.000 A 
ATOM     16  C   UNL     1       7.901   6.776  18.518  0.00  0.00    +0.000 A 
ATOM     17  S   UNL     1       6.817   5.602  19.116  0.00  0.00    +0.000 S 
ENDBRANCH   4  13
ENDBRANCH   1   3
BRANCH   1  18
ATOM     18  O   UNL     1       2.634   6.999  20.264  0.00  0.00    +0.000 OA
BRANCH  18  19
ATOM     19  C   UNL     1       1.418   7.680  20.676  0.00  0.00    +0.000 C 
BRANCH  19  20
ATOM     20  C   UNL     1       1.748   9.023  21.335  0.00  0.00    +0.000 C 
BRANCH  20  31
ATOM     21  O   UNL     1       0.226   9.721  23.761  0.00  0.00    +0.000 OA
ATOM     22  C   UNL     1      -0.050  10.134  22.652  0.00  0.00    +0.000 C 
ATOM     23  C   UNL     1      -1.115  11.094  22.364  0.00  0.00    +0.000 A 
ATOM     24  C   UNL     1      -2.039  11.688  23.207  0.00  0.00    +0.000 A 
ATOM     25  C   UNL     1      -2.933  12.601  22.635  0.00  0.00    +0.000 A 
ATOM     26  C   UNL     1      -2.880  12.896  21.256  0.00  0.00    +0.000 A 
ATOM     27  C   UNL     1      -1.931  12.284  20.428  0.00  0.00    +0.000 A 
ATOM     28  C   UNL     1      -1.061  11.384  21.013  0.00  0.00    +0.000 A 
ATOM     29  C   UNL     1       0.042  10.613  20.441  0.00  0.00    +0.000 C 
ATOM     30  O   UNL     1       0.411  10.690  19.282  0.00  0.00    +0.000 OA
ATOM     31  N   UNL     1       0.564   9.863  21.460  0.00  0.00    +0.000 N 
ENDBRANCH  20  31
ENDBRANCH  19  20
ENDBRANCH  18  19
ENDBRANCH   1  18
TORSDOF 7
ENDMDL
MODEL 2
REMARK VINA RESULT:      -8.0      0.282      1.586
REMARK  Name = 
REMARK  7 active torsions:
REMARK  status: ('A' for Active; 'I' for Inactive)
REMARK    1  A    between atoms: N_11  and  C_12
REMARK    2  A    between atoms: C_12  and  C_13
REMARK    3  A    between atoms: C_13  and  O_14
REMARK    4  A    between atoms: O_14  and  C_15
REMARK    5  A    between atoms: C_15  and  N_17
REMARK    6  A    between atoms: N_17  and  C_25
REMARK    7  A    between atoms: C_18  and  C_20
REMARK                            x       y       z     vdW  Elec       q    Type
REMARK                         _______ _______ _______ _____ _____    ______ ____
ROOT
ATOM      1  C   UNL     1       2.992   6.738  18.788  0.00  0.00    +0.000 C 
ATOM      2  S   UNL     1       2.626   7.760  17.503  0.00  0.00    +0.000 S 
ENDROOT
BRANCH   1   3
ATOM      3  N   UNL     1       3.475   5.415  18.687  0.00  0.00    +0.000 N 
ATOM      4  C   UNL     1       4.577   5.066  17.849  0.00  0.00    +0.000 C 
ATOM      5  O   UNL     1       4.515   4.100  17.083  0.00  0.00    +0.000 OA
BRANCH   3   6
ATOM      6  C   UNL     1       2.581   4.317  19.065  0.00  0.00    +0.000 A 
ATOM      7  C   UNL     1       1.542   3.898  18.206  0.00  0.00    +0.000 A 
ATOM      8  C   UNL     1       0.618   2.914  18.588  0.00  0.00    +0.000 A 
ATOM      9  C   UNL     1       0.730   2.302  19.829  0.00  0.00    +0.000 A 
ATOM     10  C   UNL     1       1.761   2.681  20.674  0.00  0.00    +0.000 A 
ATOM     11  F   UNL     1       1.875   2.097  21.874  0.00  0.00    +0.000 F 
ATOM     12  C   UNL     1       2.672   3.673  20.311  0.00  0.00    +0.000 A 
ENDBRANCH   3   6
BRANCH   4  13
ATOM     13  C   UNL     1       5.780   5.911  17.899  0.00  0.00    +0.000 A 
ATOM     14  C   UNL     1       6.177   6.992  17.128  0.00  0.00    +0.000 A 
ATOM     15  C   UNL     1       7.483   7.461  17.474  0.00  0.00    +0.000 A 
ATOM     16  C   UNL     1       8.019   6.771  18.535  0.00  0.00    +0.000 A 
ATOM     17  S   UNL     1       6.951   5.576  19.120  0.00  0.00    +0.000 S 
ENDBRANCH   4  13
ENDBRANCH   1   3
BRANCH   1  18
ATOM     18  O   UNL     1       2.836   7.163  20.089  0.00  0.00    +0.000 OA
BRANCH  18  19
ATOM     19  C   UNL     1       1.562   7.624  20.618  0.00  0.00    +0.000 C 
BRANCH  19  20
ATOM     20  C   UNL     1       1.781   8.662  21.723  0.00  0.00    +0.000 C 
BRANCH  20  31
ATOM     21  O   UNL     1       0.613  10.061  19.406  0.00  0.00    +0.000 OA
ATOM     22  C   UNL     1       0.268  10.257  20.555  0.00  0.00    +0.000 C 
ATOM     23  C   UNL     1      -0.823  11.147  20.954  0.00  0.00    +0.000 A 
ATOM     24  C   UNL     1      -1.639  11.964  20.191  0.00  0.00    +0.000 A 
ATOM     25  C   UNL     1      -2.628  12.690  20.864  0.00  0.00    +0.000 A 
ATOM     26  C   UNL     1      -2.778  12.580  22.263  0.00  0.00    +0.000 A 
ATOM     27  C   UNL     1      -1.942  11.741  23.010  0.00  0.00    +0.000 A 
ATOM     28  C   UNL     1      -0.970  11.037  22.324  0.00  0.00    +0.000 A 
ATOM     29  C   UNL     1       0.023  10.073  22.798  0.00  0.00    +0.000 C 
ATOM     30  O   UNL     1       0.119   9.690  23.951  0.00  0.00    +0.000 OA
ATOM     31  N   UNL     1       0.749   9.690  21.703  0.00  0.00    +0.000 N 
ENDBRANCH  20  31
ENDBRANCH  19  20
ENDBRANCH  18  19
ENDBRANCH   1  18
TORSDOF 7
ENDMDL
MODEL 3
REMARK VINA RESULT:      -7.8      2.174      4.316
REMARK  Name = 
REMARK  7 active torsions:
REMARK  status: ('A' for Active; 'I' for Inactive)
REMARK    1  A    between atoms: N_11  and  C_12
REMARK    2  A    between atoms: C_12  and  C_13
REMARK    3  A    between atoms: C_13  and  O_14
REMARK    4  A    between atoms: O_14  and  C_15
REMARK    5  A    between atoms: C_15  and  N_17
REMARK    6  A    between atoms: N_17  and  C_25
REMARK    7  A    between atoms: C_18  and  C_20
REMARK                            x       y       z     vdW  Elec       q    Type
REMARK                         _______ _______ _______ _____ _____    ______ ____
ROOT
ATOM      1  C   UNL     1       3.024   6.575  18.795  0.00  0.00    +0.000 C 
ATOM      2  S   UNL     1       2.445   7.712  17.699  0.00  0.00    +0.000 S 
ENDROOT
BRANCH   1   3
ATOM      3  N   UNL     1       3.847   5.469  18.491  0.00  0.00    +0.000 N 
ATOM      4  C   UNL     1       3.977   4.350  19.369  0.00  0.00    +0.000 C 
ATOM      5  O   UNL     1       5.088   3.897  19.664  0.00  0.00    +0.000 OA
BRANCH   3   6
ATOM      6  C   UNL     1       4.924   5.650  17.515  0.00  0.00    +0.000 A 
ATOM      7  C   UNL     1       4.947   4.910  16.313  0.00  0.00    +0.000 A 
ATOM      8  C   UNL     1       6.017   5.000  15.410  0.00  0.00    +0.000 A 
ATOM      9  C   UNL     1       7.076   5.858  15.672  0.00  0.00    +0.000 A 
ATOM     10  C   UNL     1       7.056   6.613  16.834  0.00  0.00    +0.000 A 
ATOM     11  F   UNL     1       8.075   7.441  17.096  0.00  0.00    +0.000 F 
ATOM     12  C   UNL     1       6.007   6.515  17.748  0.00  0.00    +0.000 A 
ENDBRANCH   3   6
BRANCH   4  13
ATOM     13  C   UNL     1       2.752   3.772  19.942  0.00  0.00    +0.000 A 
ATOM     14  C   UNL     1       2.380   3.519  21.253  0.00  0.00    +0.000 A 
ATOM     15  C   UNL     1       1.118   2.854  21.346  0.00  0.00    +0.000 A 
ATOM     16  C   UNL     1       0.532   2.675  20.115  0.00  0.00    +0.000 A 
ATOM     17  S   UNL     1       1.490   3.317  18.857  0.00  0.00    +0.000 S 
ENDBRANCH   4  13
ENDBRANCH   1   3
BRANCH   1  18
ATOM     18  O   UNL     1       2.710   6.669  20.134  0.00  0.00    +0.000 OA
BRANCH  18  19
ATOM     19  C   UNL     1       1.500   7.318  20.615  0.00  0.00    +0.000 C 
BRANCH  19  20
ATOM     20  C   UNL     1       1.844   8.584  21.405  0.00  0.00    +0.000 C 
BRANCH  20  31
ATOM     21  O   UNL     1       0.389   9.542  23.782  0.00  0.00    +0.000 OA
ATOM     22  C   UNL     1       0.124   9.887  22.647  0.00  0.00    +0.000 C 
ATOM     23  C   UNL     1      -0.890  10.880  22.296  0.00  0.00    +0.000 A 
ATOM     24  C   UNL     1      -1.771  11.585  23.099  0.00  0.00    +0.000 A 
ATOM     25  C   UNL     1      -2.620  12.501  22.467  0.00  0.00    +0.000 A 
ATOM     26  C   UNL     1      -2.565  12.691  21.070  0.00  0.00    +0.000 A 
ATOM     27  C   UNL     1      -1.660  11.968  20.283  0.00  0.00    +0.000 A 
ATOM     28  C   UNL     1      -0.835  11.067  20.928  0.00  0.00    +0.000 A 
ATOM     29  C   UNL     1       0.219  10.196  20.407  0.00  0.00    +0.000 C 
ATOM     30  O   UNL     1       0.578  10.167  19.243  0.00  0.00    +0.000 OA
ATOM     31  N   UNL     1       0.710   9.495  21.475  0.00  0.00    +0.000 N 
ENDBRANCH  20  31
ENDBRANCH  19  20
ENDBRANCH  18  19
ENDBRANCH   1  18
TORSDOF 7
ENDMDL
MODEL 4
REMARK VINA RESULT:      -7.8      0.953      2.001
REMARK  Name = 
REMARK  7 active torsions:
REMARK  status: ('A' for Active; 'I' for Inactive)
REMARK    1  A    between atoms: N_11  and  C_12
REMARK    2  A    between atoms: C_12  and  C_13
REMARK    3  A    between atoms: C_13  and  O_14
REMARK    4  A    between atoms: O_14  and  C_15
REMARK    5  A    between atoms: C_15  and  N_17
REMARK    6  A    between atoms: N_17  and  C_25
REMARK    7  A    between atoms: C_18  and  C_20
REMARK                            x       y       z     vdW  Elec       q    Type
REMARK                         _______ _______ _______ _____ _____    ______ ____
ROOT
ATOM      1  C   UNL     1       2.956   6.797  18.914  0.00  0.00    +0.000 C 
ATOM      2  S   UNL     1       2.984   7.815  17.575  0.00  0.00    +0.000 S 
ENDROOT
BRANCH   1   3
ATOM      3  N   UNL     1       3.465   5.481  18.970  0.00  0.00    +0.000 N 
ATOM      4  C   UNL     1       4.552   5.049  18.152  0.00  0.00    +0.000 C 
ATOM      5  O   UNL     1       4.491   3.990  17.518  0.00  0.00    +0.000 OA
BRANCH   3   6
ATOM      6  C   UNL     1       2.605   4.425  19.511  0.00  0.00    +0.000 A 
ATOM      7  C   UNL     1       2.732   4.003  20.852  0.00  0.00    +0.000 A 
ATOM      8  C   UNL     1       1.984   2.931  21.363  0.00  0.00    +0.000 A 
ATOM      9  C   UNL     1       1.069   2.275  20.552  0.00  0.00    +0.000 A 
ATOM     10  C   UNL     1       0.912   2.695  19.241  0.00  0.00    +0.000 A 
ATOM     11  F   UNL     1       0.033   2.065  18.451  0.00  0.00    +0.000 F 
ATOM     12  C   UNL     1       1.666   3.746  18.718  0.00  0.00    +0.000 A 
ENDBRANCH   3   6
BRANCH   4  13
ATOM     13  C   UNL     1       5.737   5.915  18.058  0.00  0.00    +0.000 A 
ATOM     14  C   UNL     1       6.069   6.925  17.170  0.00  0.00    +0.000 A 
ATOM     15  C   UNL     1       7.381   7.447  17.399  0.00  0.00    +0.000 A 
ATOM     16  C   UNL     1       7.987   6.869  18.490  0.00  0.00    +0.000 A 
ATOM     17  S   UNL     1       6.978   5.717  19.240  0.00  0.00    +0.000 S 
ENDBRANCH   4  13
ENDBRANCH   1   3
BRANCH   1  18
ATOM     18  O   UNL     1       2.405   7.220  20.105  0.00  0.00    +0.000 OA
BRANCH  18  19
ATOM     19  C   UNL     1       1.801   8.532  20.270  0.00  0.00    +0.000 C 
BRANCH  19  20
ATOM     20  C   UNL     1       0.525   8.437  21.111  0.00  0.00    +0.000 C 
BRANCH  20  31
ATOM     21  O   UNL     1      -0.854  10.139  19.139  0.00  0.00    +0.000 OA
ATOM     22  C   UNL     1      -0.722  10.437  20.310  0.00  0.00    +0.000 C 
ATOM     23  C   UNL     1      -1.291  11.633  20.931  0.00  0.00    +0.000 A 
ATOM     24  C   UNL     1      -2.021  12.671  20.377  0.00  0.00    +0.000 A 
ATOM     25  C   UNL     1      -2.459  13.679  21.243  0.00  0.00    +0.000 A 
ATOM     26  C   UNL     1      -2.164  13.625  22.622  0.00  0.00    +0.000 A 
ATOM     27  C   UNL     1      -1.428  12.560  23.156  0.00  0.00    +0.000 A 
ATOM     28  C   UNL     1      -1.003  11.578  22.282  0.00  0.00    +0.000 A 
ATOM     29  C   UNL     1      -0.255  10.344  22.523  0.00  0.00    +0.000 C 
ATOM     30  O   UNL     1       0.094   9.951  23.622  0.00  0.00    +0.000 OA
ATOM     31  N   UNL     1      -0.087   9.745  21.304  0.00  0.00    +0.000 N 
ENDBRANCH  20  31
ENDBRANCH  19  20
ENDBRANCH  18  19
ENDBRANCH   1  18
TORSDOF 7
ENDMDL
MODEL 5
REMARK VINA RESULT:      -7.7      2.790      4.867
REMARK  Name = 
REMARK  7 active torsions:
REMARK  status: ('A' for Active; 'I' for Inactive)
REMARK    1  A    between atoms: N_11  and  C_12
REMARK    2  A    between atoms: C_12  and  C_13
REMARK    3  A    between atoms: C_13  and  O_14
REMARK    4  A    between atoms: O_14  and  C_15
REMARK    5  A    between atoms: C_15  and  N_17
REMARK    6  A    between atoms: N_17  and  C_25
REMARK    7  A    between atoms: C_18  and  C_20
REMARK                            x       y       z     vdW  Elec       q    Type
REMARK                         _______ _______ _______ _____ _____    ______ ____
ROOT
ATOM      1  C   UNL     1       5.006   5.485  18.201  0.00  0.00    +0.000 C 
ATOM      2  S   UNL     1       6.211   5.428  19.373  0.00  0.00    +0.000 S 
ENDROOT
BRANCH   1   3
ATOM      3  N   UNL     1       4.666   4.448  17.305  0.00  0.00    +0.000 N 
ATOM      4  C   UNL     1       4.040   3.240  17.739  0.00  0.00    +0.000 C 
ATOM      5  O   UNL     1       4.461   2.137  17.376  0.00  0.00    +0.000 OA
BRANCH   3   6
ATOM      6  C   UNL     1       5.359   4.387  16.015  0.00  0.00    +0.000 A 
ATOM      7  C   UNL     1       6.717   4.750  15.903  0.00  0.00    +0.000 A 
ATOM      8  C   UNL     1       7.373   4.789  14.663  0.00  0.00    +0.000 A 
ATOM      9  C   UNL     1       6.691   4.435  13.507  0.00  0.00    +0.000 A 
ATOM     10  C   UNL     1       5.364   4.048  13.602  0.00  0.00    +0.000 A 
ATOM     11  F   UNL     1       4.698   3.707  12.492  0.00  0.00    +0.000 F 
ATOM     12  C   UNL     1       4.698   4.027  14.828  0.00  0.00    +0.000 A 
ENDBRANCH   3   6
BRANCH   4  13
ATOM     13  C   UNL     1       2.897   3.344  18.659  0.00  0.00    +0.000 A 
ATOM     14  C   UNL     1       1.573   3.696  18.446  0.00  0.00    +0.000 A 
ATOM     15  C   UNL     1       0.819   3.752  19.659  0.00  0.00    +0.000 A 
ATOM     16  C   UNL     1       1.564   3.380  20.752  0.00  0.00    +0.000 A 
ATOM     17  S   UNL     1       3.158   2.954  20.319  0.00  0.00    +0.000 S 
ENDBRANCH   4  13
ENDBRANCH   1   3
BRANCH   1  18
ATOM     18  O   UNL     1       4.234   6.616  18.043  0.00  0.00    +0.000 OA
BRANCH  18  19
ATOM     19  C   UNL     1       3.052   6.880  18.849  0.00  0.00    +0.000 C 
BRANCH  19  20
ATOM     20  C   UNL     1       2.265   8.064  18.280  0.00  0.00    +0.000 C 
BRANCH  20  31
ATOM     21  O   UNL     1       1.409   7.040  20.909  0.00  0.00    +0.000 OA
ATOM     22  C   UNL     1       1.169   8.164  20.514  0.00  0.00    +0.000 C 
ATOM     23  C   UNL     1       0.498   9.197  21.304  0.00  0.00    +0.000 A 
ATOM     24  C   UNL     1      -0.037   9.144  22.580  0.00  0.00    +0.000 A 
ATOM     25  C   UNL     1      -0.600  10.321  23.086  0.00  0.00    +0.000 A 
ATOM     26  C   UNL     1      -0.612  11.504  22.319  0.00  0.00    +0.000 A 
ATOM     27  C   UNL     1      -0.059  11.530  21.032  0.00  0.00    +0.000 A 
ATOM     28  C   UNL     1       0.489  10.356  20.551  0.00  0.00    +0.000 A 
ATOM     29  C   UNL     1       1.158  10.065  19.284  0.00  0.00    +0.000 C 
ATOM     30  O   UNL     1       1.385  10.890  18.417  0.00  0.00    +0.000 OA
ATOM     31  N   UNL     1       1.492   8.738  19.315  0.00  0.00    +0.000 N 
ENDBRANCH  20  31
ENDBRANCH  19  20
ENDBRANCH  18  19
ENDBRANCH   1  18
TORSDOF 7
ENDMDL
MODEL 6
REMARK VINA RESULT:      -7.6      2.148      4.369
REMARK  Name = 
REMARK  7 active torsions:
REMARK  status: ('A' for Active; 'I' for Inactive)
REMARK    1  A    between atoms: N_11  and  C_12
REMARK    2  A    between atoms: C_12  and  C_13
REMARK    3  A    between atoms: C_13  and  O_14
REMARK    4  A    between atoms: O_14  and  C_15
REMARK    5  A    between atoms: C_15  and  N_17
REMARK    6  A    between atoms: N_17  and  C_25
REMARK    7  A    between atoms: C_18  and  C_20
REMARK                            x       y       z     vdW  Elec       q    Type
REMARK                         _______ _______ _______ _____ _____    ______ ____
ROOT
ATOM      1  C   UNL     1       3.217   6.446  18.808  0.00  0.00    +0.000 C 
ATOM      2  S   UNL     1       2.868   7.706  17.749  0.00  0.00    +0.000 S 
ENDROOT
BRANCH   1   3
ATOM      3  N   UNL     1       3.977   5.294  18.510  0.00  0.00    +0.000 N 
ATOM      4  C   UNL     1       4.054   4.179  19.398  0.00  0.00    +0.000 C 
ATOM      5  O   UNL     1       5.141   3.670  19.690  0.00  0.00    +0.000 OA
BRANCH   3   6
ATOM      6  C   UNL     1       5.057   5.409  17.524  0.00  0.00    +0.000 A 
ATOM      7  C   UNL     1       6.226   6.144  17.812  0.00  0.00    +0.000 A 
ATOM      8  C   UNL     1       7.228   6.344  16.850  0.00  0.00    +0.000 A 
ATOM      9  C   UNL     1       7.098   5.786  15.586  0.00  0.00    +0.000 A 
ATOM     10  C   UNL     1       5.969   5.037  15.296  0.00  0.00    +0.000 A 
ATOM     11  F   UNL     1       5.834   4.497  14.078  0.00  0.00    +0.000 F 
ATOM     12  C   UNL     1       4.957   4.851  16.239  0.00  0.00    +0.000 A 
ENDBRANCH   3   6
BRANCH   4  13
ATOM     13  C   UNL     1       2.804   3.672  19.984  0.00  0.00    +0.000 A 
ATOM     14  C   UNL     1       2.439   3.422  21.297  0.00  0.00    +0.000 A 
ATOM     15  C   UNL     1       1.137   2.839  21.403  0.00  0.00    +0.000 A 
ATOM     16  C   UNL     1       0.520   2.720  20.180  0.00  0.00    +0.000 A 
ATOM     17  S   UNL     1       1.496   3.319  18.915  0.00  0.00    +0.000 S 
ENDBRANCH   4  13
ENDBRANCH   1   3
BRANCH   1  18
ATOM     18  O   UNL     1       2.754   6.472  20.106  0.00  0.00    +0.000 OA
BRANCH  18  19
ATOM     19  C   UNL     1       1.554   7.195  20.498  0.00  0.00    +0.000 C 
BRANCH  19  20
ATOM     20  C   UNL     1       1.918   8.451  21.295  0.00  0.00    +0.000 C 
BRANCH  20  31
ATOM     21  O   UNL     1       0.529   9.486  23.679  0.00  0.00    +0.000 OA
ATOM     22  C   UNL     1       0.245   9.809  22.542  0.00  0.00    +0.000 C 
ATOM     23  C   UNL     1      -0.762  10.809  22.190  0.00  0.00    +0.000 A 
ATOM     24  C   UNL     1      -1.616  11.546  22.994  0.00  0.00    +0.000 A 
ATOM     25  C   UNL     1      -2.464  12.460  22.359  0.00  0.00    +0.000 A 
ATOM     26  C   UNL     1      -2.437  12.616  20.957  0.00  0.00    +0.000 A 
ATOM     27  C   UNL     1      -1.559  11.861  20.168  0.00  0.00    +0.000 A 
ATOM     28  C   UNL     1      -0.734  10.963  20.816  0.00  0.00    +0.000 A 
ATOM     29  C   UNL     1       0.295  10.064  20.293  0.00  0.00    +0.000 C 
ATOM     30  O   UNL     1       0.629  10.003  19.124  0.00  0.00    +0.000 OA
ATOM     31  N   UNL     1       0.799   9.381  21.367  0.00  0.00    +0.000 N 
ENDBRANCH  20  31
ENDBRANCH  19  20
ENDBRANCH  18  19
ENDBRANCH   1  18
TORSDOF 7
ENDMDL
MODEL 7
REMARK VINA RESULT:      -7.6      0.965      1.381
REMARK  Name = 
REMARK  7 active torsions:
REMARK  status: ('A' for Active; 'I' for Inactive)
REMARK    1  A    between atoms: N_11  and  C_12
REMARK    2  A    between atoms: C_12  and  C_13
REMARK    3  A    between atoms: C_13  and  O_14
REMARK    4  A    between atoms: O_14  and  C_15
REMARK    5  A    between atoms: C_15  and  N_17
REMARK    6  A    between atoms: N_17  and  C_25
REMARK    7  A    between atoms: C_18  and  C_20
REMARK                            x       y       z     vdW  Elec       q    Type
REMARK                         _______ _______ _______ _____ _____    ______ ____
ROOT
ATOM      1  C   UNL     1       3.147   6.687  19.019  0.00  0.00    +0.000 C 
ATOM      2  S   UNL     1       3.106   7.642  17.634  0.00  0.00    +0.000 S 
ENDROOT
BRANCH   1   3
ATOM      3  N   UNL     1       3.558   5.338  19.087  0.00  0.00    +0.000 N 
ATOM      4  C   UNL     1       4.623   4.823  18.288  0.00  0.00    +0.000 C 
ATOM      5  O   UNL     1       4.494   3.769  17.657  0.00  0.00    +0.000 OA
BRANCH   3   6
ATOM      6  C   UNL     1       2.615   4.350  19.619  0.00  0.00    +0.000 A 
ATOM      7  C   UNL     1       2.629   3.996  20.985  0.00  0.00    +0.000 A 
ATOM      8  C   UNL     1       1.800   2.985  21.496  0.00  0.00    +0.000 A 
ATOM      9  C   UNL     1       0.913   2.325  20.656  0.00  0.00    +0.000 A 
ATOM     10  C   UNL     1       0.866   2.681  19.318  0.00  0.00    +0.000 A 
ATOM     11  F   UNL     1       0.015   2.047  18.500  0.00  0.00    +0.000 F 
ATOM     12  C   UNL     1       1.702   3.669  18.797  0.00  0.00    +0.000 A 
ENDBRANCH   3   6
BRANCH   4  13
ATOM     13  C   UNL     1       5.869   5.600  18.209  0.00  0.00    +0.000 A 
ATOM     14  C   UNL     1       6.900   5.779  19.117  0.00  0.00    +0.000 A 
ATOM     15  C   UNL     1       7.886   6.704  18.651  0.00  0.00    +0.000 A 
ATOM     16  C   UNL     1       7.617   7.154  17.381  0.00  0.00    +0.000 A 
ATOM     17  S   UNL     1       6.194   6.458  16.748  0.00  0.00    +0.000 S 
ENDBRANCH   4  13
ENDBRANCH   1   3
BRANCH   1  18
ATOM     18  O   UNL     1       2.762   7.202  20.238  0.00  0.00    +0.000 OA
BRANCH  18  19
ATOM     19  C   UNL     1       1.520   7.934  20.425  0.00  0.00    +0.000 C 
BRANCH  19  20
ATOM     20  C   UNL     1       1.699   9.045  21.463  0.00  0.00    +0.000 C 
BRANCH  20  31
ATOM     21  O   UNL     1       0.080   9.773  23.817  0.00  0.00    +0.000 OA
ATOM     22  C   UNL     1      -0.137  10.190  22.696  0.00  0.00    +0.000 C 
ATOM     23  C   UNL     1      -1.171  11.168  22.359  0.00  0.00    +0.000 A 
ATOM     24  C   UNL     1      -2.123  11.779  23.158  0.00  0.00    +0.000 A 
ATOM     25  C   UNL     1      -2.973  12.706  22.545  0.00  0.00    +0.000 A 
ATOM     26  C   UNL     1      -2.851  12.999  21.171  0.00  0.00    +0.000 A 
ATOM     27  C   UNL     1      -1.876  12.370  20.387  0.00  0.00    +0.000 A 
ATOM     28  C   UNL     1      -1.050  11.455  21.012  0.00  0.00    +0.000 A 
ATOM     29  C   UNL     1       0.065  10.664  20.491  0.00  0.00    +0.000 C 
ATOM     30  O   UNL     1       0.487  10.733  19.351  0.00  0.00    +0.000 OA
ATOM     31  N   UNL     1       0.526   9.906  21.533  0.00  0.00    +0.000 N 
ENDBRANCH  20  31
ENDBRANCH  19  20
ENDBRANCH  18  19
ENDBRANCH   1  18
TORSDOF 7
ENDMDL
MODEL 8
REMARK VINA RESULT:      -7.5      2.947      4.897
REMARK  Name = 
REMARK  7 active torsions:
REMARK  status: ('A' for Active; 'I' for Inactive)
REMARK    1  A    between atoms: N_11  and  C_12
REMARK    2  A    between atoms: C_12  and  C_13
REMARK    3  A    between atoms: C_13  and  O_14
REMARK    4  A    between atoms: O_14  and  C_15
REMARK    5  A    between atoms: C_15  and  N_17
REMARK    6  A    between atoms: N_17  and  C_25
REMARK    7  A    between atoms: C_18  and  C_20
REMARK                            x       y       z     vdW  Elec       q    Type
REMARK                         _______ _______ _______ _____ _____    ______ ____
ROOT
ATOM      1  C   UNL     1       4.738   5.426  18.030  0.00  0.00    +0.000 C 
ATOM      2  S   UNL     1       5.806   5.467  19.329  0.00  0.00    +0.000 S 
ENDROOT
BRANCH   1   3
ATOM      3  N   UNL     1       4.518   4.329  17.168  0.00  0.00    +0.000 N 
ATOM      4  C   UNL     1       3.983   3.090  17.632  0.00  0.00    +0.000 C 
ATOM      5  O   UNL     1       4.508   2.014  17.327  0.00  0.00    +0.000 OA
BRANCH   3   6
ATOM      6  C   UNL     1       5.255   4.279  15.902  0.00  0.00    +0.000 A 
ATOM      7  C   UNL     1       6.613   4.657  15.838  0.00  0.00    +0.000 A 
ATOM      8  C   UNL     1       7.311   4.706  14.622  0.00  0.00    +0.000 A 
ATOM      9  C   UNL     1       6.673   4.348  13.442  0.00  0.00    +0.000 A 
ATOM     10  C   UNL     1       5.347   3.948  13.490  0.00  0.00    +0.000 A 
ATOM     11  F   UNL     1       4.723   3.604  12.356  0.00  0.00    +0.000 F 
ATOM     12  C   UNL     1       4.639   3.916  14.692  0.00  0.00    +0.000 A 
ENDBRANCH   3   6
BRANCH   4  13
ATOM     13  C   UNL     1       2.805   3.129  18.512  0.00  0.00    +0.000 A 
ATOM     14  C   UNL     1       1.461   3.330  18.242  0.00  0.00    +0.000 A 
ATOM     15  C   UNL     1       0.665   3.379  19.429  0.00  0.00    +0.000 A 
ATOM     16  C   UNL     1       1.408   3.151  20.563  0.00  0.00    +0.000 A 
ATOM     17  S   UNL     1       3.050   2.866  20.200  0.00  0.00    +0.000 S 
ENDBRANCH   4  13
ENDBRANCH   1   3
BRANCH   1  18
ATOM     18  O   UNL     1       3.970   6.527  17.718  0.00  0.00    +0.000 OA
BRANCH  18  19
ATOM     19  C   UNL     1       2.598   6.683  18.174  0.00  0.00    +0.000 C 
BRANCH  19  20
ATOM     20  C   UNL     1       2.561   7.335  19.560  0.00  0.00    +0.000 C 
BRANCH  20  31
ATOM     21  O   UNL     1       0.934   8.306  21.818  0.00  0.00    +0.000 OA
ATOM     22  C   UNL     1       0.940   8.827  20.719  0.00  0.00    +0.000 C 
ATOM     23  C   UNL     1       0.213  10.049  20.376  0.00  0.00    +0.000 A 
ATOM     24  C   UNL     1      -0.639  10.831  21.138  0.00  0.00    +0.000 A 
ATOM     25  C   UNL     1      -1.172  11.974  20.532  0.00  0.00    +0.000 A 
ATOM     26  C   UNL     1      -0.844  12.305  19.200  0.00  0.00    +0.000 A 
ATOM     27  C   UNL     1       0.025  11.499  18.454  0.00  0.00    +0.000 A 
ATOM     28  C   UNL     1       0.537  10.374  19.071  0.00  0.00    +0.000 A 
ATOM     29  C   UNL     1       1.474   9.362  18.585  0.00  0.00    +0.000 C 
ATOM     30  O   UNL     1       2.015   9.388  17.494  0.00  0.00    +0.000 OA
ATOM     31  N   UNL     1       1.630   8.455  19.598  0.00  0.00    +0.000 N 
ENDBRANCH  20  31
ENDBRANCH  19  20
ENDBRANCH  18  19
ENDBRANCH   1  18
TORSDOF 7
ENDMDL
MODEL 9
REMARK VINA RESULT:      -7.4      2.153      4.641
REMARK  Name = 
REMARK  7 active torsions:
REMARK  status: ('A' for Active; 'I' for Inactive)
REMARK    1  A    between atoms: N_11  and  C_12
REMARK    2  A    between atoms: C_12  and  C_13
REMARK    3  A    between atoms: C_13  and  O_14
REMARK    4  A    between atoms: O_14  and  C_15
REMARK    5  A    between atoms: C_15  and  N_17
REMARK    6  A    between atoms: N_17  and  C_25
REMARK    7  A    between atoms: C_18  and  C_20
REMARK                            x       y       z     vdW  Elec       q    Type
REMARK                         _______ _______ _______ _____ _____    ______ ____
ROOT
ATOM      1  C   UNL     1       3.197   6.480  18.740  0.00  0.00    +0.000 C 
ATOM      2  S   UNL     1       2.780   7.666  17.622  0.00  0.00    +0.000 S 
ENDROOT
BRANCH   1   3
ATOM      3  N   UNL     1       3.972   5.328  18.482  0.00  0.00    +0.000 N 
ATOM      4  C   UNL     1       4.046   4.237  19.400  0.00  0.00    +0.000 C 
ATOM      5  O   UNL     1       5.134   3.746  19.720  0.00  0.00    +0.000 OA
BRANCH   3   6
ATOM      6  C   UNL     1       5.063   5.427  17.509  0.00  0.00    +0.000 A 
ATOM      7  C   UNL     1       6.214   6.197  17.785  0.00  0.00    +0.000 A 
ATOM      8  C   UNL     1       7.226   6.381  16.831  0.00  0.00    +0.000 A 
ATOM      9  C   UNL     1       7.126   5.773  15.587  0.00  0.00    +0.000 A 
ATOM     10  C   UNL     1       6.016   4.991  15.309  0.00  0.00    +0.000 A 
ATOM     11  F   UNL     1       5.910   4.403  14.111  0.00  0.00    +0.000 F 
ATOM     12  C   UNL     1       4.994   4.820  16.244  0.00  0.00    +0.000 A 
ENDBRANCH   3   6
BRANCH   4  13
ATOM     13  C   UNL     1       2.793   3.734  19.982  0.00  0.00    +0.000 A 
ATOM     14  C   UNL     1       2.432   3.462  21.292  0.00  0.00    +0.000 A 
ATOM     15  C   UNL     1       1.124   2.892  21.393  0.00  0.00    +0.000 A 
ATOM     16  C   UNL     1       0.500   2.805  20.171  0.00  0.00    +0.000 A 
ATOM     17  S   UNL     1       1.477   3.417  18.914  0.00  0.00    +0.000 S 
ENDBRANCH   4  13
ENDBRANCH   1   3
BRANCH   1  18
ATOM     18  O   UNL     1       2.782   6.575  20.051  0.00  0.00    +0.000 OA
BRANCH  18  19
ATOM     19  C   UNL     1       1.564   7.267  20.443  0.00  0.00    +0.000 C 
BRANCH  19  20
ATOM     20  C   UNL     1       1.852   8.275  21.559  0.00  0.00    +0.000 C 
BRANCH  20  31
ATOM     21  O   UNL     1       0.628   9.655  19.260  0.00  0.00    +0.000 OA
ATOM     22  C   UNL     1       0.367   9.917  20.418  0.00  0.00    +0.000 C 
ATOM     23  C   UNL     1      -0.641  10.887  20.844  0.00  0.00    +0.000 A 
ATOM     24  C   UNL     1      -1.453  11.724  20.097  0.00  0.00    +0.000 A 
ATOM     25  C   UNL     1      -2.352  12.535  20.797  0.00  0.00    +0.000 A 
ATOM     26  C   UNL     1      -2.421  12.489  22.206  0.00  0.00    +0.000 A 
ATOM     27  C   UNL     1      -1.591  11.628  22.936  0.00  0.00    +0.000 A 
ATOM     28  C   UNL     1      -0.709  10.839  22.224  0.00  0.00    +0.000 A 
ATOM     29  C   UNL     1       0.253   9.834  22.677  0.00  0.00    +0.000 C 
ATOM     30  O   UNL     1       0.397   9.490  23.837  0.00  0.00    +0.000 OA
ATOM     31  N   UNL     1       0.884   9.364  21.557  0.00  0.00    +0.000 N 
ENDBRANCH  20  31
ENDBRANCH  19  20
ENDBRANCH  18  19
ENDBRANCH   1  18
TORSDOF 7
ENDMDL
