MODEL 1
REMARK VINA RESULT:      -8.1      0.000      0.000
REMARK  Name = 
REMARK  4 active torsions:
REMARK  status: ('A' for Active; 'I' for Inactive)
REMARK    1  A    between atoms: C_2  and  O_3
REMARK    2  A    between atoms: C_2  and  C_4
REMARK    3  A    between atoms: N_6  and  C_7
REMARK    4  A    between atoms: C_7  and  C_8
REMARK                            x       y       z     vdW  Elec       q    Type
REMARK                         _______ _______ _______ _____ _____    ______ ____
ROOT
ATOM      1  C   UNL     1       4.790   5.363  17.502  0.00  0.00    +0.000 A 
ATOM      2  C   UNL     1       4.328   6.178  18.458  0.00  0.00    +0.000 A 
ATOM      3  N   UNL     1       3.201   5.976  19.248  0.00  0.00    +0.000 N 
ATOM      4  C   UNL     1       2.468   4.768  19.111  0.00  0.00    +0.000 A 
ATOM      5  C   UNL     1       1.350   4.415  19.894  0.00  0.00    +0.000 A 
ATOM      6  F   UNL     1       0.894   5.220  20.864  0.00  0.00    +0.000 F 
ATOM      7  C   UNL     1       0.662   3.211  19.717  0.00  0.00    +0.000 A 
ATOM      8  C   UNL     1       1.082   2.304  18.756  0.00  0.00    +0.000 A 
ATOM      9  C   UNL     1       2.187   2.612  17.971  0.00  0.00    +0.000 A 
ATOM     10  F   UNL     1       2.574   1.706  17.064  0.00  0.00    +0.000 F 
ATOM     11  C   UNL     1       2.870   3.825  18.134  0.00  0.00    +0.000 A 
ATOM     12  C   UNL     1       4.030   4.122  17.260  0.00  0.00    +0.000 A 
ATOM     13  O   UNL     1       4.378   3.385  16.340  0.00  0.00    +0.000 OA
ENDROOT
BRANCH   1  15
ATOM     14  O   UNL     1       6.141   6.860  16.237  0.00  0.00    +0.000 OA
ATOM     15  C   UNL     1       5.994   5.754  16.737  0.00  0.00    +0.000 C 
BRANCH  15  16
ATOM     16  O   UNL     1       6.924   4.782  16.619  0.00  0.00    +0.000 OA
ATOM     17  H   UNL     1       6.544   3.878  16.486  0.00  0.00    +0.000 HD
ENDBRANCH  15  16
ENDBRANCH   1  15
BRANCH   3  18
ATOM     18  C   UNL     1       2.760   7.020  20.196  0.00  0.00    +0.000 C 
BRANCH  18  19
ATOM     19  C   UNL     1       1.885   8.110  19.630  0.00  0.00    +0.000 A 
ATOM     20  C   UNL     1       1.886   8.559  18.308  0.00  0.00    +0.000 A 
ATOM     21  F   UNL     1       2.726   8.045  17.398  0.00  0.00    +0.000 F 
ATOM     22  C   UNL     1       1.005   9.553  17.874  0.00  0.00    +0.000 A 
ATOM     23  C   UNL     1       0.096  10.126  18.761  0.00  0.00    +0.000 A 
ATOM     24  C   UNL     1       0.075   9.699  20.084  0.00  0.00    +0.000 A 
ATOM     25  C   UNL     1       0.962   8.705  20.501  0.00  0.00    +0.000 A 
ATOM     26  F   UNL     1       0.910   8.305  21.780  0.00  0.00    +0.000 F 
ENDBRANCH  18  19
ENDBRANCH   3  18
TORSDOF 4
ENDMDL
MODEL 2
REMARK VINA RESULT:      -7.9      2.984      5.144
REMARK  Name = 
REMARK  4 active torsions:
REMARK  status: ('A' for Active; 'I' for Inactive)
REMARK    1  A    between atoms: C_2  and  O_3
REMARK    2  A    between atoms: C_2  and  C_4
REMARK    3  A    between atoms: N_6  and  C_7
REMARK    4  A    between atoms: C_7  and  C_8
REMARK                            x       y       z     vdW  Elec       q    Type
REMARK                         _______ _______ _______ _____ _____    ______ ____
ROOT
ATOM      1  C   UNL     1       2.225   6.599  19.562  0.00  0.00    +0.000 A 
ATOM      2  C   UNL     1       3.172   6.512  18.620  0.00  0.00    +0.000 A 
ATOM      3  N   UNL     1       3.679   5.345  18.058  0.00  0.00    +0.000 N 
ATOM      4  C   UNL     1       3.126   4.096  18.440  0.00  0.00    +0.000 A 
ATOM      5  C   UNL     1       3.505   2.850  17.898  0.00  0.00    +0.000 A 
ATOM      6  F   UNL     1       4.441   2.761  16.943  0.00  0.00    +0.000 F 
ATOM      7  C   UNL     1       2.928   1.646  18.311  0.00  0.00    +0.000 A 
ATOM      8  C   UNL     1       1.930   1.648  19.274  0.00  0.00    +0.000 A 
ATOM      9  C   UNL     1       1.520   2.857  19.825  0.00  0.00    +0.000 A 
ATOM     10  F   UNL     1       0.544   2.822  20.740  0.00  0.00    +0.000 F 
ATOM     11  C   UNL     1       2.109   4.065  19.425  0.00  0.00    +0.000 A 
ATOM     12  C   UNL     1       1.657   5.328  20.055  0.00  0.00    +0.000 A 
ATOM     13  O   UNL     1       0.840   5.362  20.973  0.00  0.00    +0.000 OA
ENDROOT
BRANCH   1  15
ATOM     14  O   UNL     1       1.514   8.858  19.335  0.00  0.00    +0.000 OA
ATOM     15  C   UNL     1       1.826   7.930  20.067  0.00  0.00    +0.000 C 
BRANCH  15  16
ATOM     16  O   UNL     1       1.846   8.050  21.412  0.00  0.00    +0.000 OA
ATOM     17  H   UNL     1       1.709   8.976  21.733  0.00  0.00    +0.000 HD
ENDBRANCH  15  16
ENDBRANCH   1  15
BRANCH   3  18
ATOM     18  C   UNL     1       4.800   5.409  17.097  0.00  0.00    +0.000 C 
BRANCH  18  19
ATOM     19  C   UNL     1       6.065   6.068  17.588  0.00  0.00    +0.000 A 
ATOM     20  C   UNL     1       6.593   7.276  17.127  0.00  0.00    +0.000 A 
ATOM     21  F   UNL     1       5.999   7.965  16.142  0.00  0.00    +0.000 F 
ATOM     22  C   UNL     1       7.755   7.822  17.678  0.00  0.00    +0.000 A 
ATOM     23  C   UNL     1       8.421   7.166  18.711  0.00  0.00    +0.000 A 
ATOM     24  C   UNL     1       7.918   5.961  19.188  0.00  0.00    +0.000 A 
ATOM     25  C   UNL     1       6.756   5.429  18.627  0.00  0.00    +0.000 A 
ATOM     26  F   UNL     1       6.287   4.272  19.116  0.00  0.00    +0.000 F 
ENDBRANCH  18  19
ENDBRANCH   3  18
TORSDOF 4
ENDMDL
MODEL 3
REMARK VINA RESULT:      -7.8      3.010      5.278
REMARK  Name = 
REMARK  4 active torsions:
REMARK  status: ('A' for Active; 'I' for Inactive)
REMARK    1  A    between atoms: C_2  and  O_3
REMARK    2  A    between atoms: C_2  and  C_4
REMARK    3  A    between atoms: N_6  and  C_7
REMARK    4  A    between atoms: C_7  and  C_8
REMARK                            x       y       z     vdW  Elec       q    Type
REMARK                         _______ _______ _______ _____ _____    ______ ____
ROOT
ATOM      1  C   UNL     1       2.175   6.605  19.628  0.00  0.00    +0.000 A 
ATOM      2  C   UNL     1       3.141   6.544  18.704  0.00  0.00    +0.000 A 
ATOM      3  N   UNL     1       3.670   5.394  18.130  0.00  0.00    +0.000 N 
ATOM      4  C   UNL     1       3.121   4.132  18.477  0.00  0.00    +0.000 A 
ATOM      5  C   UNL     1       3.523   2.901  17.919  0.00  0.00    +0.000 A 
ATOM      6  F   UNL     1       4.479   2.838  16.981  0.00  0.00    +0.000 F 
ATOM      7  C   UNL     1       2.949   1.684  18.297  0.00  0.00    +0.000 A 
ATOM      8  C   UNL     1       1.932   1.658  19.240  0.00  0.00    +0.000 A 
ATOM      9  C   UNL     1       1.500   2.852  19.805  0.00  0.00    +0.000 A 
ATOM     10  F   UNL     1       0.506   2.791  20.700  0.00  0.00    +0.000 F 
ATOM     11  C   UNL     1       2.085   4.073  19.441  0.00  0.00    +0.000 A 
ATOM     12  C   UNL     1       1.609   5.320  20.085  0.00  0.00    +0.000 A 
ATOM     13  O   UNL     1       0.774   5.329  20.987  0.00  0.00    +0.000 OA
ENDROOT
BRANCH   1  15
ATOM     14  O   UNL     1       1.411   8.850  19.430  0.00  0.00    +0.000 OA
ATOM     15  C   UNL     1       1.752   7.922  20.150  0.00  0.00    +0.000 C 
BRANCH  15  16
ATOM     16  O   UNL     1       1.787   8.031  21.496  0.00  0.00    +0.000 OA
ATOM     17  H   UNL     1       2.370   8.761  21.824  0.00  0.00    +0.000 HD
ENDBRANCH  15  16
ENDBRANCH   1  15
BRANCH   3  18
ATOM     18  C   UNL     1       4.810   5.486  17.193  0.00  0.00    +0.000 C 
BRANCH  18  19
ATOM     19  C   UNL     1       6.069   6.116  17.733  0.00  0.00    +0.000 A 
ATOM     20  C   UNL     1       6.850   5.622  18.780  0.00  0.00    +0.000 A 
ATOM     21  F   UNL     1       6.506   4.506  19.439  0.00  0.00    +0.000 F 
ATOM     22  C   UNL     1       8.025   6.263  19.180  0.00  0.00    +0.000 A 
ATOM     23  C   UNL     1       8.450   7.423  18.535  0.00  0.00    +0.000 A 
ATOM     24  C   UNL     1       7.691   7.937  17.490  0.00  0.00    +0.000 A 
ATOM     25  C   UNL     1       6.519   7.284  17.103  0.00  0.00    +0.000 A 
ATOM     26  F   UNL     1       5.815   7.797  16.083  0.00  0.00    +0.000 F 
ENDBRANCH  18  19
ENDBRANCH   3  18
TORSDOF 4
ENDMDL
MODEL 4
REMARK VINA RESULT:      -7.7      2.088      4.091
REMARK  Name = 
REMARK  4 active torsions:
REMARK  status: ('A' for Active; 'I' for Inactive)
REMARK    1  A    between atoms: C_2  and  O_3
REMARK    2  A    between atoms: C_2  and  C_4
REMARK    3  A    between atoms: N_6  and  C_7
REMARK    4  A    between atoms: C_7  and  C_8
REMARK                            x       y       z     vdW  Elec       q    Type
REMARK                         _______ _______ _______ _____ _____    ______ ____
ROOT
ATOM      1  C   UNL     1       2.293   4.118  19.981  0.00  0.00    +0.000 A 
ATOM      2  C   UNL     1       2.363   5.453  20.041  0.00  0.00    +0.000 A 
ATOM      3  N   UNL     1       3.087   6.285  19.194  0.00  0.00    +0.000 N 
ATOM      4  C   UNL     1       3.788   5.717  18.098  0.00  0.00    +0.000 A 
ATOM      5  C   UNL     1       4.502   6.455  17.133  0.00  0.00    +0.000 A 
ATOM      6  F   UNL     1       4.560   7.793  17.180  0.00  0.00    +0.000 F 
ATOM      7  C   UNL     1       5.178   5.845  16.072  0.00  0.00    +0.000 A 
ATOM      8  C   UNL     1       5.146   4.465  15.929  0.00  0.00    +0.000 A 
ATOM      9  C   UNL     1       4.443   3.704  16.855  0.00  0.00    +0.000 A 
ATOM     10  F   UNL     1       4.421   2.377  16.677  0.00  0.00    +0.000 F 
ATOM     11  C   UNL     1       3.778   4.311  17.929  0.00  0.00    +0.000 A 
ATOM     12  C   UNL     1       3.059   3.458  18.906  0.00  0.00    +0.000 A 
ATOM     13  O   UNL     1       3.082   2.230  18.863  0.00  0.00    +0.000 OA
ENDROOT
BRANCH   1  15
ATOM     14  O   UNL     1       1.849   3.241  22.149  0.00  0.00    +0.000 OA
ATOM     15  C   UNL     1       1.493   3.388  20.988  0.00  0.00    +0.000 C 
BRANCH  15  16
ATOM     16  O   UNL     1       0.332   2.878  20.522  0.00  0.00    +0.000 OA
ATOM     17  H   UNL     1      -0.444   3.045  21.112  0.00  0.00    +0.000 HD
ENDBRANCH  15  16
ENDBRANCH   1  15
BRANCH   3  18
ATOM     18  C   UNL     1       3.145   7.740  19.451  0.00  0.00    +0.000 C 
BRANCH  18  19
ATOM     19  C   UNL     1       1.822   8.462  19.505  0.00  0.00    +0.000 A 
ATOM     20  C   UNL     1       1.037   8.651  20.643  0.00  0.00    +0.000 A 
ATOM     21  F   UNL     1       1.404   8.156  21.834  0.00  0.00    +0.000 F 
ATOM     22  C   UNL     1      -0.159   9.372  20.593  0.00  0.00    +0.000 A 
ATOM     23  C   UNL     1      -0.600   9.924  19.392  0.00  0.00    +0.000 A 
ATOM     24  C   UNL     1       0.162   9.750  18.243  0.00  0.00    +0.000 A 
ATOM     25  C   UNL     1       1.355   9.027  18.311  0.00  0.00    +0.000 A 
ATOM     26  F   UNL     1       2.075   8.886  17.188  0.00  0.00    +0.000 F 
ENDBRANCH  18  19
ENDBRANCH   3  18
TORSDOF 4
ENDMDL
MODEL 5
REMARK VINA RESULT:      -7.7      1.993      3.779
REMARK  Name = 
REMARK  4 active torsions:
REMARK  status: ('A' for Active; 'I' for Inactive)
REMARK    1  A    between atoms: C_2  and  O_3
REMARK    2  A    between atoms: C_2  and  C_4
REMARK    3  A    between atoms: N_6  and  C_7
REMARK    4  A    between atoms: C_7  and  C_8
REMARK                            x       y       z     vdW  Elec       q    Type
REMARK                         _______ _______ _______ _____ _____    ______ ____
ROOT
ATOM      1  C   UNL     1       1.912   4.000  19.538  0.00  0.00    +0.000 A 
ATOM      2  C   UNL     1       2.010   5.298  19.849  0.00  0.00    +0.000 A 
ATOM      3  N   UNL     1       2.850   6.233  19.253  0.00  0.00    +0.000 N 
ATOM      4  C   UNL     1       3.657   5.837  18.155  0.00  0.00    +0.000 A 
ATOM      5  C   UNL     1       4.498   6.701  17.424  0.00  0.00    +0.000 A 
ATOM      6  F   UNL     1       4.587   8.005  17.721  0.00  0.00    +0.000 F 
ATOM      7  C   UNL     1       5.275   6.259  16.350  0.00  0.00    +0.000 A 
ATOM      8  C   UNL     1       5.222   4.931  15.953  0.00  0.00    +0.000 A 
ATOM      9  C   UNL     1       4.397   4.050  16.642  0.00  0.00    +0.000 A 
ATOM     10  F   UNL     1       4.359   2.779  16.223  0.00  0.00    +0.000 F 
ATOM     11  C   UNL     1       3.629   4.486  17.730  0.00  0.00    +0.000 A 
ATOM     12  C   UNL     1       2.779   3.508  18.450  0.00  0.00    +0.000 A 
ATOM     13  O   UNL     1       2.773   2.307  18.186  0.00  0.00    +0.000 OA
ENDROOT
BRANCH   1  15
ATOM     14  O   UNL     1       1.112   2.905  21.494  0.00  0.00    +0.000 OA
ATOM     15  C   UNL     1       0.981   3.141  20.302  0.00  0.00    +0.000 C 
BRANCH  15  16
ATOM     16  O   UNL     1      -0.028   2.618  19.572  0.00  0.00    +0.000 OA
ATOM     17  H   UNL     1      -0.464   3.269  18.967  0.00  0.00    +0.000 HD
ENDBRANCH  15  16
ENDBRANCH   1  15
BRANCH   3  18
ATOM     18  C   UNL     1       2.917   7.613  19.777  0.00  0.00    +0.000 C 
BRANCH  18  19
ATOM     19  C   UNL     1       1.716   8.487  19.514  0.00  0.00    +0.000 A 
ATOM     20  C   UNL     1       1.325   8.991  18.272  0.00  0.00    +0.000 A 
ATOM     21  F   UNL     1       2.039   8.747  17.164  0.00  0.00    +0.000 F 
ATOM     22  C   UNL     1       0.168   9.763  18.129  0.00  0.00    +0.000 A 
ATOM     23  C   UNL     1      -0.628  10.051  19.235  0.00  0.00    +0.000 A 
ATOM     24  C   UNL     1      -0.260   9.562  20.484  0.00  0.00    +0.000 A 
ATOM     25  C   UNL     1       0.897   8.793  20.609  0.00  0.00    +0.000 A 
ATOM     26  F   UNL     1       1.220   8.325  21.824  0.00  0.00    +0.000 F 
ENDBRANCH  18  19
ENDBRANCH   3  18
TORSDOF 4
ENDMDL
MODEL 6
REMARK VINA RESULT:      -7.5      5.043      8.401
REMARK  Name = 
REMARK  4 active torsions:
REMARK  status: ('A' for Active; 'I' for Inactive)
REMARK    1  A    between atoms: C_2  and  O_3
REMARK    2  A    between atoms: C_2  and  C_4
REMARK    3  A    between atoms: N_6  and  C_7
REMARK    4  A    between atoms: C_7  and  C_8
REMARK                            x       y       z     vdW  Elec       q    Type
REMARK                         _______ _______ _______ _____ _____    ______ ____
ROOT
ATOM      1  C   UNL     1      -2.542  11.081  17.512  0.00  0.00    +0.000 A 
ATOM      2  C   UNL     1      -1.316  10.922  18.025  0.00  0.00    +0.000 A 
ATOM      3  N   UNL     1      -0.883  11.330  19.282  0.00  0.00    +0.000 N 
ATOM      4  C   UNL     1      -1.813  11.921  20.176  0.00  0.00    +0.000 A 
ATOM      5  C   UNL     1      -1.517  12.316  21.497  0.00  0.00    +0.000 A 
ATOM      6  F   UNL     1      -0.295  12.143  22.020  0.00  0.00    +0.000 F 
ATOM      7  C   UNL     1      -2.471  12.896  22.337  0.00  0.00    +0.000 A 
ATOM      8  C   UNL     1      -3.770  13.086  21.888  0.00  0.00    +0.000 A 
ATOM      9  C   UNL     1      -4.104  12.699  20.596  0.00  0.00    +0.000 A 
ATOM     10  F   UNL     1      -5.370  12.883  20.201  0.00  0.00    +0.000 F 
ATOM     11  C   UNL     1      -3.145  12.132  19.745  0.00  0.00    +0.000 A 
ATOM     12  C   UNL     1      -3.539  11.755  18.366  0.00  0.00    +0.000 A 
ATOM     13  O   UNL     1      -4.654  11.988  17.904  0.00  0.00    +0.000 OA
ENDROOT
BRANCH   1  15
ATOM     14  O   UNL     1      -2.674   9.446  15.788  0.00  0.00    +0.000 OA
ATOM     15  C   UNL     1      -2.820  10.608  16.139  0.00  0.00    +0.000 C 
BRANCH  15  16
ATOM     16  O   UNL     1      -3.236  11.570  15.286  0.00  0.00    +0.000 OA
ATOM     17  H   UNL     1      -3.685  11.220  14.477  0.00  0.00    +0.000 HD
ENDBRANCH  15  16
ENDBRANCH   1  15
BRANCH   3  18
ATOM     18  C   UNL     1       0.535  11.173  19.668  0.00  0.00    +0.000 C 
BRANCH  18  19
ATOM     19  C   UNL     1       1.093   9.772  19.607  0.00  0.00    +0.000 A 
ATOM     20  C   UNL     1       1.782   9.210  18.532  0.00  0.00    +0.000 A 
ATOM     21  F   UNL     1       1.989   9.898  17.400  0.00  0.00    +0.000 F 
ATOM     22  C   UNL     1       2.294   7.911  18.591  0.00  0.00    +0.000 A 
ATOM     23  C   UNL     1       2.125   7.138  19.739  0.00  0.00    +0.000 A 
ATOM     24  C   UNL     1       1.441   7.674  20.824  0.00  0.00    +0.000 A 
ATOM     25  C   UNL     1       0.937   8.973  20.748  0.00  0.00    +0.000 A 
ATOM     26  F   UNL     1       0.292   9.467  21.816  0.00  0.00    +0.000 F 
ENDBRANCH  18  19
ENDBRANCH   3  18
TORSDOF 4
ENDMDL
MODEL 7
REMARK VINA RESULT:      -7.5      5.009      8.521
REMARK  Name = 
REMARK  4 active torsions:
REMARK  status: ('A' for Active; 'I' for Inactive)
REMARK    1  A    between atoms: C_2  and  O_3
REMARK    2  A    between atoms: C_2  and  C_4
REMARK    3  A    between atoms: N_6  and  C_7
REMARK    4  A    between atoms: C_7  and  C_8
REMARK                            x       y       z     vdW  Elec       q    Type
REMARK                         _______ _______ _______ _____ _____    ______ ____
ROOT
ATOM      1  C   UNL     1      -2.531  11.066  17.449  0.00  0.00    +0.000 A 
ATOM      2  C   UNL     1      -1.283  10.915  17.910  0.00  0.00    +0.000 A 
ATOM      3  N   UNL     1      -0.801  11.320  19.150  0.00  0.00    +0.000 N 
ATOM      4  C   UNL     1      -1.697  11.899  20.085  0.00  0.00    +0.000 A 
ATOM      5  C   UNL     1      -1.349  12.291  21.394  0.00  0.00    +0.000 A 
ATOM      6  F   UNL     1      -0.105  12.125  21.865  0.00  0.00    +0.000 F 
ATOM      7  C   UNL     1      -2.272  12.859  22.277  0.00  0.00    +0.000 A 
ATOM      8  C   UNL     1      -3.590  13.040  21.884  0.00  0.00    +0.000 A 
ATOM      9  C   UNL     1      -3.974  12.656  20.604  0.00  0.00    +0.000 A 
ATOM     10  F   UNL     1      -5.257  12.831  20.264  0.00  0.00    +0.000 F 
ATOM     11  C   UNL     1      -3.048  12.101  19.711  0.00  0.00    +0.000 A 
ATOM     12  C   UNL     1      -3.496  11.728  18.348  0.00  0.00    +0.000 A 
ATOM     13  O   UNL     1      -4.631  11.954  17.934  0.00  0.00    +0.000 OA
ENDROOT
BRANCH   1  15
ATOM     14  O   UNL     1      -2.732   9.436  15.727  0.00  0.00    +0.000 OA
ATOM     15  C   UNL     1      -2.861  10.598  16.086  0.00  0.00    +0.000 C 
BRANCH  15  16
ATOM     16  O   UNL     1      -3.307  11.562  15.253  0.00  0.00    +0.000 OA
ATOM     17  H   UNL     1      -3.732  12.327  15.716  0.00  0.00    +0.000 HD
ENDBRANCH  15  16
ENDBRANCH   1  15
BRANCH   3  18
ATOM     18  C   UNL     1       0.634  11.173  19.475  0.00  0.00    +0.000 C 
BRANCH  18  19
ATOM     19  C   UNL     1       1.142   9.761  19.630  0.00  0.00    +0.000 A 
ATOM     20  C   UNL     1       0.955   8.940  20.744  0.00  0.00    +0.000 A 
ATOM     21  F   UNL     1       0.297   9.376  21.829  0.00  0.00    +0.000 F 
ATOM     22  C   UNL     1       1.435   7.628  20.773  0.00  0.00    +0.000 A 
ATOM     23  C   UNL     1       2.120   7.104  19.678  0.00  0.00    +0.000 A 
ATOM     24  C   UNL     1       2.321   7.900  18.557  0.00  0.00    +0.000 A 
ATOM     25  C   UNL     1       1.835   9.209  18.545  0.00  0.00    +0.000 A 
ATOM     26  F   UNL     1       2.033   9.949  17.444  0.00  0.00    +0.000 F 
ENDBRANCH  18  19
ENDBRANCH   3  18
TORSDOF 4
ENDMDL
MODEL 8
REMARK VINA RESULT:      -7.5      1.860      4.121
REMARK  Name = 
REMARK  4 active torsions:
REMARK  status: ('A' for Active; 'I' for Inactive)
REMARK    1  A    between atoms: C_2  and  O_3
REMARK    2  A    between atoms: C_2  and  C_4
REMARK    3  A    between atoms: N_6  and  C_7
REMARK    4  A    between atoms: C_7  and  C_8
REMARK                            x       y       z     vdW  Elec       q    Type
REMARK                         _______ _______ _______ _____ _____    ______ ____
ROOT
ATOM      1  C   UNL     1       1.988   3.850  18.793  0.00  0.00    +0.000 A 
ATOM      2  C   UNL     1       2.130   5.109  19.225  0.00  0.00    +0.000 A 
ATOM      3  N   UNL     1       3.135   6.001  18.867  0.00  0.00    +0.000 N 
ATOM      4  C   UNL     1       4.096   5.609  17.899  0.00  0.00    +0.000 A 
ATOM      5  C   UNL     1       5.122   6.440  17.404  0.00  0.00    +0.000 A 
ATOM      6  F   UNL     1       5.257   7.706  17.822  0.00  0.00    +0.000 F 
ATOM      7  C   UNL     1       6.045   6.003  16.449  0.00  0.00    +0.000 A 
ATOM      8  C   UNL     1       5.961   4.716  15.938  0.00  0.00    +0.000 A 
ATOM      9  C   UNL     1       4.956   3.870  16.393  0.00  0.00    +0.000 A 
ATOM     10  F   UNL     1       4.896   2.640  15.868  0.00  0.00    +0.000 F 
ATOM     11  C   UNL     1       4.039   4.299  17.363  0.00  0.00    +0.000 A 
ATOM     12  C   UNL     1       2.998   3.357  17.836  0.00  0.00    +0.000 A 
ATOM     13  O   UNL     1       2.946   2.183  17.474  0.00  0.00    +0.000 OA
ENDROOT
BRANCH   1  15
ATOM     14  O   UNL     1       0.177   2.318  18.589  0.00  0.00    +0.000 OA
ATOM     15  C   UNL     1       0.868   3.031  19.304  0.00  0.00    +0.000 C 
BRANCH  15  16
ATOM     16  O   UNL     1       0.653   3.140  20.633  0.00  0.00    +0.000 OA
ATOM     17  H   UNL     1      -0.079   2.565  20.969  0.00  0.00    +0.000 HD
ENDBRANCH  15  16
ENDBRANCH   1  15
BRANCH   3  18
ATOM     18  C   UNL     1       3.215   7.329  19.510  0.00  0.00    +0.000 C 
BRANCH  18  19
ATOM     19  C   UNL     1       1.987   8.198  19.403  0.00  0.00    +0.000 A 
ATOM     20  C   UNL     1       1.121   8.527  20.448  0.00  0.00    +0.000 A 
ATOM     21  F   UNL     1       1.310   8.050  21.687  0.00  0.00    +0.000 F 
ATOM     22  C   UNL     1       0.028   9.375  20.251  0.00  0.00    +0.000 A 
ATOM     23  C   UNL     1      -0.226   9.917  18.992  0.00  0.00    +0.000 A 
ATOM     24  C   UNL     1       0.619   9.604  17.934  0.00  0.00    +0.000 A 
ATOM     25  C   UNL     1       1.707   8.756  18.148  0.00  0.00    +0.000 A 
ATOM     26  F   UNL     1       2.512   8.482  17.111  0.00  0.00    +0.000 F 
ENDBRANCH  18  19
ENDBRANCH   3  18
TORSDOF 4
ENDMDL
MODEL 9
REMARK VINA RESULT:      -7.5      6.645      9.650
REMARK  Name = 
REMARK  4 active torsions:
REMARK  status: ('A' for Active; 'I' for Inactive)
REMARK    1  A    between atoms: C_2  and  O_3
REMARK    2  A    between atoms: C_2  and  C_4
REMARK    3  A    between atoms: N_6  and  C_7
REMARK    4  A    between atoms: C_7  and  C_8
REMARK                            x       y       z     vdW  Elec       q    Type
REMARK                         _______ _______ _______ _____ _____    ______ ____
ROOT
ATOM      1  C   UNL     1      -3.370  11.498  17.859  0.00  0.00    +0.000 A 
ATOM      2  C   UNL     1      -2.471  11.785  18.808  0.00  0.00    +0.000 A 
ATOM      3  N   UNL     1      -2.729  12.349  20.053  0.00  0.00    +0.000 N 
ATOM      4  C   UNL     1      -4.073  12.604  20.432  0.00  0.00    +0.000 A 
ATOM      5  C   UNL     1      -4.471  13.110  21.686  0.00  0.00    +0.000 A 
ATOM      6  F   UNL     1      -3.575  13.383  22.645  0.00  0.00    +0.000 F 
ATOM      7  C   UNL     1      -5.810  13.346  22.008  0.00  0.00    +0.000 A 
ATOM      8  C   UNL     1      -6.808  13.064  21.086  0.00  0.00    +0.000 A 
ATOM      9  C   UNL     1      -6.456  12.553  19.842  0.00  0.00    +0.000 A 
ATOM     10  F   UNL     1      -7.445  12.278  18.983  0.00  0.00    +0.000 F 
ATOM     11  C   UNL     1      -5.112  12.331  19.509  0.00  0.00    +0.000 A 
ATOM     12  C   UNL     1      -4.781  11.807  18.163  0.00  0.00    +0.000 A 
ATOM     13  O   UNL     1      -5.627  11.629  17.290  0.00  0.00    +0.000 OA
ENDROOT
BRANCH   1  15
ATOM     14  O   UNL     1      -2.335   9.849  16.491  0.00  0.00    +0.000 OA
ATOM     15  C   UNL     1      -2.911  10.924  16.576  0.00  0.00    +0.000 C 
BRANCH  15  16
ATOM     16  O   UNL     1      -3.164  11.692  15.494  0.00  0.00    +0.000 OA
ATOM     17  H   UNL     1      -2.973  11.245  14.632  0.00  0.00    +0.000 HD
ENDBRANCH  15  16
ENDBRANCH   1  15
BRANCH   3  18
ATOM     18  C   UNL     1      -1.613  12.701  20.956  0.00  0.00    +0.000 C 
BRANCH  18  19
ATOM     19  C   UNL     1      -0.868  11.547  21.579  0.00  0.00    +0.000 A 
ATOM     20  C   UNL     1      -1.212  10.891  22.762  0.00  0.00    +0.000 A 
ATOM     21  F   UNL     1      -2.272  11.274  23.488  0.00  0.00    +0.000 F 
ATOM     22  C   UNL     1      -0.475   9.802  23.235  0.00  0.00    +0.000 A 
ATOM     23  C   UNL     1       0.635   9.342  22.528  0.00  0.00    +0.000 A 
ATOM     24  C   UNL     1       1.001   9.979  21.347  0.00  0.00    +0.000 A 
ATOM     25  C   UNL     1       0.252  11.064  20.889  0.00  0.00    +0.000 A 
ATOM     26  F   UNL     1       0.622  11.649  19.740  0.00  0.00    +0.000 F 
ENDBRANCH  18  19
ENDBRANCH   3  18
TORSDOF 4
ENDMDL
