MODEL 1
REMARK VINA RESULT:      -6.7      0.000      0.000
REMARK  Name = 
REMARK  6 active torsions:
REMARK  status: ('A' for Active; 'I' for Inactive)
REMARK    1  A    between atoms: C_1  and  C_2
REMARK    2  A    between atoms: C_2  and  C_3
REMARK    3  A    between atoms: C_3  and  N_4
REMARK    4  A    between atoms: N_4  and  C_5
REMARK    5  A    between atoms: C_5  and  C_6
REMARK    6  A    between atoms: C_11  and  C_12
REMARK                            x       y       z     vdW  Elec       q    Type
REMARK                         _______ _______ _______ _____ _____    ______ ____
ROOT
ATOM      1  C   UNL     1       4.006   3.283  17.957  0.00  0.00    +0.000 A 
ATOM      2  C   UNL     1       4.624   3.771  19.112  0.00  0.00    +0.000 A 
ATOM      3  C   UNL     1       5.603   4.757  19.021  0.00  0.00    +0.000 A 
ATOM      4  C   UNL     1       5.986   5.275  17.777  0.00  0.00    +0.000 A 
ATOM      5 CL   UNL     1       7.229   6.523  17.797  0.00  0.00    +0.000 Cl
ATOM      6  C   UNL     1       5.372   4.786  16.591  0.00  0.00    +0.000 A 
ATOM      7  C   UNL     1       4.384   3.791  16.706  0.00  0.00    +0.000 A 
ENDROOT
BRANCH   6   8
ATOM      8  C   UNL     1       5.704   5.269  15.190  0.00  0.00    +0.000 C 
ATOM      9  F   UNL     1       7.058   5.326  14.929  0.00  0.00    +0.000 F 
ATOM     10  F   UNL     1       5.127   4.413  14.269  0.00  0.00    +0.000 F 
ATOM     11  F   UNL     1       5.180   6.535  15.010  0.00  0.00    +0.000 F 
ENDBRANCH   6   8
BRANCH   1  12
ATOM     12  C   UNL     1       2.927   2.233  18.065  0.00  0.00    +0.000 C 
BRANCH  12  13
ATOM     13  N   UNL     1       1.588   2.831  17.946  0.00  0.00    +0.000 NA
ATOM     14  H   UNL     1       1.705   3.867  17.868  0.00  0.00    +0.000 HD
BRANCH  13  15
ATOM     15  C   UNL     1       0.749   2.538  19.118  0.00  0.00    +0.000 C 
BRANCH  15  17
ATOM     16  C   UNL     1       1.559   2.857  21.480  0.00  0.00    +0.000 C 
ATOM     17  C   UNL     1       1.023   3.552  20.231  0.00  0.00    +0.000 C 
ENDBRANCH  15  17
ENDBRANCH  13  15
ENDBRANCH  12  13
ENDBRANCH   1  12
TORSDOF 5
ENDMDL
MODEL 2
REMARK VINA RESULT:      -6.5      0.417      1.106
REMARK  Name = 
REMARK  6 active torsions:
REMARK  status: ('A' for Active; 'I' for Inactive)
REMARK    1  A    between atoms: C_1  and  C_2
REMARK    2  A    between atoms: C_2  and  C_3
REMARK    3  A    between atoms: C_3  and  N_4
REMARK    4  A    between atoms: N_4  and  C_5
REMARK    5  A    between atoms: C_5  and  C_6
REMARK    6  A    between atoms: C_11  and  C_12
REMARK                            x       y       z     vdW  Elec       q    Type
REMARK                         _______ _______ _______ _____ _____    ______ ____
ROOT
ATOM      1  C   UNL     1       4.168   3.322  18.096  0.00  0.00    +0.000 A 
ATOM      2  C   UNL     1       4.798   3.895  19.205  0.00  0.00    +0.000 A 
ATOM      3  C   UNL     1       5.719   4.926  19.035  0.00  0.00    +0.000 A 
ATOM      4  C   UNL     1       6.032   5.404  17.756  0.00  0.00    +0.000 A 
ATOM      5 CL   UNL     1       7.207   6.714  17.676  0.00  0.00    +0.000 Cl
ATOM      6  C   UNL     1       5.407   4.829  16.616  0.00  0.00    +0.000 A 
ATOM      7  C   UNL     1       4.477   3.791  16.811  0.00  0.00    +0.000 A 
ENDROOT
BRANCH   6   8
ATOM      8  C   UNL     1       5.666   5.262  15.184  0.00  0.00    +0.000 C 
ATOM      9  F   UNL     1       5.097   4.431  14.242  0.00  0.00    +0.000 F 
ATOM     10  F   UNL     1       5.155   6.534  14.998  0.00  0.00    +0.000 F 
ATOM     11  F   UNL     1       7.030   5.294  14.959  0.00  0.00    +0.000 F 
ENDBRANCH   6   8
BRANCH   1  12
ATOM     12  C   UNL     1       3.151   2.225  18.290  0.00  0.00    +0.000 C 
BRANCH  12  13
ATOM     13  N   UNL     1       1.819   2.645  17.830  0.00  0.00    +0.000 NA
ATOM     14  H   UNL     1       1.859   3.669  17.622  0.00  0.00    +0.000 HD
BRANCH  13  15
ATOM     15  C   UNL     1       0.786   2.412  18.851  0.00  0.00    +0.000 C 
BRANCH  15  17
ATOM     16  C   UNL     1       1.107   4.308  20.475  0.00  0.00    +0.000 C 
ATOM     17  C   UNL     1       1.307   2.815  20.232  0.00  0.00    +0.000 C 
ENDBRANCH  15  17
ENDBRANCH  13  15
ENDBRANCH  12  13
ENDBRANCH   1  12
TORSDOF 5
ENDMDL
MODEL 3
REMARK VINA RESULT:      -6.5      4.269      5.933
REMARK  Name = 
REMARK  6 active torsions:
REMARK  status: ('A' for Active; 'I' for Inactive)
REMARK    1  A    between atoms: C_1  and  C_2
REMARK    2  A    between atoms: C_2  and  C_3
REMARK    3  A    between atoms: C_3  and  N_4
REMARK    4  A    between atoms: N_4  and  C_5
REMARK    5  A    between atoms: C_5  and  C_6
REMARK    6  A    between atoms: C_11  and  C_12
REMARK                            x       y       z     vdW  Elec       q    Type
REMARK                         _______ _______ _______ _____ _____    ______ ____
ROOT
ATOM      1  C   UNL     1       3.997   5.600  17.472  0.00  0.00    +0.000 A 
ATOM      2  C   UNL     1       4.077   4.330  16.893  0.00  0.00    +0.000 A 
ATOM      3  C   UNL     1       3.422   3.249  17.480  0.00  0.00    +0.000 A 
ATOM      4  C   UNL     1       2.679   3.413  18.656  0.00  0.00    +0.000 A 
ATOM      5 CL   UNL     1       1.894   1.970  19.293  0.00  0.00    +0.000 Cl
ATOM      6  C   UNL     1       2.592   4.696  19.262  0.00  0.00    +0.000 A 
ATOM      7  C   UNL     1       3.259   5.775  18.651  0.00  0.00    +0.000 A 
ENDROOT
BRANCH   6   8
ATOM      8  C   UNL     1       1.819   4.995  20.533  0.00  0.00    +0.000 C 
ATOM      9  F   UNL     1       1.726   6.340  20.823  0.00  0.00    +0.000 F 
ATOM     10  F   UNL     1       0.535   4.494  20.409  0.00  0.00    +0.000 F 
ATOM     11  F   UNL     1       2.439   4.369  21.600  0.00  0.00    +0.000 F 
ENDBRANCH   6   8
BRANCH   1  12
ATOM     12  C   UNL     1       4.686   6.772  16.816  0.00  0.00    +0.000 C 
BRANCH  12  13
ATOM     13  N   UNL     1       6.087   6.457  16.500  0.00  0.00    +0.000 NA
ATOM     14  H   UNL     1       6.197   5.418  16.526  0.00  0.00    +0.000 HD
BRANCH  13  15
ATOM     15  C   UNL     1       7.017   7.053  17.471  0.00  0.00    +0.000 C 
BRANCH  15  17
ATOM     16  C   UNL     1       7.637   4.624  17.684  0.00  0.00    +0.000 C 
ATOM     17  C   UNL     1       7.581   5.972  18.396  0.00  0.00    +0.000 C 
ENDBRANCH  15  17
ENDBRANCH  13  15
ENDBRANCH  12  13
ENDBRANCH   1  12
TORSDOF 5
ENDMDL
MODEL 4
REMARK VINA RESULT:      -6.5      3.711      5.458
REMARK  Name = 
REMARK  6 active torsions:
REMARK  status: ('A' for Active; 'I' for Inactive)
REMARK    1  A    between atoms: C_1  and  C_2
REMARK    2  A    between atoms: C_2  and  C_3
REMARK    3  A    between atoms: C_3  and  N_4
REMARK    4  A    between atoms: N_4  and  C_5
REMARK    5  A    between atoms: C_5  and  C_6
REMARK    6  A    between atoms: C_11  and  C_12
REMARK                            x       y       z     vdW  Elec       q    Type
REMARK                         _______ _______ _______ _____ _____    ______ ____
ROOT
ATOM      1  C   UNL     1       4.335   5.287  16.904  0.00  0.00    +0.000 A 
ATOM      2  C   UNL     1       4.127   6.383  17.748  0.00  0.00    +0.000 A 
ATOM      3  C   UNL     1       3.250   6.283  18.825  0.00  0.00    +0.000 A 
ATOM      4  C   UNL     1       2.562   5.090  19.081  0.00  0.00    +0.000 A 
ATOM      5 CL   UNL     1       1.488   5.090  20.478  0.00  0.00    +0.000 Cl
ATOM      6  C   UNL     1       2.757   3.967  18.231  0.00  0.00    +0.000 A 
ATOM      7  C   UNL     1       3.650   4.090  17.149  0.00  0.00    +0.000 A 
ENDROOT
BRANCH   6   8
ATOM      8  C   UNL     1       2.069   2.626  18.408  0.00  0.00    +0.000 C 
ATOM      9  F   UNL     1       0.692   2.704  18.403  0.00  0.00    +0.000 F 
ATOM     10  F   UNL     1       2.453   1.783  17.380  0.00  0.00    +0.000 F 
ATOM     11  F   UNL     1       2.462   2.069  19.610  0.00  0.00    +0.000 F 
ENDBRANCH   6   8
BRANCH   1  12
ATOM     12  C   UNL     1       5.307   5.395  15.755  0.00  0.00    +0.000 C 
BRANCH  12  13
ATOM     13  N   UNL     1       6.642   5.801  16.222  0.00  0.00    +0.000 NA
ATOM     14  H   UNL     1       7.228   6.005  15.381  0.00  0.00    +0.000 HD
BRANCH  13  15
ATOM     15  C   UNL     1       7.296   4.741  17.005  0.00  0.00    +0.000 C 
BRANCH  15  17
ATOM     16  C   UNL     1       7.829   6.786  18.372  0.00  0.00    +0.000 C 
ATOM     17  C   UNL     1       7.680   5.268  18.390  0.00  0.00    +0.000 C 
ENDBRANCH  15  17
ENDBRANCH  13  15
ENDBRANCH  12  13
ENDBRANCH   1  12
TORSDOF 5
ENDMDL
MODEL 5
REMARK VINA RESULT:      -6.4      3.524      5.669
REMARK  Name = 
REMARK  6 active torsions:
REMARK  status: ('A' for Active; 'I' for Inactive)
REMARK    1  A    between atoms: C_1  and  C_2
REMARK    2  A    between atoms: C_2  and  C_3
REMARK    3  A    between atoms: C_3  and  N_4
REMARK    4  A    between atoms: N_4  and  C_5
REMARK    5  A    between atoms: C_5  and  C_6
REMARK    6  A    between atoms: C_11  and  C_12
REMARK                            x       y       z     vdW  Elec       q    Type
REMARK                         _______ _______ _______ _____ _____    ______ ____
ROOT
ATOM      1  C   UNL     1       5.605   4.970  16.021  0.00  0.00    +0.000 A 
ATOM      2  C   UNL     1       5.687   6.318  16.386  0.00  0.00    +0.000 A 
ATOM      3  C   UNL     1       4.720   6.880  17.216  0.00  0.00    +0.000 A 
ATOM      4  C   UNL     1       3.651   6.111  17.696  0.00  0.00    +0.000 A 
ATOM      5 CL   UNL     1       2.500   6.938  18.742  0.00  0.00    +0.000 Cl
ATOM      6  C   UNL     1       3.548   4.741  17.330  0.00  0.00    +0.000 A 
ATOM      7  C   UNL     1       4.538   4.193  16.492  0.00  0.00    +0.000 A 
ENDROOT
BRANCH   6   8
ATOM      8  C   UNL     1       2.439   3.811  17.786  0.00  0.00    +0.000 C 
ATOM      9  F   UNL     1       2.385   3.640  19.153  0.00  0.00    +0.000 F 
ATOM     10  F   UNL     1       1.222   4.323  17.371  0.00  0.00    +0.000 F 
ATOM     11  F   UNL     1       2.619   2.570  17.205  0.00  0.00    +0.000 F 
ENDBRANCH   6   8
BRANCH   1  12
ATOM     12  C   UNL     1       6.671   4.361  15.144  0.00  0.00    +0.000 C 
BRANCH  12  13
ATOM     13  N   UNL     1       6.096   3.382  14.209  0.00  0.00    +0.000 NA
ATOM     14  H   UNL     1       6.533   2.453  14.409  0.00  0.00    +0.000 HD
BRANCH  13  15
ATOM     15  C   UNL     1       6.366   3.736  12.807  0.00  0.00    +0.000 C 
BRANCH  15  17
ATOM     16  C   UNL     1       4.268   3.308  11.485  0.00  0.00    +0.000 C 
ATOM     17  C   UNL     1       5.643   2.768  11.869  0.00  0.00    +0.000 C 
ENDBRANCH  15  17
ENDBRANCH  13  15
ENDBRANCH  12  13
ENDBRANCH   1  12
TORSDOF 5
ENDMDL
MODEL 6
REMARK VINA RESULT:      -6.4      1.180      1.306
REMARK  Name = 
REMARK  6 active torsions:
REMARK  status: ('A' for Active; 'I' for Inactive)
REMARK    1  A    between atoms: C_1  and  C_2
REMARK    2  A    between atoms: C_2  and  C_3
REMARK    3  A    between atoms: C_3  and  N_4
REMARK    4  A    between atoms: N_4  and  C_5
REMARK    5  A    between atoms: C_5  and  C_6
REMARK    6  A    between atoms: C_11  and  C_12
REMARK                            x       y       z     vdW  Elec       q    Type
REMARK                         _______ _______ _______ _____ _____    ______ ____
ROOT
ATOM      1  C   UNL     1       3.392   4.800  18.134  0.00  0.00    +0.000 A 
ATOM      2  C   UNL     1       4.184   4.883  19.284  0.00  0.00    +0.000 A 
ATOM      3  C   UNL     1       5.573   4.828  19.184  0.00  0.00    +0.000 A 
ATOM      4  C   UNL     1       6.198   4.687  17.938  0.00  0.00    +0.000 A 
ATOM      5 CL   UNL     1       7.958   4.637  17.947  0.00  0.00    +0.000 Cl
ATOM      6  C   UNL     1       5.407   4.595  16.760  0.00  0.00    +0.000 A 
ATOM      7  C   UNL     1       4.006   4.655  16.883  0.00  0.00    +0.000 A 
ENDROOT
BRANCH   6   8
ATOM      8  C   UNL     1       5.970   4.440  15.358  0.00  0.00    +0.000 C 
ATOM      9  F   UNL     1       7.071   5.233  15.112  0.00  0.00    +0.000 F 
ATOM     10  F   UNL     1       6.340   3.122  15.164  0.00  0.00    +0.000 F 
ATOM     11  F   UNL     1       4.992   4.768  14.438  0.00  0.00    +0.000 F 
ENDBRANCH   6   8
BRANCH   1  12
ATOM     12  C   UNL     1       1.890   4.888  18.247  0.00  0.00    +0.000 C 
BRANCH  12  13
ATOM     13  N   UNL     1       1.250   3.625  17.848  0.00  0.00    +0.000 NA
ATOM     14  H   UNL     1       0.264   3.836  17.575  0.00  0.00    +0.000 HD
BRANCH  13  15
ATOM     15  C   UNL     1       1.236   2.645  18.945  0.00  0.00    +0.000 C 
BRANCH  15  17
ATOM     16  C   UNL     1       1.576   2.741  21.437  0.00  0.00    +0.000 C 
ATOM     17  C   UNL     1       0.810   3.321  20.251  0.00  0.00    +0.000 C 
ENDBRANCH  15  17
ENDBRANCH  13  15
ENDBRANCH  12  13
ENDBRANCH   1  12
TORSDOF 5
ENDMDL
MODEL 7
REMARK VINA RESULT:      -6.3      4.146      5.751
REMARK  Name = 
REMARK  6 active torsions:
REMARK  status: ('A' for Active; 'I' for Inactive)
REMARK    1  A    between atoms: C_1  and  C_2
REMARK    2  A    between atoms: C_2  and  C_3
REMARK    3  A    between atoms: C_3  and  N_4
REMARK    4  A    between atoms: N_4  and  C_5
REMARK    5  A    between atoms: C_5  and  C_6
REMARK    6  A    between atoms: C_11  and  C_12
REMARK                            x       y       z     vdW  Elec       q    Type
REMARK                         _______ _______ _______ _____ _____    ______ ____
ROOT
ATOM      1  C   UNL     1       3.964   5.030  17.494  0.00  0.00    +0.000 A 
ATOM      2  C   UNL     1       3.861   6.425  17.497  0.00  0.00    +0.000 A 
ATOM      3  C   UNL     1       3.111   7.071  18.476  0.00  0.00    +0.000 A 
ATOM      4  C   UNL     1       2.446   6.341  19.470  0.00  0.00    +0.000 A 
ATOM      5 CL   UNL     1       1.537   7.276  20.653  0.00  0.00    +0.000 Cl
ATOM      6  C   UNL     1       2.534   4.922  19.479  0.00  0.00    +0.000 A 
ATOM      7  C   UNL     1       3.300   4.289  18.481  0.00  0.00    +0.000 A 
ENDROOT
BRANCH   6   8
ATOM      8  C   UNL     1       1.859   4.026  20.501  0.00  0.00    +0.000 C 
ATOM      9  F   UNL     1       0.485   4.141  20.519  0.00  0.00    +0.000 F 
ATOM     10  F   UNL     1       2.174   2.707  20.224  0.00  0.00    +0.000 F 
ATOM     11  F   UNL     1       2.331   4.340  21.762  0.00  0.00    +0.000 F 
ENDBRANCH   6   8
BRANCH   1  12
ATOM     12  C   UNL     1       4.801   4.339  16.446  0.00  0.00    +0.000 C 
BRANCH  12  13
ATOM     13  N   UNL     1       6.024   3.769  17.031  0.00  0.00    +0.000 NA
ATOM     14  H   UNL     1       5.870   3.668  18.061  0.00  0.00    +0.000 HD
BRANCH  13  15
ATOM     15  C   UNL     1       7.193   4.635  16.813  0.00  0.00    +0.000 C 
BRANCH  15  17
ATOM     16  C   UNL     1       7.553   6.909  17.830  0.00  0.00    +0.000 C 
ATOM     17  C   UNL     1       7.526   5.406  18.092  0.00  0.00    +0.000 C 
ENDBRANCH  15  17
ENDBRANCH  13  15
ENDBRANCH  12  13
ENDBRANCH   1  12
TORSDOF 5
ENDMDL
MODEL 8
REMARK VINA RESULT:      -6.3      4.278      5.956
REMARK  Name = 
REMARK  6 active torsions:
REMARK  status: ('A' for Active; 'I' for Inactive)
REMARK    1  A    between atoms: C_1  and  C_2
REMARK    2  A    between atoms: C_2  and  C_3
REMARK    3  A    between atoms: C_3  and  N_4
REMARK    4  A    between atoms: N_4  and  C_5
REMARK    5  A    between atoms: C_5  and  C_6
REMARK    6  A    between atoms: C_11  and  C_12
REMARK                            x       y       z     vdW  Elec       q    Type
REMARK                         _______ _______ _______ _____ _____    ______ ____
ROOT
ATOM      1  C   UNL     1       3.941   5.708  17.615  0.00  0.00    +0.000 A 
ATOM      2  C   UNL     1       4.093   4.474  16.975  0.00  0.00    +0.000 A 
ATOM      3  C   UNL     1       3.465   3.339  17.483  0.00  0.00    +0.000 A 
ATOM      4  C   UNL     1       2.677   3.411  18.638  0.00  0.00    +0.000 A 
ATOM      5 CL   UNL     1       1.933   1.906  19.174  0.00  0.00    +0.000 Cl
ATOM      6  C   UNL     1       2.517   4.656  19.306  0.00  0.00    +0.000 A 
ATOM      7  C   UNL     1       3.157   5.791  18.774  0.00  0.00    +0.000 A 
ENDROOT
BRANCH   6   8
ATOM      8  C   UNL     1       1.690   4.856  20.563  0.00  0.00    +0.000 C 
ATOM      9  F   UNL     1       0.416   4.333  20.479  0.00  0.00    +0.000 F 
ATOM     10  F   UNL     1       2.332   4.250  21.627  0.00  0.00    +0.000 F 
ATOM     11  F   UNL     1       1.580   6.210  20.823  0.00  0.00    +0.000 F 
ENDBRANCH   6   8
BRANCH   1  12
ATOM     12  C   UNL     1       4.601   6.939  17.044  0.00  0.00    +0.000 C 
BRANCH  12  13
ATOM     13  N   UNL     1       5.883   6.608  16.403  0.00  0.00    +0.000 NA
ATOM     14  H   UNL     1       5.871   5.589  16.170  0.00  0.00    +0.000 HD
BRANCH  13  15
ATOM     15  C   UNL     1       7.026   6.874  17.290  0.00  0.00    +0.000 C 
BRANCH  15  17
ATOM     16  C   UNL     1       7.768   5.726  19.403  0.00  0.00    +0.000 C 
ATOM     17  C   UNL     1       7.536   5.568  17.903  0.00  0.00    +0.000 C 
ENDBRANCH  15  17
ENDBRANCH  13  15
ENDBRANCH  12  13
ENDBRANCH   1  12
TORSDOF 5
ENDMDL
MODEL 9
REMARK VINA RESULT:      -6.3      1.604      1.934
REMARK  Name = 
REMARK  6 active torsions:
REMARK  status: ('A' for Active; 'I' for Inactive)
REMARK    1  A    between atoms: C_1  and  C_2
REMARK    2  A    between atoms: C_2  and  C_3
REMARK    3  A    between atoms: C_3  and  N_4
REMARK    4  A    between atoms: N_4  and  C_5
REMARK    5  A    between atoms: C_5  and  C_6
REMARK    6  A    between atoms: C_11  and  C_12
REMARK                            x       y       z     vdW  Elec       q    Type
REMARK                         _______ _______ _______ _____ _____    ______ ____
ROOT
ATOM      1  C   UNL     1       3.040   4.977  17.584  0.00  0.00    +0.000 A 
ATOM      2  C   UNL     1       3.143   6.278  18.088  0.00  0.00    +0.000 A 
ATOM      3  C   UNL     1       4.333   6.988  17.958  0.00  0.00    +0.000 A 
ATOM      4  C   UNL     1       5.445   6.417  17.326  0.00  0.00    +0.000 A 
ATOM      5 CL   UNL     1       6.888   7.421  17.220  0.00  0.00    +0.000 Cl
ATOM      6  C   UNL     1       5.361   5.093  16.813  0.00  0.00    +0.000 A 
ATOM      7  C   UNL     1       4.147   4.394  16.953  0.00  0.00    +0.000 A 
ENDROOT
BRANCH   6   8
ATOM      8  C   UNL     1       6.496   4.370  16.111  0.00  0.00    +0.000 C 
ATOM      9  F   UNL     1       7.012   5.060  15.034  0.00  0.00    +0.000 F 
ATOM     10  F   UNL     1       7.522   4.157  17.014  0.00  0.00    +0.000 F 
ATOM     11  F   UNL     1       6.042   3.145  15.657  0.00  0.00    +0.000 F 
ENDBRANCH   6   8
BRANCH   1  12
ATOM     12  C   UNL     1       1.738   4.223  17.705  0.00  0.00    +0.000 C 
BRANCH  12  13
ATOM     13  N   UNL     1       1.963   2.770  17.718  0.00  0.00    +0.000 NA
ATOM     14  H   UNL     1       1.531   2.370  16.854  0.00  0.00    +0.000 HD
BRANCH  13  15
ATOM     15  C   UNL     1       1.349   2.129  18.891  0.00  0.00    +0.000 C 
BRANCH  15  17
ATOM     16  C   UNL     1       1.483   2.943  21.268  0.00  0.00    +0.000 C 
ATOM     17  C   UNL     1       0.881   3.191  19.888  0.00  0.00    +0.000 C 
ENDBRANCH  15  17
ENDBRANCH  13  15
ENDBRANCH  12  13
ENDBRANCH   1  12
TORSDOF 5
ENDMDL
