MODEL 1
REMARK VINA RESULT:      -7.9      0.000      0.000
REMARK  Name = 
REMARK  14 active torsions:
REMARK  status: ('A' for Active; 'I' for Inactive)
REMARK    1  A    between atoms: C_1  and  C_2
REMARK    2  A    between atoms: C_2  and  N_3
REMARK    3  A    between atoms: N_3  and  C_4
REMARK    4  A    between atoms: C_9  and  O_10
REMARK    5  A    between atoms: O_10  and  C_11
REMARK    6  A    between atoms: C_15  and  C_16
REMARK    7  A    between atoms: C_16  and  C_17
REMARK    8  A    between atoms: C_21  and  C_22
REMARK    9  A    between atoms: C_22  and  N_23
REMARK   10  A    between atoms: C_24  and  C_25
REMARK   11  A    between atoms: C_29  and  O_30
REMARK   12  A    between atoms: O_30  and  C_31
REMARK   13  A    between atoms: C_32  and  O_33
REMARK   14  A    between atoms: O_33  and  C_34
REMARK                            x       y       z     vdW  Elec       q    Type
REMARK                         _______ _______ _______ _____ _____    ______ ____
ROOT
ATOM      1  C   UNL     1      -0.058  11.902  19.335  0.00  0.00    +0.000 A 
ATOM      2  C   UNL     1       0.085  12.990  20.356  0.00  0.00    +0.000 A 
ATOM      3  O   UNL     1       1.172  13.362  20.787  0.00  0.00    +0.000 OA
ATOM      4  N   UNL     1      -1.063  13.569  20.816  0.00  0.00    +0.000 N 
ATOM      5  C   UNL     1      -2.335  13.228  20.419  0.00  0.00    +0.000 A 
ATOM      6  C   UNL     1      -2.484  12.342  19.409  0.00  0.00    +0.000 A 
ATOM      7  C   UNL     1      -3.804  11.984  18.894  0.00  0.00    +0.000 A 
ATOM      8  C   UNL     1      -3.962  11.157  17.833  0.00  0.00    +0.000 A 
ATOM      9  C   UNL     1      -2.778  10.541  17.205  0.00  0.00    +0.000 A 
ATOM     10  C   UNL     1      -1.540  10.770  17.690  0.00  0.00    +0.000 A 
ATOM     11  C   UNL     1      -1.291  11.686  18.811  0.00  0.00    +0.000 A 
ATOM     12  H   UNL     1      -0.922  14.273  21.530  0.00  0.00    +0.000 HD
ENDROOT
BRANCH   8  13
ATOM     13  O   UNL     1      -5.181  10.838  17.278  0.00  0.00    +0.000 OA
ATOM     14  C   UNL     1      -6.365  11.341  17.890  0.00  0.00    +0.000 C 
ENDBRANCH   8  13
BRANCH   9  15
ATOM     15  O   UNL     1      -2.899   9.627  16.165  0.00  0.00    +0.000 OA
ATOM     16  C   UNL     1      -2.926  10.123  14.832  0.00  0.00    +0.000 C 
ENDBRANCH   9  15
BRANCH   1  17
ATOM     17  C   UNL     1       1.244  11.222  18.957  0.00  0.00    +0.000 C 
BRANCH  17  27
ATOM     18  C   UNL     1       1.109   9.337  20.700  0.00  0.00    +0.000 A 
ATOM     19  N   UNL     1       1.271   8.045  21.071  0.00  0.00    +0.000 NA
ATOM     20  C   UNL     1       1.682   7.132  20.180  0.00  0.00    +0.000 A 
ATOM     21  C   UNL     1       1.857   5.815  20.584  0.00  0.00    +0.000 A 
ATOM     22  C   UNL     1       2.326   4.825  19.710  0.00  0.00    +0.000 A 
ATOM     23  C   UNL     1       2.629   5.154  18.395  0.00  0.00    +0.000 A 
ATOM     24  C   UNL     1       2.442   6.473  17.966  0.00  0.00    +0.000 A 
ATOM     25  C   UNL     1       1.965   7.464  18.848  0.00  0.00    +0.000 A 
ATOM     26  C   UNL     1       1.774   8.797  18.460  0.00  0.00    +0.000 A 
ATOM     27  C   UNL     1       1.343   9.764  19.386  0.00  0.00    +0.000 A 
BRANCH  18  28
ATOM     28  N   UNL     1       0.752  10.266  21.682  0.00  0.00    +0.000 N 
ATOM     29  H   UNL     1       0.344  11.103  21.259  0.00  0.00    +0.000 HD
BRANCH  28  31
ATOM     30  C   UNL     1      -1.151  10.643  23.163  0.00  0.00    +0.000 C 
ATOM     31  C   UNL     1       0.019   9.735  22.824  0.00  0.00    +0.000 C 
ENDBRANCH  28  31
ENDBRANCH  18  28
BRANCH  23  32
ATOM     32  O   UNL     1       3.112   4.300  17.443  0.00  0.00    +0.000 OA
ATOM     33  C   UNL     1       4.514   4.054  17.450  0.00  0.00    +0.000 C 
ENDBRANCH  23  32
ENDBRANCH  17  27
ENDBRANCH   1  17
BRANCH   5  34
ATOM     34  C   UNL     1      -3.463  13.817  21.238  0.00  0.00    +0.000 C 
BRANCH  34  35
ATOM     35  N   UNL     1      -3.353  13.444  22.630  0.00  0.00    +0.000 N 
ATOM     36  C   UNL     1      -4.380  12.751  23.237  0.00  0.00    +0.000 C 
ATOM     37  C   UNL     1      -4.085  12.269  24.630  0.00  0.00    +0.000 C 
ATOM     38  O   UNL     1      -5.460  12.532  22.698  0.00  0.00    +0.000 OA
ATOM     39  H   UNL     1      -2.440  13.452  23.061  0.00  0.00    +0.000 HD
ENDBRANCH  34  35
ENDBRANCH   5  34
TORSDOF 9
ENDMDL
MODEL 2
REMARK VINA RESULT:      -7.6      1.034      1.042
REMARK  Name = 
REMARK  14 active torsions:
REMARK  status: ('A' for Active; 'I' for Inactive)
REMARK    1  A    between atoms: C_1  and  C_2
REMARK    2  A    between atoms: C_2  and  N_3
REMARK    3  A    between atoms: N_3  and  C_4
REMARK    4  A    between atoms: C_9  and  O_10
REMARK    5  A    between atoms: O_10  and  C_11
REMARK    6  A    between atoms: C_15  and  C_16
REMARK    7  A    between atoms: C_16  and  C_17
REMARK    8  A    between atoms: C_21  and  C_22
REMARK    9  A    between atoms: C_22  and  N_23
REMARK   10  A    between atoms: C_24  and  C_25
REMARK   11  A    between atoms: C_29  and  O_30
REMARK   12  A    between atoms: O_30  and  C_31
REMARK   13  A    between atoms: C_32  and  O_33
REMARK   14  A    between atoms: O_33  and  C_34
REMARK                            x       y       z     vdW  Elec       q    Type
REMARK                         _______ _______ _______ _____ _____    ______ ____
ROOT
ATOM      1  C   UNL     1       0.173  11.454  19.151  0.00  0.00    +0.000 A 
ATOM      2  C   UNL     1       0.453  12.475  20.212  0.00  0.00    +0.000 A 
ATOM      3  O   UNL     1       1.587  12.746  20.595  0.00  0.00    +0.000 OA
ATOM      4  N   UNL     1      -0.622  13.109  20.767  0.00  0.00    +0.000 N 
ATOM      5  C   UNL     1      -1.935  12.881  20.430  0.00  0.00    +0.000 A 
ATOM      6  C   UNL     1      -2.206  12.060  19.390  0.00  0.00    +0.000 A 
ATOM      7  C   UNL     1      -3.576  11.824  18.938  0.00  0.00    +0.000 A 
ATOM      8  C   UNL     1      -3.853  11.067  17.850  0.00  0.00    +0.000 A 
ATOM      9  C   UNL     1      -2.755  10.402  17.124  0.00  0.00    +0.000 A 
ATOM     10  C   UNL     1      -1.478  10.517  17.545  0.00  0.00    +0.000 A 
ATOM     11  C   UNL     1      -1.100  11.353  18.692  0.00  0.00    +0.000 A 
ATOM     12  H   UNL     1      -0.389  13.763  21.505  0.00  0.00    +0.000 HD
ENDROOT
BRANCH   8  13
ATOM     13  O   UNL     1      -5.122  10.865  17.354  0.00  0.00    +0.000 OA
ATOM     14  C   UNL     1      -6.235  11.058  18.221  0.00  0.00    +0.000 C 
ENDBRANCH   8  13
BRANCH   9  15
ATOM     15  O   UNL     1      -3.001   9.554  16.051  0.00  0.00    +0.000 OA
ATOM     16  C   UNL     1      -2.941  10.096  14.737  0.00  0.00    +0.000 C 
ENDBRANCH   9  15
BRANCH   1  17
ATOM     17  C   UNL     1       1.398  10.704  18.664  0.00  0.00    +0.000 C 
BRANCH  17  27
ATOM     18  C   UNL     1       1.257   8.902  20.492  0.00  0.00    +0.000 A 
ATOM     19  N   UNL     1       1.421   7.629  20.925  0.00  0.00    +0.000 NA
ATOM     20  C   UNL     1       1.840   6.677  20.079  0.00  0.00    +0.000 A 
ATOM     21  C   UNL     1       2.016   5.380  20.545  0.00  0.00    +0.000 A 
ATOM     22  C   UNL     1       2.493   4.352  19.722  0.00  0.00    +0.000 A 
ATOM     23  C   UNL     1       2.804   4.621  18.395  0.00  0.00    +0.000 A 
ATOM     24  C   UNL     1       2.616   5.918  17.904  0.00  0.00    +0.000 A 
ATOM     25  C   UNL     1       2.130   6.947  18.735  0.00  0.00    +0.000 A 
ATOM     26  C   UNL     1       1.938   8.261  18.284  0.00  0.00    +0.000 A 
ATOM     27  C   UNL     1       1.499   9.268  19.161  0.00  0.00    +0.000 A 
BRANCH  18  28
ATOM     28  N   UNL     1       0.891   9.874  21.428  0.00  0.00    +0.000 N 
ATOM     29  H   UNL     1       0.431  10.664  20.969  0.00  0.00    +0.000 HD
BRANCH  28  31
ATOM     30  C   UNL     1      -0.849  10.368  23.066  0.00  0.00    +0.000 C 
ATOM     31  C   UNL     1       0.224   9.385  22.626  0.00  0.00    +0.000 C 
ENDBRANCH  28  31
ENDBRANCH  18  28
BRANCH  23  32
ATOM     32  O   UNL     1       3.295   3.724  17.486  0.00  0.00    +0.000 OA
ATOM     33  C   UNL     1       4.619   3.947  17.014  0.00  0.00    +0.000 C 
ENDBRANCH  23  32
ENDBRANCH  17  27
ENDBRANCH   1  17
BRANCH   5  34
ATOM     34  C   UNL     1      -2.970  13.504  21.342  0.00  0.00    +0.000 C 
BRANCH  34  35
ATOM     35  N   UNL     1      -2.443  13.713  22.672  0.00  0.00    +0.000 N 
ATOM     36  C   UNL     1      -2.820  14.828  23.391  0.00  0.00    +0.000 C 
ATOM     37  C   UNL     1      -2.348  14.853  24.818  0.00  0.00    +0.000 C 
ATOM     38  O   UNL     1      -3.492  15.741  22.923  0.00  0.00    +0.000 OA
ATOM     39  H   UNL     1      -2.031  12.928  23.156  0.00  0.00    +0.000 HD
ENDBRANCH  34  35
ENDBRANCH   5  34
TORSDOF 9
ENDMDL
MODEL 3
REMARK VINA RESULT:      -7.5      1.532      1.914
REMARK  Name = 
REMARK  14 active torsions:
REMARK  status: ('A' for Active; 'I' for Inactive)
REMARK    1  A    between atoms: C_1  and  C_2
REMARK    2  A    between atoms: C_2  and  N_3
REMARK    3  A    between atoms: N_3  and  C_4
REMARK    4  A    between atoms: C_9  and  O_10
REMARK    5  A    between atoms: O_10  and  C_11
REMARK    6  A    between atoms: C_15  and  C_16
REMARK    7  A    between atoms: C_16  and  C_17
REMARK    8  A    between atoms: C_21  and  C_22
REMARK    9  A    between atoms: C_22  and  N_23
REMARK   10  A    between atoms: C_24  and  C_25
REMARK   11  A    between atoms: C_29  and  O_30
REMARK   12  A    between atoms: O_30  and  C_31
REMARK   13  A    between atoms: C_32  and  O_33
REMARK   14  A    between atoms: O_33  and  C_34
REMARK                            x       y       z     vdW  Elec       q    Type
REMARK                         _______ _______ _______ _____ _____    ______ ____
ROOT
ATOM      1  C   UNL     1       0.409  11.345  18.914  0.00  0.00    +0.000 A 
ATOM      2  C   UNL     1       0.776  12.393  19.921  0.00  0.00    +0.000 A 
ATOM      3  O   UNL     1       1.934  12.625  20.251  0.00  0.00    +0.000 OA
ATOM      4  N   UNL     1      -0.247  13.099  20.488  0.00  0.00    +0.000 N 
ATOM      5  C   UNL     1      -1.582  12.920  20.209  0.00  0.00    +0.000 A 
ATOM      6  C   UNL     1      -1.929  12.073  19.214  0.00  0.00    +0.000 A 
ATOM      7  C   UNL     1      -3.325  11.884  18.821  0.00  0.00    +0.000 A 
ATOM      8  C   UNL     1      -3.678  11.099  17.777  0.00  0.00    +0.000 A 
ATOM      9  C   UNL     1      -2.640  10.354  17.040  0.00  0.00    +0.000 A 
ATOM     10  C   UNL     1      -1.343  10.425  17.408  0.00  0.00    +0.000 A 
ATOM     11  C   UNL     1      -0.884  11.287  18.505  0.00  0.00    +0.000 A 
ATOM     12  H   UNL     1       0.043  13.770  21.189  0.00  0.00    +0.000 HD
ENDROOT
BRANCH   8  13
ATOM     13  O   UNL     1      -4.972  10.937  17.336  0.00  0.00    +0.000 OA
ATOM     14  C   UNL     1      -6.024  10.903  18.296  0.00  0.00    +0.000 C 
ENDBRANCH   8  13
BRANCH   9  15
ATOM     15  O   UNL     1      -2.965   9.477  16.012  0.00  0.00    +0.000 OA
ATOM     16  C   UNL     1      -3.013   9.984  14.683  0.00  0.00    +0.000 C 
ENDBRANCH   9  15
BRANCH   1  17
ATOM     17  C   UNL     1       1.579  10.519  18.415  0.00  0.00    +0.000 C 
BRANCH  17  27
ATOM     18  C   UNL     1       1.335   8.788  20.299  0.00  0.00    +0.000 A 
ATOM     19  N   UNL     1       1.456   7.529  20.782  0.00  0.00    +0.000 NA
ATOM     20  C   UNL     1       1.886   6.539  19.987  0.00  0.00    +0.000 A 
ATOM     21  C   UNL     1       2.017   5.257  20.505  0.00  0.00    +0.000 A 
ATOM     22  C   UNL     1       2.503   4.190  19.738  0.00  0.00    +0.000 A 
ATOM     23  C   UNL     1       2.866   4.404  18.414  0.00  0.00    +0.000 A 
ATOM     24  C   UNL     1       2.723   5.686  17.870  0.00  0.00    +0.000 A 
ATOM     25  C   UNL     1       2.230   6.754  18.646  0.00  0.00    +0.000 A 
ATOM     26  C   UNL     1       2.081   8.054  18.142  0.00  0.00    +0.000 A 
ATOM     27  C   UNL     1       1.631   9.101  18.965  0.00  0.00    +0.000 A 
BRANCH  18  28
ATOM     28  N   UNL     1       0.956   9.801  21.185  0.00  0.00    +0.000 N 
ATOM     29  H   UNL     1       1.032  10.719  20.742  0.00  0.00    +0.000 HD
BRANCH  28  31
ATOM     30  C   UNL     1      -0.007   9.554  23.414  0.00  0.00    +0.000 C 
ATOM     31  C   UNL     1      -0.281   9.574  21.920  0.00  0.00    +0.000 C 
ENDBRANCH  28  31
ENDBRANCH  18  28
BRANCH  23  32
ATOM     32  O   UNL     1       3.371   3.466  17.557  0.00  0.00    +0.000 OA
ATOM     33  C   UNL     1       3.524   2.146  18.066  0.00  0.00    +0.000 C 
ENDBRANCH  23  32
ENDBRANCH  17  27
ENDBRANCH   1  17
BRANCH   5  34
ATOM     34  C   UNL     1      -2.551  13.628  21.131  0.00  0.00    +0.000 C 
BRANCH  34  35
ATOM     35  N   UNL     1      -2.976  14.893  20.578  0.00  0.00    +0.000 N 
ATOM     36  C   UNL     1      -2.201  16.019  20.767  0.00  0.00    +0.000 C 
ATOM     37  C   UNL     1      -2.649  17.235  20.006  0.00  0.00    +0.000 C 
ATOM     38  O   UNL     1      -1.214  16.046  21.495  0.00  0.00    +0.000 OA
ATOM     39  H   UNL     1      -3.673  14.891  19.847  0.00  0.00    +0.000 HD
ENDBRANCH  34  35
ENDBRANCH   5  34
TORSDOF 9
ENDMDL
MODEL 4
REMARK VINA RESULT:      -7.2      2.095      4.118
REMARK  Name = 
REMARK  14 active torsions:
REMARK  status: ('A' for Active; 'I' for Inactive)
REMARK    1  A    between atoms: C_1  and  C_2
REMARK    2  A    between atoms: C_2  and  N_3
REMARK    3  A    between atoms: N_3  and  C_4
REMARK    4  A    between atoms: C_9  and  O_10
REMARK    5  A    between atoms: O_10  and  C_11
REMARK    6  A    between atoms: C_15  and  C_16
REMARK    7  A    between atoms: C_16  and  C_17
REMARK    8  A    between atoms: C_21  and  C_22
REMARK    9  A    between atoms: C_22  and  N_23
REMARK   10  A    between atoms: C_24  and  C_25
REMARK   11  A    between atoms: C_29  and  O_30
REMARK   12  A    between atoms: O_30  and  C_31
REMARK   13  A    between atoms: C_32  and  O_33
REMARK   14  A    between atoms: O_33  and  C_34
REMARK                            x       y       z     vdW  Elec       q    Type
REMARK                         _______ _______ _______ _____ _____    ______ ____
ROOT
ATOM      1  C   UNL     1      -1.172  11.196  18.530  0.00  0.00    +0.000 A 
ATOM      2  C   UNL     1      -1.810  10.264  17.545  0.00  0.00    +0.000 A 
ATOM      3  O   UNL     1      -1.168   9.479  16.855  0.00  0.00    +0.000 OA
ATOM      4  N   UNL     1      -3.170  10.320  17.423  0.00  0.00    +0.000 N 
ATOM      5  C   UNL     1      -3.993  11.165  18.129  0.00  0.00    +0.000 A 
ATOM      6  C   UNL     1      -3.456  11.923  19.112  0.00  0.00    +0.000 A 
ATOM      7  C   UNL     1      -4.284  12.794  19.945  0.00  0.00    +0.000 A 
ATOM      8  C   UNL     1      -3.770  13.498  20.981  0.00  0.00    +0.000 A 
ATOM      9  C   UNL     1      -2.321  13.443  21.254  0.00  0.00    +0.000 A 
ATOM     10  C   UNL     1      -1.496  12.720  20.468  0.00  0.00    +0.000 A 
ATOM     11  C   UNL     1      -1.989  11.902  19.352  0.00  0.00    +0.000 A 
ATOM     12  H   UNL     1      -3.555   9.700  16.721  0.00  0.00    +0.000 HD
ENDROOT
BRANCH   8  13
ATOM     13  O   UNL     1      -4.519  14.285  21.826  0.00  0.00    +0.000 OA
ATOM     14  C   UNL     1      -5.163  13.675  22.940  0.00  0.00    +0.000 C 
ENDBRANCH   8  13
BRANCH   9  15
ATOM     15  O   UNL     1      -1.740  14.209  22.257  0.00  0.00    +0.000 OA
ATOM     16  C   UNL     1      -1.425  13.575  23.491  0.00  0.00    +0.000 C 
ENDBRANCH   9  15
BRANCH   1  17
ATOM     17  C   UNL     1       0.344  11.167  18.528  0.00  0.00    +0.000 C 
BRANCH  17  27
ATOM     18  C   UNL     1       0.732   9.175  20.105  0.00  0.00    +0.000 A 
ATOM     19  N   UNL     1       1.339   8.006  20.420  0.00  0.00    +0.000 NA
ATOM     20  C   UNL     1       2.189   7.433  19.557  0.00  0.00    +0.000 A 
ATOM     21  C   UNL     1       2.813   6.241  19.903  0.00  0.00    +0.000 A 
ATOM     22  C   UNL     1       3.744   5.617  19.064  0.00  0.00    +0.000 A 
ATOM     23  C   UNL     1       4.064   6.194  17.841  0.00  0.00    +0.000 A 
ATOM     24  C   UNL     1       3.432   7.385  17.467  0.00  0.00    +0.000 A 
ATOM     25  C   UNL     1       2.492   8.006  18.314  0.00  0.00    +0.000 A 
ATOM     26  C   UNL     1       1.844   9.204  17.981  0.00  0.00    +0.000 A 
ATOM     27  C   UNL     1       0.951   9.815  18.878  0.00  0.00    +0.000 A 
BRANCH  18  28
ATOM     28  N   UNL     1      -0.087   9.773  21.068  0.00  0.00    +0.000 N 
ATOM     29  H   UNL     1      -0.866  10.267  20.626  0.00  0.00    +0.000 HD
BRANCH  28  31
ATOM     30  C   UNL     1      -0.089   9.625  23.504  0.00  0.00    +0.000 C 
ATOM     31  C   UNL     1      -0.455   8.934  22.200  0.00  0.00    +0.000 C 
ENDBRANCH  28  31
ENDBRANCH  18  28
BRANCH  23  32
ATOM     32  O   UNL     1       4.965   5.708  16.933  0.00  0.00    +0.000 OA
ATOM     33  C   UNL     1       5.157   6.469  15.747  0.00  0.00    +0.000 C 
ENDBRANCH  23  32
ENDBRANCH  17  27
ENDBRANCH   1  17
BRANCH   5  34
ATOM     34  C   UNL     1      -5.429  11.237  17.657  0.00  0.00    +0.000 C 
BRANCH  34  35
ATOM     35  N   UNL     1      -5.683  12.459  16.928  0.00  0.00    +0.000 N 
ATOM     36  C   UNL     1      -6.798  13.214  17.224  0.00  0.00    +0.000 C 
ATOM     37  C   UNL     1      -6.869  14.544  16.526  0.00  0.00    +0.000 C 
ATOM     38  O   UNL     1      -7.678  12.849  17.997  0.00  0.00    +0.000 OA
ATOM     39  H   UNL     1      -4.923  12.880  16.413  0.00  0.00    +0.000 HD
ENDBRANCH  34  35
ENDBRANCH   5  34
TORSDOF 9
ENDMDL
MODEL 5
REMARK VINA RESULT:      -7.0      1.916      3.806
REMARK  Name = 
REMARK  14 active torsions:
REMARK  status: ('A' for Active; 'I' for Inactive)
REMARK    1  A    between atoms: C_1  and  C_2
REMARK    2  A    between atoms: C_2  and  N_3
REMARK    3  A    between atoms: N_3  and  C_4
REMARK    4  A    between atoms: C_9  and  O_10
REMARK    5  A    between atoms: O_10  and  C_11
REMARK    6  A    between atoms: C_15  and  C_16
REMARK    7  A    between atoms: C_16  and  C_17
REMARK    8  A    between atoms: C_21  and  C_22
REMARK    9  A    between atoms: C_22  and  N_23
REMARK   10  A    between atoms: C_24  and  C_25
REMARK   11  A    between atoms: C_29  and  O_30
REMARK   12  A    between atoms: O_30  and  C_31
REMARK   13  A    between atoms: C_32  and  O_33
REMARK   14  A    between atoms: O_33  and  C_34
REMARK                            x       y       z     vdW  Elec       q    Type
REMARK                         _______ _______ _______ _____ _____    ______ ____
ROOT
ATOM      1  C   UNL     1      -0.419  11.241  18.883  0.00  0.00    +0.000 A 
ATOM      2  C   UNL     1      -1.366  10.494  17.993  0.00  0.00    +0.000 A 
ATOM      3  O   UNL     1      -1.003   9.614  17.220  0.00  0.00    +0.000 OA
ATOM      4  N   UNL     1      -2.687  10.837  18.059  0.00  0.00    +0.000 N 
ATOM      5  C   UNL     1      -3.211  11.814  18.873  0.00  0.00    +0.000 A 
ATOM      6  C   UNL     1      -2.399  12.411  19.775  0.00  0.00    +0.000 A 
ATOM      7  C   UNL     1      -2.904  13.411  20.715  0.00  0.00    +0.000 A 
ATOM      8  C   UNL     1      -2.119  13.958  21.672  0.00  0.00    +0.000 A 
ATOM      9  C   UNL     1      -0.692  13.593  21.743  0.00  0.00    +0.000 A 
ATOM     10  C   UNL     1      -0.152  12.737  20.850  0.00  0.00    +0.000 A 
ATOM     11  C   UNL     1      -0.951  12.076  19.811  0.00  0.00    +0.000 A 
ATOM     12  H   UNL     1      -3.285  10.334  17.415  0.00  0.00    +0.000 HD
ENDROOT
BRANCH   8  13
ATOM     13  O   UNL     1      -2.565  14.858  22.614  0.00  0.00    +0.000 OA
ATOM     14  C   UNL     1      -2.925  16.170  22.192  0.00  0.00    +0.000 C 
ENDBRANCH   8  13
BRANCH   9  15
ATOM     15  O   UNL     1       0.167  14.189  22.659  0.00  0.00    +0.000 OA
ATOM     16  C   UNL     1       1.012  15.240  22.205  0.00  0.00    +0.000 C 
ENDBRANCH   9  15
BRANCH   1  17
ATOM     17  C   UNL     1       1.042  10.895  18.673  0.00  0.00    +0.000 C 
BRANCH  17  27
ATOM     18  C   UNL     1       1.247   8.939  20.328  0.00  0.00    +0.000 A 
ATOM     19  N   UNL     1       1.648   7.685  20.645  0.00  0.00    +0.000 NA
ATOM     20  C   UNL     1       2.237   6.911  19.724  0.00  0.00    +0.000 A 
ATOM     21  C   UNL     1       2.654   5.632  20.073  0.00  0.00    +0.000 A 
ATOM     22  C   UNL     1       3.314   4.792  19.167  0.00  0.00    +0.000 A 
ATOM     23  C   UNL     1       3.565   5.235  17.874  0.00  0.00    +0.000 A 
ATOM     24  C   UNL     1       3.136   6.513  17.500  0.00  0.00    +0.000 A 
ATOM     25  C   UNL     1       2.468   7.352  18.414  0.00  0.00    +0.000 A 
ATOM     26  C   UNL     1       2.030   8.642  18.081  0.00  0.00    +0.000 A 
ATOM     27  C   UNL     1       1.412   9.464  19.039  0.00  0.00    +0.000 A 
BRANCH  18  28
ATOM     28  N   UNL     1       0.707   9.736  21.342  0.00  0.00    +0.000 N 
ATOM     29  H   UNL     1       0.474  10.666  20.988  0.00  0.00    +0.000 HD
BRANCH  28  31
ATOM     30  C   UNL     1      -0.840  10.099  23.194  0.00  0.00    +0.000 C 
ATOM     31  C   UNL     1      -0.325   9.113  22.160  0.00  0.00    +0.000 C 
ENDBRANCH  28  31
ENDBRANCH  18  28
BRANCH  23  32
ATOM     32  O   UNL     1       4.215   4.533  16.896  0.00  0.00    +0.000 OA
ATOM     33  C   UNL     1       5.637   4.527  16.945  0.00  0.00    +0.000 C 
ENDBRANCH  23  32
ENDBRANCH  17  27
ENDBRANCH   1  17
BRANCH   5  34
ATOM     34  C   UNL     1      -4.649  12.200  18.603  0.00  0.00    +0.000 C 
BRANCH  34  35
ATOM     35  N   UNL     1      -5.567  11.229  19.153  0.00  0.00    +0.000 N 
ATOM     36  C   UNL     1      -6.436  11.601  20.158  0.00  0.00    +0.000 C 
ATOM     37  C   UNL     1      -7.457  10.563  20.532  0.00  0.00    +0.000 C 
ATOM     38  O   UNL     1      -6.398  12.693  20.716  0.00  0.00    +0.000 OA
ATOM     39  H   UNL     1      -5.752  10.387  18.628  0.00  0.00    +0.000 HD
ENDBRANCH  34  35
ENDBRANCH   5  34
TORSDOF 9
ENDMDL
MODEL 6
REMARK VINA RESULT:      -7.0      2.785      4.975
REMARK  Name = 
REMARK  14 active torsions:
REMARK  status: ('A' for Active; 'I' for Inactive)
REMARK    1  A    between atoms: C_1  and  C_2
REMARK    2  A    between atoms: C_2  and  N_3
REMARK    3  A    between atoms: N_3  and  C_4
REMARK    4  A    between atoms: C_9  and  O_10
REMARK    5  A    between atoms: O_10  and  C_11
REMARK    6  A    between atoms: C_15  and  C_16
REMARK    7  A    between atoms: C_16  and  C_17
REMARK    8  A    between atoms: C_21  and  C_22
REMARK    9  A    between atoms: C_22  and  N_23
REMARK   10  A    between atoms: C_24  and  C_25
REMARK   11  A    between atoms: C_29  and  O_30
REMARK   12  A    between atoms: O_30  and  C_31
REMARK   13  A    between atoms: C_32  and  O_33
REMARK   14  A    between atoms: O_33  and  C_34
REMARK                            x       y       z     vdW  Elec       q    Type
REMARK                         _______ _______ _______ _____ _____    ______ ____
ROOT
ATOM      1  C   UNL     1       0.856  11.925  19.334  0.00  0.00    +0.000 A 
ATOM      2  C   UNL     1       2.173  12.485  18.890  0.00  0.00    +0.000 A 
ATOM      3  O   UNL     1       2.774  12.074  17.903  0.00  0.00    +0.000 OA
ATOM      4  N   UNL     1       2.710  13.490  19.643  0.00  0.00    +0.000 N 
ATOM      5  C   UNL     1       2.138  14.023  20.775  0.00  0.00    +0.000 A 
ATOM      6  C   UNL     1       0.894  13.625  21.122  0.00  0.00    +0.000 A 
ATOM      7  C   UNL     1       0.201  14.197  22.276  0.00  0.00    +0.000 A 
ATOM      8  C   UNL     1      -1.073  13.863  22.587  0.00  0.00    +0.000 A 
ATOM      9  C   UNL     1      -1.778  12.845  21.785  0.00  0.00    +0.000 A 
ATOM     10  C   UNL     1      -1.161  12.224  20.759  0.00  0.00    +0.000 A 
ATOM     11  C   UNL     1       0.205  12.564  20.340  0.00  0.00    +0.000 A 
ATOM     12  H   UNL     1       3.617  13.813  19.328  0.00  0.00    +0.000 HD
ENDROOT
BRANCH   8  13
ATOM     13  O   UNL     1      -1.784  14.418  23.628  0.00  0.00    +0.000 OA
ATOM     14  C   UNL     1      -1.176  15.449  24.399  0.00  0.00    +0.000 C 
ENDBRANCH   8  13
BRANCH   9  15
ATOM     15  O   UNL     1      -3.058  12.416  22.116  0.00  0.00    +0.000 OA
ATOM     16  C   UNL     1      -4.132  12.774  21.255  0.00  0.00    +0.000 C 
ENDBRANCH   9  15
BRANCH   1  17
ATOM     17  C   UNL     1       0.376  10.735  18.526  0.00  0.00    +0.000 C 
BRANCH  17  27
ATOM     18  C   UNL     1       0.935   8.761  20.074  0.00  0.00    +0.000 A 
ATOM     19  N   UNL     1       1.628   7.634  20.363  0.00  0.00    +0.000 NA
ATOM     20  C   UNL     1       2.498   7.130  19.477  0.00  0.00    +0.000 A 
ATOM     21  C   UNL     1       3.211   5.981  19.798  0.00  0.00    +0.000 A 
ATOM     22  C   UNL     1       4.165   5.431  18.933  0.00  0.00    +0.000 A 
ATOM     23  C   UNL     1       4.418   6.041  17.710  0.00  0.00    +0.000 A 
ATOM     24  C   UNL     1       3.697   7.188  17.362  0.00  0.00    +0.000 A 
ATOM     25  C   UNL     1       2.734   7.734  18.235  0.00  0.00    +0.000 A 
ATOM     26  C   UNL     1       1.998   8.887  17.928  0.00  0.00    +0.000 A 
ATOM     27  C   UNL     1       1.083   9.426  18.849  0.00  0.00    +0.000 A 
BRANCH  18  28
ATOM     28  N   UNL     1       0.097   9.291  21.059  0.00  0.00    +0.000 N 
ATOM     29  H   UNL     1      -0.840   8.886  20.995  0.00  0.00    +0.000 HD
BRANCH  28  31
ATOM     30  C   UNL     1      -0.426   9.748  23.399  0.00  0.00    +0.000 C 
ATOM     31  C   UNL     1       0.651   9.346  22.405  0.00  0.00    +0.000 C 
ENDBRANCH  28  31
ENDBRANCH  18  28
BRANCH  23  32
ATOM     32  O   UNL     1       5.331   5.628  16.779  0.00  0.00    +0.000 OA
ATOM     33  C   UNL     1       5.244   6.216  15.487  0.00  0.00    +0.000 C 
ENDBRANCH  23  32
ENDBRANCH  17  27
ENDBRANCH   1  17
BRANCH   5  34
ATOM     34  C   UNL     1       3.020  14.945  21.590  0.00  0.00    +0.000 C 
BRANCH  34  35
ATOM     35  N   UNL     1       4.402  14.527  21.545  0.00  0.00    +0.000 N 
ATOM     36  C   UNL     1       5.063  14.217  22.715  0.00  0.00    +0.000 C 
ATOM     37  C   UNL     1       6.436  13.633  22.534  0.00  0.00    +0.000 C 
ATOM     38  O   UNL     1       4.584  14.394  23.831  0.00  0.00    +0.000 OA
ATOM     39  H   UNL     1       4.782  14.210  20.664  0.00  0.00    +0.000 HD
ENDBRANCH  34  35
ENDBRANCH   5  34
TORSDOF 9
ENDMDL
MODEL 7
REMARK VINA RESULT:      -6.9      1.112      1.126
REMARK  Name = 
REMARK  14 active torsions:
REMARK  status: ('A' for Active; 'I' for Inactive)
REMARK    1  A    between atoms: C_1  and  C_2
REMARK    2  A    between atoms: C_2  and  N_3
REMARK    3  A    between atoms: N_3  and  C_4
REMARK    4  A    between atoms: C_9  and  O_10
REMARK    5  A    between atoms: O_10  and  C_11
REMARK    6  A    between atoms: C_15  and  C_16
REMARK    7  A    between atoms: C_16  and  C_17
REMARK    8  A    between atoms: C_21  and  C_22
REMARK    9  A    between atoms: C_22  and  N_23
REMARK   10  A    between atoms: C_24  and  C_25
REMARK   11  A    between atoms: C_29  and  O_30
REMARK   12  A    between atoms: O_30  and  C_31
REMARK   13  A    between atoms: C_32  and  O_33
REMARK   14  A    between atoms: O_33  and  C_34
REMARK                            x       y       z     vdW  Elec       q    Type
REMARK                         _______ _______ _______ _____ _____    ______ ____
ROOT
ATOM      1  C   UNL     1      -0.472  12.356  19.781  0.00  0.00    +0.000 A 
ATOM      2  C   UNL     1      -0.342  13.201  21.012  0.00  0.00    +0.000 A 
ATOM      3  O   UNL     1       0.741  13.514  21.495  0.00  0.00    +0.000 OA
ATOM      4  N   UNL     1      -1.498  13.620  21.606  0.00  0.00    +0.000 N 
ATOM      5  C   UNL     1      -2.767  13.323  21.167  0.00  0.00    +0.000 A 
ATOM      6  C   UNL     1      -2.910  12.672  19.990  0.00  0.00    +0.000 A 
ATOM      7  C   UNL     1      -4.230  12.382  19.432  0.00  0.00    +0.000 A 
ATOM      8  C   UNL     1      -4.385  11.800  18.220  0.00  0.00    +0.000 A 
ATOM      9  C   UNL     1      -3.196  11.382  17.453  0.00  0.00    +0.000 A 
ATOM     10  C   UNL     1      -1.955  11.550  17.954  0.00  0.00    +0.000 A 
ATOM     11  C   UNL     1      -1.710  12.209  19.244  0.00  0.00    +0.000 A 
ATOM     12  H   UNL     1      -1.364  14.157  22.455  0.00  0.00    +0.000 HD
ENDROOT
BRANCH   8  13
ATOM     13  O   UNL     1      -5.606  11.560  17.630  0.00  0.00    +0.000 OA
ATOM     14  C   UNL     1      -6.378  12.668  17.178  0.00  0.00    +0.000 C 
ENDBRANCH   8  13
BRANCH   9  15
ATOM     15  O   UNL     1      -3.311  10.711  16.241  0.00  0.00    +0.000 OA
ATOM     16  C   UNL     1      -2.635   9.468  16.092  0.00  0.00    +0.000 C 
ENDBRANCH   9  15
BRANCH   1  17
ATOM     17  C   UNL     1       0.842  11.827  19.242  0.00  0.00    +0.000 C 
BRANCH  17  27
ATOM     18  C   UNL     1       0.903   9.796  20.816  0.00  0.00    +0.000 A 
ATOM     19  N   UNL     1       1.211   8.504  21.082  0.00  0.00    +0.000 NA
ATOM     20  C   UNL     1       1.742   7.726  20.128  0.00  0.00    +0.000 A 
ATOM     21  C   UNL     1       2.065   6.408  20.424  0.00  0.00    +0.000 A 
ATOM     22  C   UNL     1       2.663   5.559  19.484  0.00  0.00    +0.000 A 
ATOM     23  C   UNL     1       2.946   6.034  18.209  0.00  0.00    +0.000 A 
ATOM     24  C   UNL     1       2.612   7.354  17.888  0.00  0.00    +0.000 A 
ATOM     25  C   UNL     1       2.006   8.202  18.837  0.00  0.00    +0.000 A 
ATOM     26  C   UNL     1       1.664   9.533  18.557  0.00  0.00    +0.000 A 
ATOM     27  C   UNL     1       1.106  10.359  19.549  0.00  0.00    +0.000 A 
BRANCH  18  28
ATOM     28  N   UNL     1       0.422  10.588  21.863  0.00  0.00    +0.000 N 
ATOM     29  H   UNL     1      -0.044  11.423  21.501  0.00  0.00    +0.000 HD
BRANCH  28  31
ATOM     30  C   UNL     1      -1.519  10.691  23.339  0.00  0.00    +0.000 C 
ATOM     31  C   UNL     1      -0.304   9.884  22.912  0.00  0.00    +0.000 C 
ENDBRANCH  28  31
ENDBRANCH  18  28
BRANCH  23  32
ATOM     32  O   UNL     1       3.543   5.327  17.202  0.00  0.00    +0.000 OA
ATOM     33  C   UNL     1       3.520   3.909  17.311  0.00  0.00    +0.000 C 
ENDBRANCH  23  32
ENDBRANCH  17  27
ENDBRANCH   1  17
BRANCH   5  34
ATOM     34  C   UNL     1      -3.894  13.674  22.113  0.00  0.00    +0.000 C 
BRANCH  34  35
ATOM     35  N   UNL     1      -3.428  14.497  23.206  0.00  0.00    +0.000 N 
ATOM     36  C   UNL     1      -3.462  14.008  24.495  0.00  0.00    +0.000 C 
ATOM     37  C   UNL     1      -2.796  14.879  25.523  0.00  0.00    +0.000 C 
ATOM     38  O   UNL     1      -3.989  12.943  24.802  0.00  0.00    +0.000 OA
ATOM     39  H   UNL     1      -2.843  15.293  22.995  0.00  0.00    +0.000 HD
ENDBRANCH  34  35
ENDBRANCH   5  34
TORSDOF 9
ENDMDL
MODEL 8
REMARK VINA RESULT:      -6.9      1.204      1.268
REMARK  Name = 
REMARK  14 active torsions:
REMARK  status: ('A' for Active; 'I' for Inactive)
REMARK    1  A    between atoms: C_1  and  C_2
REMARK    2  A    between atoms: C_2  and  N_3
REMARK    3  A    between atoms: N_3  and  C_4
REMARK    4  A    between atoms: C_9  and  O_10
REMARK    5  A    between atoms: O_10  and  C_11
REMARK    6  A    between atoms: C_15  and  C_16
REMARK    7  A    between atoms: C_16  and  C_17
REMARK    8  A    between atoms: C_21  and  C_22
REMARK    9  A    between atoms: C_22  and  N_23
REMARK   10  A    between atoms: C_24  and  C_25
REMARK   11  A    between atoms: C_29  and  O_30
REMARK   12  A    between atoms: O_30  and  C_31
REMARK   13  A    between atoms: C_32  and  O_33
REMARK   14  A    between atoms: O_33  and  C_34
REMARK                            x       y       z     vdW  Elec       q    Type
REMARK                         _______ _______ _______ _____ _____    ______ ____
ROOT
ATOM      1  C   UNL     1      -0.227  11.940  19.447  0.00  0.00    +0.000 A 
ATOM      2  C   UNL     1      -0.036  12.543  20.806  0.00  0.00    +0.000 A 
ATOM      3  O   UNL     1       1.070  12.755  21.293  0.00  0.00    +0.000 OA
ATOM      4  N   UNL     1      -1.161  12.852  21.516  0.00  0.00    +0.000 N 
ATOM      5  C   UNL     1      -2.450  12.649  21.082  0.00  0.00    +0.000 A 
ATOM      6  C   UNL     1      -2.650  12.227  19.813  0.00  0.00    +0.000 A 
ATOM      7  C   UNL     1      -3.995  12.052  19.267  0.00  0.00    +0.000 A 
ATOM      8  C   UNL     1      -4.207  11.705  17.976  0.00  0.00    +0.000 A 
ATOM      9  C   UNL     1      -3.055  11.429  17.096  0.00  0.00    +0.000 A 
ATOM     10  C   UNL     1      -1.793  11.494  17.568  0.00  0.00    +0.000 A 
ATOM     11  C   UNL     1      -1.487  11.903  18.945  0.00  0.00    +0.000 A 
ATOM     12  H   UNL     1      -0.985  13.223  22.442  0.00  0.00    +0.000 HD
ENDROOT
BRANCH   8  13
ATOM     13  O   UNL     1      -5.453  11.585  17.404  0.00  0.00    +0.000 OA
ATOM     14  C   UNL     1      -6.560  11.250  18.236  0.00  0.00    +0.000 C 
ENDBRANCH   8  13
BRANCH   9  15
ATOM     15  O   UNL     1      -3.228  10.994  15.787  0.00  0.00    +0.000 OA
ATOM     16  C   UNL     1      -2.908   9.642  15.479  0.00  0.00    +0.000 C 
ENDBRANCH   9  15
BRANCH   1  17
ATOM     17  C   UNL     1       1.058  11.512  18.765  0.00  0.00    +0.000 C 
BRANCH  17  27
ATOM     18  C   UNL     1       1.002   9.284  20.046  0.00  0.00    +0.000 A 
ATOM     19  N   UNL     1       1.380   7.994  20.208  0.00  0.00    +0.000 NA
ATOM     20  C   UNL     1       2.173   7.404  19.303  0.00  0.00    +0.000 A 
ATOM     21  C   UNL     1       2.561   6.084  19.494  0.00  0.00    +0.000 A 
ATOM     22  C   UNL     1       3.423   5.426  18.607  0.00  0.00    +0.000 A 
ATOM     23  C   UNL     1       3.912   6.100  17.494  0.00  0.00    +0.000 A 
ATOM     24  C   UNL     1       3.517   7.425  17.277  0.00  0.00    +0.000 A 
ATOM     25  C   UNL     1       2.645   8.079  18.170  0.00  0.00    +0.000 A 
ATOM     26  C   UNL     1       2.233   9.408  17.992  0.00  0.00    +0.000 A 
ATOM     27  C   UNL     1       1.403  10.038  18.935  0.00  0.00    +0.000 A 
BRANCH  18  28
ATOM     28  N   UNL     1       0.238   9.879  21.055  0.00  0.00    +0.000 N 
ATOM     29  H   UNL     1      -0.452  10.521  20.657  0.00  0.00    +0.000 HD
BRANCH  28  31
ATOM     30  C   UNL     1      -0.071   9.581  23.457  0.00  0.00    +0.000 C 
ATOM     31  C   UNL     1      -0.278   8.979  22.077  0.00  0.00    +0.000 C 
ENDBRANCH  28  31
ENDBRANCH  18  28
BRANCH  23  32
ATOM     32  O   UNL     1       4.772   5.592  16.560  0.00  0.00    +0.000 OA
ATOM     33  C   UNL     1       4.772   4.180  16.385  0.00  0.00    +0.000 C 
ENDBRANCH  23  32
ENDBRANCH  17  27
ENDBRANCH   1  17
BRANCH   5  34
ATOM     34  C   UNL     1      -3.534  12.826  22.124  0.00  0.00    +0.000 C 
BRANCH  34  35
ATOM     35  N   UNL     1      -3.009  13.416  23.335  0.00  0.00    +0.000 N 
ATOM     36  C   UNL     1      -3.626  14.521  23.882  0.00  0.00    +0.000 C 
ATOM     37  C   UNL     1      -3.102  14.942  25.226  0.00  0.00    +0.000 C 
ATOM     38  O   UNL     1      -4.539  15.129  23.331  0.00  0.00    +0.000 OA
ATOM     39  H   UNL     1      -2.381  12.868  23.905  0.00  0.00    +0.000 HD
ENDBRANCH  34  35
ENDBRANCH   5  34
TORSDOF 9
ENDMDL
MODEL 9
REMARK VINA RESULT:      -6.8      1.026      1.363
REMARK  Name = 
REMARK  14 active torsions:
REMARK  status: ('A' for Active; 'I' for Inactive)
REMARK    1  A    between atoms: C_1  and  C_2
REMARK    2  A    between atoms: C_2  and  N_3
REMARK    3  A    between atoms: N_3  and  C_4
REMARK    4  A    between atoms: C_9  and  O_10
REMARK    5  A    between atoms: O_10  and  C_11
REMARK    6  A    between atoms: C_15  and  C_16
REMARK    7  A    between atoms: C_16  and  C_17
REMARK    8  A    between atoms: C_21  and  C_22
REMARK    9  A    between atoms: C_22  and  N_23
REMARK   10  A    between atoms: C_24  and  C_25
REMARK   11  A    between atoms: C_29  and  O_30
REMARK   12  A    between atoms: O_30  and  C_31
REMARK   13  A    between atoms: C_32  and  O_33
REMARK   14  A    between atoms: O_33  and  C_34
REMARK                            x       y       z     vdW  Elec       q    Type
REMARK                         _______ _______ _______ _____ _____    ______ ____
ROOT
ATOM      1  C   UNL     1      -0.131  12.109  19.217  0.00  0.00    +0.000 A 
ATOM      2  C   UNL     1       0.108  13.138  20.280  0.00  0.00    +0.000 A 
ATOM      3  O   UNL     1       1.229  13.531  20.589  0.00  0.00    +0.000 OA
ATOM      4  N   UNL     1      -0.989  13.637  20.924  0.00  0.00    +0.000 N 
ATOM      5  C   UNL     1      -2.289  13.265  20.676  0.00  0.00    +0.000 A 
ATOM      6  C   UNL     1      -2.540  12.436  19.638  0.00  0.00    +0.000 A 
ATOM      7  C   UNL     1      -3.904  12.052  19.278  0.00  0.00    +0.000 A 
ATOM      8  C   UNL     1      -4.172  11.286  18.194  0.00  0.00    +0.000 A 
ATOM      9  C   UNL     1      -3.062  10.761  17.377  0.00  0.00    +0.000 A 
ATOM     10  C   UNL     1      -1.778  11.016  17.709  0.00  0.00    +0.000 A 
ATOM     11  C   UNL     1      -1.415  11.871  18.846  0.00  0.00    +0.000 A 
ATOM     12  H   UNL     1      -0.778  14.302  21.659  0.00  0.00    +0.000 HD
ENDROOT
BRANCH   8  13
ATOM     13  O   UNL     1      -5.442  10.947  17.785  0.00  0.00    +0.000 OA
ATOM     14  C   UNL     1      -6.395  11.985  17.578  0.00  0.00    +0.000 C 
ENDBRANCH   8  13
BRANCH   9  15
ATOM     15  O   UNL     1      -3.288   9.908  16.304  0.00  0.00    +0.000 OA
ATOM     16  C   UNL     1      -2.905  10.344  15.004  0.00  0.00    +0.000 C 
ENDBRANCH   9  15
BRANCH   1  17
ATOM     17  C   UNL     1       1.132  11.512  18.627  0.00  0.00    +0.000 C 
BRANCH  17  27
ATOM     18  C   UNL     1       1.128   9.560  20.299  0.00  0.00    +0.000 A 
ATOM     19  N   UNL     1       1.428   8.284  20.641  0.00  0.00    +0.000 NA
ATOM     20  C   UNL     1       2.005   7.464  19.751  0.00  0.00    +0.000 A 
ATOM     21  C   UNL     1       2.318   6.164  20.125  0.00  0.00    +0.000 A 
ATOM     22  C   UNL     1       2.961   5.274  19.255  0.00  0.00    +0.000 A 
ATOM     23  C   UNL     1       3.300   5.688  17.972  0.00  0.00    +0.000 A 
ATOM     24  C   UNL     1       2.976   6.989  17.573  0.00  0.00    +0.000 A 
ATOM     25  C   UNL     1       2.325   7.879  18.451  0.00  0.00    +0.000 A 
ATOM     26  C   UNL     1       1.991   9.193  18.092  0.00  0.00    +0.000 A 
ATOM     27  C   UNL     1       1.387  10.062  19.017  0.00  0.00    +0.000 A 
BRANCH  18  28
ATOM     28  N   UNL     1       0.598  10.399  21.283  0.00  0.00    +0.000 N 
ATOM     29  H   UNL     1       0.443  11.340  20.914  0.00  0.00    +0.000 HD
BRANCH  28  31
ATOM     30  C   UNL     1      -0.065   9.571  23.482  0.00  0.00    +0.000 C 
ATOM     31  C   UNL     1      -0.510   9.853  22.056  0.00  0.00    +0.000 C 
ENDBRANCH  28  31
ENDBRANCH  18  28
BRANCH  23  32
ATOM     32  O   UNL     1       3.944   4.937  17.028  0.00  0.00    +0.000 OA
ATOM     33  C   UNL     1       3.925   3.525  17.207  0.00  0.00    +0.000 C 
ENDBRANCH  23  32
ENDBRANCH  17  27
ENDBRANCH   1  17
BRANCH   5  34
ATOM     34  C   UNL     1      -3.318  13.752  21.673  0.00  0.00    +0.000 C 
BRANCH  34  35
ATOM     35  N   UNL     1      -3.945  14.975  21.228  0.00  0.00    +0.000 N 
ATOM     36  C   UNL     1      -5.321  15.077  21.220  0.00  0.00    +0.000 C 
ATOM     37  C   UNL     1      -5.855  16.445  20.904  0.00  0.00    +0.000 C 
ATOM     38  O   UNL     1      -6.070  14.134  21.452  0.00  0.00    +0.000 OA
ATOM     39  H   UNL     1      -3.388  15.817  21.189  0.00  0.00    +0.000 HD
ENDBRANCH  34  35
ENDBRANCH   5  34
TORSDOF 9
ENDMDL
