MODEL 1
REMARK VINA RESULT:      -8.5      0.000      0.000
REMARK  Name = 
REMARK  7 active torsions:
REMARK  status: ('A' for Active; 'I' for Inactive)
REMARK    1  A    between atoms: C_1  and  O_2
REMARK    2  A    between atoms: O_2  and  C_3
REMARK    3  A    between atoms: C_6  and  C_7
REMARK    4  A    between atoms: C_15  and  C_16
REMARK    5  A    between atoms: C_22  and  S_23
REMARK    6  A    between atoms: S_23  and  C_24
REMARK    7  A    between atoms: N_28  and  C_29
REMARK                            x       y       z     vdW  Elec       q    Type
REMARK                         _______ _______ _______ _____ _____    ______ ____
ROOT
ATOM      1  C   UNL     1       0.640  10.848  20.132  0.00  0.00    +0.000 A 
ATOM      2  N   UNL     1       0.010  10.872  21.345  0.00  0.00    +0.000 NA
ATOM      3  C   UNL     1      -0.974  11.828  21.506  0.00  0.00    +0.000 A 
ATOM      4  C   UNL     1      -1.405  12.323  22.734  0.00  0.00    +0.000 A 
ATOM      5  C   UNL     1      -2.477  13.229  22.837  0.00  0.00    +0.000 A 
ATOM      6  C   UNL     1      -3.221  13.566  21.710  0.00  0.00    +0.000 A 
ATOM      7  C   UNL     1      -2.794  13.114  20.469  0.00  0.00    +0.000 A 
ATOM      8  C   UNL     1      -1.579  12.399  20.381  0.00  0.00    +0.000 A 
ATOM      9  C   UNL     1      -0.896  12.179  19.182  0.00  0.00    +0.000 A 
ATOM     10  C   UNL     1       0.492  11.976  19.344  0.00  0.00    +0.000 A 
ENDROOT
BRANCH   1  14
ATOM     11  C   UNL     1       2.497   7.301  18.450  0.00  0.00    +0.000 A 
ATOM     12  C   UNL     1       2.237   8.410  17.659  0.00  0.00    +0.000 A 
ATOM     13  C   UNL     1       1.646   9.547  18.219  0.00  0.00    +0.000 A 
ATOM     14  C   UNL     1       1.259   9.613  19.581  0.00  0.00    +0.000 A 
ATOM     15  C   UNL     1       1.470   8.455  20.339  0.00  0.00    +0.000 A 
ATOM     16  C   UNL     1       2.093   7.315  19.785  0.00  0.00    +0.000 A 
BRANCH  11  18
ATOM     17  C   UNL     1       4.398   6.505  17.297  0.00  0.00    +0.000 C 
ATOM     18  O   UNL     1       3.092   6.255  17.802  0.00  0.00    +0.000 OA
ENDBRANCH  11  18
ENDBRANCH   1  14
BRANCH   9  19
ATOM     19  C   UNL     1      -1.575  11.244  18.164  0.00  0.00    +0.000 A 
ATOM     20  C   UNL     1      -2.294  10.114  18.575  0.00  0.00    +0.000 A 
ATOM     21  C   UNL     1      -3.224   9.492  17.720  0.00  0.00    +0.000 A 
ATOM     22  C   UNL     1      -3.443   9.972  16.430  0.00  0.00    +0.000 A 
ATOM     23  C   UNL     1      -2.670  11.024  15.956  0.00  0.00    +0.000 A 
ATOM     24  C   UNL     1      -1.735  11.635  16.805  0.00  0.00    +0.000 A 
ENDBRANCH   9  19
BRANCH  10  25
ATOM     25  S   UNL     1       1.768  13.191  20.353  0.00  0.00    +0.000 S 
BRANCH  25  26
ATOM     26  C   UNL     1       2.394  14.401  19.303  0.00  0.00    +0.000 A 
ATOM     27  N   UNL     1       3.593  14.356  18.769  0.00  0.00    +0.000 NA
ATOM     28  N   UNL     1       3.779  15.537  18.119  0.00  0.00    +0.000 NA
ATOM     29  N   UNL     1       2.725  16.321  18.241  0.00  0.00    +0.000 NA
ATOM     30  N   UNL     1       1.777  15.630  18.951  0.00  0.00    +0.000 N 
BRANCH  30  31
ATOM     31  C   UNL     1       0.492  16.279  19.125  0.00  0.00    +0.000 A 
ATOM     32  C   UNL     1      -0.412  16.033  20.161  0.00  0.00    +0.000 A 
ATOM     33  C   UNL     1      -1.672  16.687  20.178  0.00  0.00    +0.000 A 
ATOM     34  C   UNL     1      -2.045  17.588  19.182  0.00  0.00    +0.000 A 
ATOM     35  C   UNL     1      -1.157  17.847  18.145  0.00  0.00    +0.000 A 
ATOM     36  C   UNL     1       0.083  17.195  18.117  0.00  0.00    +0.000 A 
ENDBRANCH  30  31
ENDBRANCH  25  26
ENDBRANCH  10  25
TORSDOF 6
ENDMDL
MODEL 2
REMARK VINA RESULT:      -8.4      0.450      1.232
REMARK  Name = 
REMARK  7 active torsions:
REMARK  status: ('A' for Active; 'I' for Inactive)
REMARK    1  A    between atoms: C_1  and  O_2
REMARK    2  A    between atoms: O_2  and  C_3
REMARK    3  A    between atoms: C_6  and  C_7
REMARK    4  A    between atoms: C_15  and  C_16
REMARK    5  A    between atoms: C_22  and  S_23
REMARK    6  A    between atoms: S_23  and  C_24
REMARK    7  A    between atoms: N_28  and  C_29
REMARK                            x       y       z     vdW  Elec       q    Type
REMARK                         _______ _______ _______ _____ _____    ______ ____
ROOT
ATOM      1  C   UNL     1       0.509  10.895  20.107  0.00  0.00    +0.000 A 
ATOM      2  N   UNL     1      -0.137  10.882  21.311  0.00  0.00    +0.000 NA
ATOM      3  C   UNL     1      -1.154  11.803  21.472  0.00  0.00    +0.000 A 
ATOM      4  C   UNL     1      -1.616  12.267  22.701  0.00  0.00    +0.000 A 
ATOM      5  C   UNL     1      -2.719  13.135  22.801  0.00  0.00    +0.000 A 
ATOM      6  C   UNL     1      -3.460  13.463  21.669  0.00  0.00    +0.000 A 
ATOM      7  C   UNL     1      -3.002  13.041  20.428  0.00  0.00    +0.000 A 
ATOM      8  C   UNL     1      -1.764  12.369  20.346  0.00  0.00    +0.000 A 
ATOM      9  C   UNL     1      -1.058  12.188  19.154  0.00  0.00    +0.000 A 
ATOM     10  C   UNL     1       0.333  12.028  19.331  0.00  0.00    +0.000 A 
ENDROOT
BRANCH   1  14
ATOM     11  C   UNL     1       2.409   7.314  18.550  0.00  0.00    +0.000 A 
ATOM     12  C   UNL     1       2.092   7.423  19.896  0.00  0.00    +0.000 A 
ATOM     13  C   UNL     1       1.473   8.580  20.378  0.00  0.00    +0.000 A 
ATOM     14  C   UNL     1       1.175   9.688  19.547  0.00  0.00    +0.000 A 
ATOM     15  C   UNL     1       1.569   9.580  18.209  0.00  0.00    +0.000 A 
ATOM     16  C   UNL     1       2.168   8.401  17.711  0.00  0.00    +0.000 A 
BRANCH  11  18
ATOM     17  C   UNL     1       2.103   5.057  17.926  0.00  0.00    +0.000 C 
ATOM     18  O   UNL     1       2.995   6.134  18.188  0.00  0.00    +0.000 OA
ENDBRANCH  11  18
ENDBRANCH   1  14
BRANCH   9  19
ATOM     19  C   UNL     1      -1.693  11.244  18.115  0.00  0.00    +0.000 A 
ATOM     20  C   UNL     1      -2.407  10.102  18.503  0.00  0.00    +0.000 A 
ATOM     21  C   UNL     1      -3.302   9.468  17.621  0.00  0.00    +0.000 A 
ATOM     22  C   UNL     1      -3.491   9.947  16.326  0.00  0.00    +0.000 A 
ATOM     23  C   UNL     1      -2.720  11.011  15.876  0.00  0.00    +0.000 A 
ATOM     24  C   UNL     1      -1.820  11.635  16.753  0.00  0.00    +0.000 A 
ENDBRANCH   9  19
BRANCH  10  25
ATOM     25  S   UNL     1       1.555  13.271  20.372  0.00  0.00    +0.000 S 
BRANCH  25  26
ATOM     26  C   UNL     1       2.253  14.439  19.320  0.00  0.00    +0.000 A 
ATOM     27  N   UNL     1       3.485  14.375  18.871  0.00  0.00    +0.000 NA
ATOM     28  N   UNL     1       3.716  15.530  18.189  0.00  0.00    +0.000 NA
ATOM     29  N   UNL     1       2.657  16.316  18.208  0.00  0.00    +0.000 NA
ATOM     30  N   UNL     1       1.663  15.653  18.880  0.00  0.00    +0.000 N 
BRANCH  30  31
ATOM     31  C   UNL     1       0.370  16.306  18.940  0.00  0.00    +0.000 A 
ATOM     32  C   UNL     1      -0.097  17.276  18.050  0.00  0.00    +0.000 A 
ATOM     33  C   UNL     1      -1.359  17.890  18.262  0.00  0.00    +0.000 A 
ATOM     34  C   UNL     1      -2.169  17.550  19.344  0.00  0.00    +0.000 A 
ATOM     35  C   UNL     1      -1.722  16.585  20.239  0.00  0.00    +0.000 A 
ATOM     36  C   UNL     1      -0.472  15.984  20.041  0.00  0.00    +0.000 A 
ENDBRANCH  30  31
ENDBRANCH  25  26
ENDBRANCH  10  25
TORSDOF 6
ENDMDL
MODEL 3
REMARK VINA RESULT:      -8.3      1.485      2.351
REMARK  Name = 
REMARK  7 active torsions:
REMARK  status: ('A' for Active; 'I' for Inactive)
REMARK    1  A    between atoms: C_1  and  O_2
REMARK    2  A    between atoms: O_2  and  C_3
REMARK    3  A    between atoms: C_6  and  C_7
REMARK    4  A    between atoms: C_15  and  C_16
REMARK    5  A    between atoms: C_22  and  S_23
REMARK    6  A    between atoms: S_23  and  C_24
REMARK    7  A    between atoms: N_28  and  C_29
REMARK                            x       y       z     vdW  Elec       q    Type
REMARK                         _______ _______ _______ _____ _____    ______ ____
ROOT
ATOM      1  C   UNL     1       0.433  10.708  20.330  0.00  0.00    +0.000 A 
ATOM      2  N   UNL     1      -0.252  10.558  21.502  0.00  0.00    +0.000 NA
ATOM      3  C   UNL     1      -1.291  11.443  21.723  0.00  0.00    +0.000 A 
ATOM      4  C   UNL     1      -1.802  11.767  22.977  0.00  0.00    +0.000 A 
ATOM      5  C   UNL     1      -2.923  12.605  23.129  0.00  0.00    +0.000 A 
ATOM      6  C   UNL     1      -3.630  13.041  22.013  0.00  0.00    +0.000 A 
ATOM      7  C   UNL     1      -3.124  12.760  20.751  0.00  0.00    +0.000 A 
ATOM      8  C   UNL     1      -1.871  12.117  20.643  0.00  0.00    +0.000 A 
ATOM      9  C   UNL     1      -1.123  12.073  19.464  0.00  0.00    +0.000 A 
ATOM     10  C   UNL     1       0.264  11.914  19.673  0.00  0.00    +0.000 A 
ENDROOT
BRANCH   1  14
ATOM     11  C   UNL     1       2.452   7.340  18.475  0.00  0.00    +0.000 A 
ATOM     12  C   UNL     1       2.143   7.327  19.827  0.00  0.00    +0.000 A 
ATOM     13  C   UNL     1       1.486   8.417  20.406  0.00  0.00    +0.000 A 
ATOM     14  C   UNL     1       1.139   9.577  19.670  0.00  0.00    +0.000 A 
ATOM     15  C   UNL     1       1.524   9.592  18.324  0.00  0.00    +0.000 A 
ATOM     16  C   UNL     1       2.162   8.482  17.729  0.00  0.00    +0.000 A 
BRANCH  11  18
ATOM     17  C   UNL     1       2.270   5.048  17.936  0.00  0.00    +0.000 C 
ATOM     18  O   UNL     1       3.078   6.216  18.015  0.00  0.00    +0.000 OA
ENDBRANCH  11  18
ENDBRANCH   1  14
BRANCH   9  19
ATOM     19  C   UNL     1      -1.706  11.237  18.309  0.00  0.00    +0.000 A 
ATOM     20  C   UNL     1      -2.407  10.048  18.548  0.00  0.00    +0.000 A 
ATOM     21  C   UNL     1      -3.262   9.498  17.573  0.00  0.00    +0.000 A 
ATOM     22  C   UNL     1      -3.420  10.111  16.332  0.00  0.00    +0.000 A 
ATOM     23  C   UNL     1      -2.657  11.231  16.025  0.00  0.00    +0.000 A 
ATOM     24  C   UNL     1      -1.798  11.771  16.993  0.00  0.00    +0.000 A 
ENDBRANCH   9  19
BRANCH  10  25
ATOM     25  S   UNL     1       1.429  13.056  20.883  0.00  0.00    +0.000 S 
BRANCH  25  26
ATOM     26  C   UNL     1       0.683  14.582  21.160  0.00  0.00    +0.000 A 
ATOM     27  N   UNL     1      -0.106  14.835  22.178  0.00  0.00    +0.000 NA
ATOM     28  N   UNL     1      -0.606  16.087  21.986  0.00  0.00    +0.000 NA
ATOM     29  N   UNL     1      -0.150  16.617  20.867  0.00  0.00    +0.000 NA
ATOM     30  N   UNL     1       0.723  15.719  20.311  0.00  0.00    +0.000 N 
BRANCH  30  31
ATOM     31  C   UNL     1       1.415  16.142  19.109  0.00  0.00    +0.000 A 
ATOM     32  C   UNL     1       2.623  15.623  18.637  0.00  0.00    +0.000 A 
ATOM     33  C   UNL     1       3.233  16.176  17.481  0.00  0.00    +0.000 A 
ATOM     34  C   UNL     1       2.656  17.233  16.780  0.00  0.00    +0.000 A 
ATOM     35  C   UNL     1       1.453  17.760  17.233  0.00  0.00    +0.000 A 
ATOM     36  C   UNL     1       0.852  17.227  18.380  0.00  0.00    +0.000 A 
ENDBRANCH  30  31
ENDBRANCH  25  26
ENDBRANCH  10  25
TORSDOF 6
ENDMDL
MODEL 4
REMARK VINA RESULT:      -8.2      0.912      1.440
REMARK  Name = 
REMARK  7 active torsions:
REMARK  status: ('A' for Active; 'I' for Inactive)
REMARK    1  A    between atoms: C_1  and  O_2
REMARK    2  A    between atoms: O_2  and  C_3
REMARK    3  A    between atoms: C_6  and  C_7
REMARK    4  A    between atoms: C_15  and  C_16
REMARK    5  A    between atoms: C_22  and  S_23
REMARK    6  A    between atoms: S_23  and  C_24
REMARK    7  A    between atoms: N_28  and  C_29
REMARK                            x       y       z     vdW  Elec       q    Type
REMARK                         _______ _______ _______ _____ _____    ______ ____
ROOT
ATOM      1  C   UNL     1       0.467  10.746  20.322  0.00  0.00    +0.000 A 
ATOM      2  N   UNL     1      -0.216  10.654  21.502  0.00  0.00    +0.000 NA
ATOM      3  C   UNL     1      -1.240  11.563  21.691  0.00  0.00    +0.000 A 
ATOM      4  C   UNL     1      -1.741  11.944  22.933  0.00  0.00    +0.000 A 
ATOM      5  C   UNL     1      -2.847  12.805  23.055  0.00  0.00    +0.000 A 
ATOM      6  C   UNL     1      -3.552  13.208  21.925  0.00  0.00    +0.000 A 
ATOM      7  C   UNL     1      -3.055  12.869  20.674  0.00  0.00    +0.000 A 
ATOM      8  C   UNL     1      -1.814  12.202  20.587  0.00  0.00    +0.000 A 
ATOM      9  C   UNL     1      -1.071  12.100  19.408  0.00  0.00    +0.000 A 
ATOM     10  C   UNL     1       0.315  11.927  19.618  0.00  0.00    +0.000 A 
ENDROOT
BRANCH   1  14
ATOM     11  C   UNL     1       2.512   7.402  18.452  0.00  0.00    +0.000 A 
ATOM     12  C   UNL     1       2.173   8.529  17.717  0.00  0.00    +0.000 A 
ATOM     13  C   UNL     1       1.521   9.599  18.338  0.00  0.00    +0.000 A 
ATOM     14  C   UNL     1       1.152   9.578  19.705  0.00  0.00    +0.000 A 
ATOM     15  C   UNL     1       1.445   8.402  20.405  0.00  0.00    +0.000 A 
ATOM     16  C   UNL     1       2.128   7.330  19.791  0.00  0.00    +0.000 A 
BRANCH  11  18
ATOM     17  C   UNL     1       4.463   6.761  17.285  0.00  0.00    +0.000 C 
ATOM     18  O   UNL     1       3.160   6.427  17.747  0.00  0.00    +0.000 OA
ENDBRANCH  11  18
ENDBRANCH   1  14
BRANCH   9  19
ATOM     19  C   UNL     1      -1.671  11.228  18.290  0.00  0.00    +0.000 A 
ATOM     20  C   UNL     1      -2.383  10.056  18.577  0.00  0.00    +0.000 A 
ATOM     21  C   UNL     1      -3.251   9.480  17.630  0.00  0.00    +0.000 A 
ATOM     22  C   UNL     1      -3.413  10.048  16.368  0.00  0.00    +0.000 A 
ATOM     23  C   UNL     1      -2.641  11.148  16.015  0.00  0.00    +0.000 A 
ATOM     24  C   UNL     1      -1.769  11.714  16.955  0.00  0.00    +0.000 A 
ENDBRANCH   9  19
BRANCH  10  25
ATOM     25  S   UNL     1       1.502  13.097  20.778  0.00  0.00    +0.000 S 
BRANCH  25  26
ATOM     26  C   UNL     1       1.683  14.653  20.065  0.00  0.00    +0.000 A 
ATOM     27  N   UNL     1       2.731  15.017  19.364  0.00  0.00    +0.000 NA
ATOM     28  N   UNL     1       2.579  16.342  19.087  0.00  0.00    +0.000 NA
ATOM     29  N   UNL     1       1.461  16.812  19.606  0.00  0.00    +0.000 NA
ATOM     30  N   UNL     1       0.813  15.765  20.208  0.00  0.00    +0.000 N 
BRANCH  30  31
ATOM     31  C   UNL     1      -0.494  16.044  20.770  0.00  0.00    +0.000 A 
ATOM     32  C   UNL     1      -1.644  16.363  20.043  0.00  0.00    +0.000 A 
ATOM     33  C   UNL     1      -2.849  16.685  20.720  0.00  0.00    +0.000 A 
ATOM     34  C   UNL     1      -2.932  16.689  22.111  0.00  0.00    +0.000 A 
ATOM     35  C   UNL     1      -1.799  16.372  22.851  0.00  0.00    +0.000 A 
ATOM     36  C   UNL     1      -0.603  16.065  22.189  0.00  0.00    +0.000 A 
ENDBRANCH  30  31
ENDBRANCH  25  26
ENDBRANCH  10  25
TORSDOF 6
ENDMDL
MODEL 5
REMARK VINA RESULT:      -8.2      0.998      1.553
REMARK  Name = 
REMARK  7 active torsions:
REMARK  status: ('A' for Active; 'I' for Inactive)
REMARK    1  A    between atoms: C_1  and  O_2
REMARK    2  A    between atoms: O_2  and  C_3
REMARK    3  A    between atoms: C_6  and  C_7
REMARK    4  A    between atoms: C_15  and  C_16
REMARK    5  A    between atoms: C_22  and  S_23
REMARK    6  A    between atoms: S_23  and  C_24
REMARK    7  A    between atoms: N_28  and  C_29
REMARK                            x       y       z     vdW  Elec       q    Type
REMARK                         _______ _______ _______ _____ _____    ______ ____
ROOT
ATOM      1  C   UNL     1       0.464  10.736  20.284  0.00  0.00    +0.000 A 
ATOM      2  N   UNL     1      -0.210  10.611  21.467  0.00  0.00    +0.000 NA
ATOM      3  C   UNL     1      -1.246  11.501  21.680  0.00  0.00    +0.000 A 
ATOM      4  C   UNL     1      -1.744  11.851  22.932  0.00  0.00    +0.000 A 
ATOM      5  C   UNL     1      -2.863  12.692  23.079  0.00  0.00    +0.000 A 
ATOM      6  C   UNL     1      -3.581  13.105  21.961  0.00  0.00    +0.000 A 
ATOM      7  C   UNL     1      -3.088  12.798  20.700  0.00  0.00    +0.000 A 
ATOM      8  C   UNL     1      -1.837  12.152  20.592  0.00  0.00    +0.000 A 
ATOM      9  C   UNL     1      -1.101  12.083  19.407  0.00  0.00    +0.000 A 
ATOM     10  C   UNL     1       0.288  11.928  19.604  0.00  0.00    +0.000 A 
ENDROOT
BRANCH   1  14
ATOM     11  C   UNL     1       2.458   7.328  18.477  0.00  0.00    +0.000 A 
ATOM     12  C   UNL     1       2.121   7.323  19.822  0.00  0.00    +0.000 A 
ATOM     13  C   UNL     1       1.472   8.426  20.386  0.00  0.00    +0.000 A 
ATOM     14  C   UNL     1       1.162   9.591  19.641  0.00  0.00    +0.000 A 
ATOM     15  C   UNL     1       1.575   9.597  18.304  0.00  0.00    +0.000 A 
ATOM     16  C   UNL     1       2.205   8.474  17.723  0.00  0.00    +0.000 A 
BRANCH  11  18
ATOM     17  C   UNL     1       3.824   5.474  19.002  0.00  0.00    +0.000 C 
ATOM     18  O   UNL     1       3.073   6.192  18.031  0.00  0.00    +0.000 OA
ENDBRANCH  11  18
ENDBRANCH   1  14
BRANCH   9  19
ATOM     19  C   UNL     1      -1.696  11.223  18.276  0.00  0.00    +0.000 A 
ATOM     20  C   UNL     1      -2.397  10.040  18.547  0.00  0.00    +0.000 A 
ATOM     21  C   UNL     1      -3.262   9.471  17.593  0.00  0.00    +0.000 A 
ATOM     22  C   UNL     1      -3.431  10.057  16.340  0.00  0.00    +0.000 A 
ATOM     23  C   UNL     1      -2.670  11.169  16.002  0.00  0.00    +0.000 A 
ATOM     24  C   UNL     1      -1.801  11.728  16.949  0.00  0.00    +0.000 A 
ENDBRANCH   9  19
BRANCH  10  25
ATOM     25  S   UNL     1       1.465  13.095  20.777  0.00  0.00    +0.000 S 
BRANCH  25  26
ATOM     26  C   UNL     1       1.641  14.657  20.079  0.00  0.00    +0.000 A 
ATOM     27  N   UNL     1       2.648  15.006  19.314  0.00  0.00    +0.000 NA
ATOM     28  N   UNL     1       2.513  16.339  19.069  0.00  0.00    +0.000 NA
ATOM     29  N   UNL     1       1.446  16.829  19.670  0.00  0.00    +0.000 NA
ATOM     30  N   UNL     1       0.812  15.789  20.298  0.00  0.00    +0.000 N 
BRANCH  30  31
ATOM     31  C   UNL     1      -0.446  16.092  20.952  0.00  0.00    +0.000 A 
ATOM     32  C   UNL     1      -0.678  16.062  22.329  0.00  0.00    +0.000 A 
ATOM     33  C   UNL     1      -1.979  16.313  22.838  0.00  0.00    +0.000 A 
ATOM     34  C   UNL     1      -3.054  16.600  21.999  0.00  0.00    +0.000 A 
ATOM     35  C   UNL     1      -2.841  16.638  20.626  0.00  0.00    +0.000 A 
ATOM     36  C   UNL     1      -1.562  16.380  20.117  0.00  0.00    +0.000 A 
ENDBRANCH  30  31
ENDBRANCH  25  26
ENDBRANCH  10  25
TORSDOF 6
ENDMDL
MODEL 6
REMARK VINA RESULT:      -8.2      3.613      6.601
REMARK  Name = 
REMARK  7 active torsions:
REMARK  status: ('A' for Active; 'I' for Inactive)
REMARK    1  A    between atoms: C_1  and  O_2
REMARK    2  A    between atoms: O_2  and  C_3
REMARK    3  A    between atoms: C_6  and  C_7
REMARK    4  A    between atoms: C_15  and  C_16
REMARK    5  A    between atoms: C_22  and  S_23
REMARK    6  A    between atoms: S_23  and  C_24
REMARK    7  A    between atoms: N_28  and  C_29
REMARK                            x       y       z     vdW  Elec       q    Type
REMARK                         _______ _______ _______ _____ _____    ______ ____
ROOT
ATOM      1  C   UNL     1      -4.654  12.817  20.837  0.00  0.00    +0.000 A 
ATOM      2  N   UNL     1      -5.675  12.247  21.544  0.00  0.00    +0.000 NA
ATOM      3  C   UNL     1      -6.339  13.070  22.434  0.00  0.00    +0.000 A 
ATOM      4  C   UNL     1      -7.061  12.624  23.538  0.00  0.00    +0.000 A 
ATOM      5  C   UNL     1      -7.793  13.506  24.354  0.00  0.00    +0.000 A 
ATOM      6  C   UNL     1      -7.911  14.849  24.006  0.00  0.00    +0.000 A 
ATOM      7  C   UNL     1      -7.176  15.326  22.930  0.00  0.00    +0.000 A 
ATOM      8  C   UNL     1      -6.272  14.459  22.279  0.00  0.00    +0.000 A 
ATOM      9  C   UNL     1      -5.264  14.897  21.417  0.00  0.00    +0.000 A 
ATOM     10  C   UNL     1      -4.165  14.015  21.327  0.00  0.00    +0.000 A 
ENDROOT
BRANCH   1  14
ATOM     11  C   UNL     1      -3.516  11.406  16.891  0.00  0.00    +0.000 A 
ATOM     12  C   UNL     1      -4.842  11.671  17.195  0.00  0.00    +0.000 A 
ATOM     13  C   UNL     1      -5.190  12.132  18.469  0.00  0.00    +0.000 A 
ATOM     14  C   UNL     1      -4.236  12.317  19.500  0.00  0.00    +0.000 A 
ATOM     15  C   UNL     1      -2.915  11.976  19.186  0.00  0.00    +0.000 A 
ATOM     16  C   UNL     1      -2.555  11.538  17.893  0.00  0.00    +0.000 A 
BRANCH  11  18
ATOM     17  C   UNL     1      -2.758   9.665  15.486  0.00  0.00    +0.000 C 
ATOM     18  O   UNL     1      -3.290  10.978  15.613  0.00  0.00    +0.000 OA
ENDBRANCH  11  18
ENDBRANCH   1  14
BRANCH   9  19
ATOM     19  C   UNL     1      -5.719  15.505  20.077  0.00  0.00    +0.000 A 
ATOM     20  C   UNL     1      -6.874  15.053  19.424  0.00  0.00    +0.000 A 
ATOM     21  C   UNL     1      -7.507  15.836  18.439  0.00  0.00    +0.000 A 
ATOM     22  C   UNL     1      -6.992  17.077  18.071  0.00  0.00    +0.000 A 
ATOM     23  C   UNL     1      -5.790  17.505  18.623  0.00  0.00    +0.000 A 
ATOM     24  C   UNL     1      -5.155  16.719  19.595  0.00  0.00    +0.000 A 
ENDBRANCH   9  19
BRANCH  10  25
ATOM     25  S   UNL     1      -3.104  13.265  22.888  0.00  0.00    +0.000 S 
BRANCH  25  26
ATOM     26  C   UNL     1      -1.433  13.631  22.703  0.00  0.00    +0.000 A 
ATOM     27  N   UNL     1      -0.926  14.830  22.864  0.00  0.00    +0.000 NA
ATOM     28  N   UNL     1       0.385  14.755  22.504  0.00  0.00    +0.000 NA
ATOM     29  N   UNL     1       0.704  13.535  22.115  0.00  0.00    +0.000 NA
ATOM     30  N   UNL     1      -0.410  12.750  22.265  0.00  0.00    +0.000 N 
BRANCH  30  31
ATOM     31  C   UNL     1      -0.254  11.338  21.978  0.00  0.00    +0.000 A 
ATOM     32  C   UNL     1      -0.616  10.288  22.826  0.00  0.00    +0.000 A 
ATOM     33  C   UNL     1      -0.345   8.945  22.453  0.00  0.00    +0.000 A 
ATOM     34  C   UNL     1       0.276   8.628  21.247  0.00  0.00    +0.000 A 
ATOM     35  C   UNL     1       0.641   9.659  20.390  0.00  0.00    +0.000 A 
ATOM     36  C   UNL     1       0.387  10.987  20.756  0.00  0.00    +0.000 A 
ENDBRANCH  30  31
ENDBRANCH  25  26
ENDBRANCH  10  25
TORSDOF 6
ENDMDL
MODEL 7
REMARK VINA RESULT:      -8.1      4.016      6.780
REMARK  Name = 
REMARK  7 active torsions:
REMARK  status: ('A' for Active; 'I' for Inactive)
REMARK    1  A    between atoms: C_1  and  O_2
REMARK    2  A    between atoms: O_2  and  C_3
REMARK    3  A    between atoms: C_6  and  C_7
REMARK    4  A    between atoms: C_15  and  C_16
REMARK    5  A    between atoms: C_22  and  S_23
REMARK    6  A    between atoms: S_23  and  C_24
REMARK    7  A    between atoms: N_28  and  C_29
REMARK                            x       y       z     vdW  Elec       q    Type
REMARK                         _______ _______ _______ _____ _____    ______ ____
ROOT
ATOM      1  C   UNL     1      -3.011  13.342  20.777  0.00  0.00    +0.000 A 
ATOM      2  N   UNL     1      -2.577  14.638  20.784  0.00  0.00    +0.000 NA
ATOM      3  C   UNL     1      -2.206  15.154  22.011  0.00  0.00    +0.000 A 
ATOM      4  C   UNL     1      -2.177  16.511  22.324  0.00  0.00    +0.000 A 
ATOM      5  C   UNL     1      -1.700  16.978  23.562  0.00  0.00    +0.000 A 
ATOM      6  C   UNL     1      -1.128  16.095  24.473  0.00  0.00    +0.000 A 
ATOM      7  C   UNL     1      -1.174  14.735  24.201  0.00  0.00    +0.000 A 
ATOM      8  C   UNL     1      -1.869  14.287  23.057  0.00  0.00    +0.000 A 
ATOM      9  C   UNL     1      -2.255  12.960  22.855  0.00  0.00    +0.000 A 
ATOM     10  C   UNL     1      -3.372  12.812  22.004  0.00  0.00    +0.000 A 
ENDROOT
BRANCH   1  14
ATOM     11  C   UNL     1      -2.572  10.782  17.298  0.00  0.00    +0.000 A 
ATOM     12  C   UNL     1      -1.498  11.511  17.783  0.00  0.00    +0.000 A 
ATOM     13  C   UNL     1      -1.655  12.325  18.909  0.00  0.00    +0.000 A 
ATOM     14  C   UNL     1      -2.896  12.470  19.578  0.00  0.00    +0.000 A 
ATOM     15  C   UNL     1      -3.979  11.776  19.026  0.00  0.00    +0.000 A 
ATOM     16  C   UNL     1      -3.819  10.931  17.906  0.00  0.00    +0.000 A 
BRANCH  11  18
ATOM     17  C   UNL     1      -2.980  10.367  15.008  0.00  0.00    +0.000 C 
ATOM     18  O   UNL     1      -2.299  10.008  16.204  0.00  0.00    +0.000 OA
ENDBRANCH  11  18
ENDBRANCH   1  14
BRANCH   9  19
ATOM     19  C   UNL     1      -1.123  11.942  22.623  0.00  0.00    +0.000 A 
ATOM     20  C   UNL     1      -1.248  10.604  23.023  0.00  0.00    +0.000 A 
ATOM     21  C   UNL     1      -0.420   9.602  22.482  0.00  0.00    +0.000 A 
ATOM     22  C   UNL     1       0.565   9.914  21.547  0.00  0.00    +0.000 A 
ATOM     23  C   UNL     1       0.786  11.244  21.212  0.00  0.00    +0.000 A 
ATOM     24  C   UNL     1      -0.033  12.243  21.759  0.00  0.00    +0.000 A 
ENDBRANCH   9  19
BRANCH  10  25
ATOM     25  S   UNL     1      -5.158  13.756  22.202  0.00  0.00    +0.000 S 
BRANCH  25  26
ATOM     26  C   UNL     1      -6.442  12.701  21.759  0.00  0.00    +0.000 A 
ATOM     27  N   UNL     1      -6.925  11.767  22.545  0.00  0.00    +0.000 NA
ATOM     28  N   UNL     1      -7.823  11.057  21.807  0.00  0.00    +0.000 NA
ATOM     29  N   UNL     1      -7.905  11.524  20.577  0.00  0.00    +0.000 NA
ATOM     30  N   UNL     1      -7.077  12.613  20.492  0.00  0.00    +0.000 N 
BRANCH  30  31
ATOM     31  C   UNL     1      -7.084  13.340  19.238  0.00  0.00    +0.000 A 
ATOM     32  C   UNL     1      -7.244  12.778  17.969  0.00  0.00    +0.000 A 
ATOM     33  C   UNL     1      -7.160  13.595  16.811  0.00  0.00    +0.000 A 
ATOM     34  C   UNL     1      -6.927  14.966  16.895  0.00  0.00    +0.000 A 
ATOM     35  C   UNL     1      -6.768  15.544  18.149  0.00  0.00    +0.000 A 
ATOM     36  C   UNL     1      -6.838  14.741  19.295  0.00  0.00    +0.000 A 
ENDBRANCH  30  31
ENDBRANCH  25  26
ENDBRANCH  10  25
TORSDOF 6
ENDMDL
MODEL 8
REMARK VINA RESULT:      -8.0      3.986      6.619
REMARK  Name = 
REMARK  7 active torsions:
REMARK  status: ('A' for Active; 'I' for Inactive)
REMARK    1  A    between atoms: C_1  and  O_2
REMARK    2  A    between atoms: O_2  and  C_3
REMARK    3  A    between atoms: C_6  and  C_7
REMARK    4  A    between atoms: C_15  and  C_16
REMARK    5  A    between atoms: C_22  and  S_23
REMARK    6  A    between atoms: S_23  and  C_24
REMARK    7  A    between atoms: N_28  and  C_29
REMARK                            x       y       z     vdW  Elec       q    Type
REMARK                         _______ _______ _______ _____ _____    ______ ____
ROOT
ATOM      1  C   UNL     1      -2.830  13.129  20.646  0.00  0.00    +0.000 A 
ATOM      2  N   UNL     1      -2.370  14.415  20.604  0.00  0.00    +0.000 NA
ATOM      3  C   UNL     1      -2.032  14.986  21.816  0.00  0.00    +0.000 A 
ATOM      4  C   UNL     1      -1.987  16.356  22.061  0.00  0.00    +0.000 A 
ATOM      5  C   UNL     1      -1.545  16.877  23.291  0.00  0.00    +0.000 A 
ATOM      6  C   UNL     1      -1.024  16.031  24.266  0.00  0.00    +0.000 A 
ATOM      7  C   UNL     1      -1.088  14.659  24.061  0.00  0.00    +0.000 A 
ATOM      8  C   UNL     1      -1.751  14.167  22.915  0.00  0.00    +0.000 A 
ATOM      9  C   UNL     1      -2.156  12.839  22.766  0.00  0.00    +0.000 A 
ATOM     10  C   UNL     1      -3.245  12.668  21.883  0.00  0.00    +0.000 A 
ENDROOT
BRANCH   1  14
ATOM     11  C   UNL     1      -2.503  10.450  17.244  0.00  0.00    +0.000 A 
ATOM     12  C   UNL     1      -3.724  11.005  17.597  0.00  0.00    +0.000 A 
ATOM     13  C   UNL     1      -3.809  11.871  18.691  0.00  0.00    +0.000 A 
ATOM     14  C   UNL     1      -2.690  12.195  19.496  0.00  0.00    +0.000 A 
ATOM     15  C   UNL     1      -1.485  11.568  19.159  0.00  0.00    +0.000 A 
ATOM     16  C   UNL     1      -1.387  10.714  18.038  0.00  0.00    +0.000 A 
BRANCH  11  18
ATOM     17  C   UNL     1      -3.360  10.068  15.076  0.00  0.00    +0.000 C 
ATOM     18  O   UNL     1      -2.534   9.632  16.149  0.00  0.00    +0.000 OA
ENDBRANCH  11  18
ENDBRANCH   1  14
BRANCH   9  19
ATOM     19  C   UNL     1      -1.038  11.789  22.628  0.00  0.00    +0.000 A 
ATOM     20  C   UNL     1      -1.216  10.468  23.059  0.00  0.00    +0.000 A 
ATOM     21  C   UNL     1      -0.384   9.431  22.595  0.00  0.00    +0.000 A 
ATOM     22  C   UNL     1       0.658   9.693  21.707  0.00  0.00    +0.000 A 
ATOM     23  C   UNL     1       0.928  11.007  21.345  0.00  0.00    +0.000 A 
ATOM     24  C   UNL     1       0.105  12.039  21.817  0.00  0.00    +0.000 A 
ENDBRANCH   9  19
BRANCH  10  25
ATOM     25  S   UNL     1      -5.017  13.655  21.968  0.00  0.00    +0.000 S 
BRANCH  25  26
ATOM     26  C   UNL     1      -6.273  12.681  21.309  0.00  0.00    +0.000 A 
ATOM     27  N   UNL     1      -6.760  11.616  21.903  0.00  0.00    +0.000 NA
ATOM     28  N   UNL     1      -7.628  11.039  21.026  0.00  0.00    +0.000 NA
ATOM     29  N   UNL     1      -7.688  11.718  19.897  0.00  0.00    +0.000 NA
ATOM     30  N   UNL     1      -6.876  12.815  20.031  0.00  0.00    +0.000 N 
BRANCH  30  31
ATOM     31  C   UNL     1      -6.865  13.755  18.928  0.00  0.00    +0.000 A 
ATOM     32  C   UNL     1      -6.701  15.138  19.036  0.00  0.00    +0.000 A 
ATOM     33  C   UNL     1      -6.780  15.958  17.880  0.00  0.00    +0.000 A 
ATOM     34  C   UNL     1      -7.013  15.423  16.615  0.00  0.00    +0.000 A 
ATOM     35  C   UNL     1      -7.175  14.049  16.487  0.00  0.00    +0.000 A 
ATOM     36  C   UNL     1      -7.110  13.235  17.626  0.00  0.00    +0.000 A 
ENDBRANCH  30  31
ENDBRANCH  25  26
ENDBRANCH  10  25
TORSDOF 6
ENDMDL
MODEL 9
REMARK VINA RESULT:      -8.0      1.198      1.727
REMARK  Name = 
REMARK  7 active torsions:
REMARK  status: ('A' for Active; 'I' for Inactive)
REMARK    1  A    between atoms: C_1  and  O_2
REMARK    2  A    between atoms: O_2  and  C_3
REMARK    3  A    between atoms: C_6  and  C_7
REMARK    4  A    between atoms: C_15  and  C_16
REMARK    5  A    between atoms: C_22  and  S_23
REMARK    6  A    between atoms: S_23  and  C_24
REMARK    7  A    between atoms: N_28  and  C_29
REMARK                            x       y       z     vdW  Elec       q    Type
REMARK                         _______ _______ _______ _____ _____    ______ ____
ROOT
ATOM      1  C   UNL     1      -0.314  11.438  20.655  0.00  0.00    +0.000 A 
ATOM      2  N   UNL     1      -0.970  11.247  21.839  0.00  0.00    +0.000 NA
ATOM      3  C   UNL     1      -2.092  12.025  22.050  0.00  0.00    +0.000 A 
ATOM      4  C   UNL     1      -2.624  12.326  23.302  0.00  0.00    +0.000 A 
ATOM      5  C   UNL     1      -3.824  13.047  23.446  0.00  0.00    +0.000 A 
ATOM      6  C   UNL     1      -4.582  13.380  22.327  0.00  0.00    +0.000 A 
ATOM      7  C   UNL     1      -4.060  13.121  21.067  0.00  0.00    +0.000 A 
ATOM      8  C   UNL     1      -2.749  12.608  20.961  0.00  0.00    +0.000 A 
ATOM      9  C   UNL     1      -2.010  12.612  19.775  0.00  0.00    +0.000 A 
ATOM     10  C   UNL     1      -0.612  12.603  19.972  0.00  0.00    +0.000 A 
ENDROOT
BRANCH   1  14
ATOM     11  C   UNL     1       2.015   8.248  18.850  0.00  0.00    +0.000 A 
ATOM     12  C   UNL     1       1.575   8.152  20.162  0.00  0.00    +0.000 A 
ATOM     13  C   UNL     1       0.820   9.185  20.725  0.00  0.00    +0.000 A 
ATOM     14  C   UNL     1       0.500  10.369  20.015  0.00  0.00    +0.000 A 
ATOM     15  C   UNL     1       1.014  10.469  18.718  0.00  0.00    +0.000 A 
ATOM     16  C   UNL     1       1.753   9.416  18.135  0.00  0.00    +0.000 A 
BRANCH  11  18
ATOM     17  C   UNL     1       2.619   5.988  19.179  0.00  0.00    +0.000 C 
ATOM     18  O   UNL     1       2.729   7.173  18.400  0.00  0.00    +0.000 OA
ENDBRANCH  11  18
ENDBRANCH   1  14
BRANCH   9  19
ATOM     19  C   UNL     1      -2.513  11.692  18.647  0.00  0.00    +0.000 A 
ATOM     20  C   UNL     1      -3.768  11.072  18.713  0.00  0.00    +0.000 A 
ATOM     21  C   UNL     1      -4.393  10.567  17.557  0.00  0.00    +0.000 A 
ATOM     22  C   UNL     1      -3.772  10.651  16.313  0.00  0.00    +0.000 A 
ATOM     23  C   UNL     1      -2.482  11.162  16.230  0.00  0.00    +0.000 A 
ATOM     24  C   UNL     1      -1.857  11.655  17.385  0.00  0.00    +0.000 A 
ENDBRANCH   9  19
BRANCH  10  25
ATOM     25  S   UNL     1       0.438  13.889  21.141  0.00  0.00    +0.000 S 
BRANCH  25  26
ATOM     26  C   UNL     1       1.896  14.354  20.354  0.00  0.00    +0.000 A 
ATOM     27  N   UNL     1       3.063  13.803  20.594  0.00  0.00    +0.000 NA
ATOM     28  N   UNL     1       3.987  14.518  19.893  0.00  0.00    +0.000 NA
ATOM     29  N   UNL     1       3.421  15.506  19.227  0.00  0.00    +0.000 NA
ATOM     30  N   UNL     1       2.069  15.428  19.442  0.00  0.00    +0.000 N 
BRANCH  30  31
ATOM     31  C   UNL     1       1.240  16.374  18.723  0.00  0.00    +0.000 A 
ATOM     32  C   UNL     1      -0.153  16.452  18.786  0.00  0.00    +0.000 A 
ATOM     33  C   UNL     1      -0.854  17.383  17.975  0.00  0.00    +0.000 A 
ATOM     34  C   UNL     1      -0.189  18.244  17.105  0.00  0.00    +0.000 A 
ATOM     35  C   UNL     1       1.198  18.184  17.031  0.00  0.00    +0.000 A 
ATOM     36  C   UNL     1       1.894  17.260  17.820  0.00  0.00    +0.000 A 
ENDBRANCH  30  31
ENDBRANCH  25  26
ENDBRANCH  10  25
TORSDOF 6
ENDMDL
