MODEL 1
REMARK VINA RESULT:      -8.6      0.000      0.000
REMARK  Name = 
REMARK  8 active torsions:
REMARK  status: ('A' for Active; 'I' for Inactive)
REMARK    1  A    between atoms: C_1  and  C_2
REMARK    2  A    between atoms: C_2  and  O_3
REMARK    3  A    between atoms: O_3  and  C_4
REMARK    4  A    between atoms: C_4  and  C_6
REMARK    5  A    between atoms: C_10  and  C_11
REMARK    6  A    between atoms: C_11  and  O_13
REMARK    7  A    between atoms: C_15  and  C_16
REMARK    8  A    between atoms: C_16  and  C_18
REMARK                            x       y       z     vdW  Elec       q    Type
REMARK                         _______ _______ _______ _____ _____    ______ ____
ROOT
ATOM      1  C   UNL     1       6.062   4.501  17.589  0.00  0.00    +0.000 A 
ATOM      2  N   UNL     1       5.715   3.803  18.739  0.00  0.00    +0.000 N 
ATOM      3  C   UNL     1       4.487   3.259  18.983  0.00  0.00    +0.000 A 
ATOM      4  O   UNL     1       4.247   2.584  19.980  0.00  0.00    +0.000 OA
ATOM      5  C   UNL     1       3.440   3.515  17.971  0.00  0.00    +0.000 A 
ATOM      6  C   UNL     1       3.757   4.280  16.908  0.00  0.00    +0.000 A 
ATOM      7  C   UNL     1       5.120   4.745  16.653  0.00  0.00    +0.000 A 
ATOM      8  H   UNL     1       6.445   3.637  19.426  0.00  0.00    +0.000 HD
ENDROOT
BRANCH   1   9
ATOM      9  C   UNL     1       7.525   4.798  17.428  0.00  0.00    +0.000 C 
ATOM     10  O   UNL     1       8.435   4.056  17.757  0.00  0.00    +0.000 OA
BRANCH   9  11
ATOM     11  O   UNL     1       7.641   6.132  17.145  0.00  0.00    +0.000 OA
BRANCH  11  13
ATOM     12  C   UNL     1       7.984   8.407  17.808  0.00  0.00    +0.000 C 
ATOM     13  C   UNL     1       7.827   6.974  18.292  0.00  0.00    +0.000 C 
ENDBRANCH  11  13
ENDBRANCH   9  11
ENDBRANCH   1   9
BRANCH   5  14
ATOM     14  C   UNL     1       2.078   2.948  18.060  0.00  0.00    +0.000 C 
ATOM     15  O   UNL     1       1.075   3.586  17.766  0.00  0.00    +0.000 OA
BRANCH  14  16
ATOM     16  O   UNL     1       2.020   1.658  18.448  0.00  0.00    +0.000 OA
ATOM     17  H   UNL     1       2.733   1.380  19.076  0.00  0.00    +0.000 HD
ENDBRANCH  14  16
ENDBRANCH   5  14
BRANCH   7  18
ATOM     18  C   UNL     1       5.425   5.530  15.409  0.00  0.00    +0.000 C 
ATOM     19  O   UNL     1       5.137   6.721  15.345  0.00  0.00    +0.000 OA
BRANCH  18  20
ATOM     20  C   UNL     1       5.926   4.814  14.194  0.00  0.00    +0.000 A 
ATOM     21  C   UNL     1       5.081   3.871  13.589  0.00  0.00    +0.000 A 
ATOM     22  C   UNL     1       5.536   3.089  12.522  0.00  0.00    +0.000 A 
ATOM     23  C   UNL     1       6.838   3.246  12.054  0.00  0.00    +0.000 A 
ATOM     24 CL   UNL     1       7.418   2.249  10.778  0.00  0.00    +0.000 Cl
ATOM     25  C   UNL     1       7.676   4.206  12.617  0.00  0.00    +0.000 A 
ATOM     26  C   UNL     1       7.213   5.007  13.668  0.00  0.00    +0.000 A 
ENDBRANCH  18  20
ENDBRANCH   7  18
TORSDOF 7
ENDMDL
MODEL 2
REMARK VINA RESULT:      -8.5      4.267      7.083
REMARK  Name = 
REMARK  8 active torsions:
REMARK  status: ('A' for Active; 'I' for Inactive)
REMARK    1  A    between atoms: C_1  and  C_2
REMARK    2  A    between atoms: C_2  and  O_3
REMARK    3  A    between atoms: O_3  and  C_4
REMARK    4  A    between atoms: C_4  and  C_6
REMARK    5  A    between atoms: C_10  and  C_11
REMARK    6  A    between atoms: C_11  and  O_13
REMARK    7  A    between atoms: C_15  and  C_16
REMARK    8  A    between atoms: C_16  and  C_18
REMARK                            x       y       z     vdW  Elec       q    Type
REMARK                         _______ _______ _______ _____ _____    ______ ____
ROOT
ATOM      1  C   UNL     1       4.723   4.061  18.635  0.00  0.00    +0.000 A 
ATOM      2  N   UNL     1       6.087   3.798  18.660  0.00  0.00    +0.000 N 
ATOM      3  C   UNL     1       7.066   4.720  18.427  0.00  0.00    +0.000 A 
ATOM      4  O   UNL     1       8.261   4.461  18.533  0.00  0.00    +0.000 OA
ATOM      5  C   UNL     1       6.616   6.075  18.041  0.00  0.00    +0.000 A 
ATOM      6  C   UNL     1       5.293   6.294  17.919  0.00  0.00    +0.000 A 
ATOM      7  C   UNL     1       4.293   5.291  18.285  0.00  0.00    +0.000 A 
ATOM      8  H   UNL     1       6.380   2.861  18.925  0.00  0.00    +0.000 HD
ENDROOT
BRANCH   1   9
ATOM      9  C   UNL     1       3.842   2.962  19.156  0.00  0.00    +0.000 C 
ATOM     10  O   UNL     1       3.411   2.032  18.495  0.00  0.00    +0.000 OA
BRANCH   9  11
ATOM     11  O   UNL     1       3.377   3.358  20.380  0.00  0.00    +0.000 OA
BRANCH  11  13
ATOM     12  C   UNL     1       0.999   3.474  20.634  0.00  0.00    +0.000 C 
ATOM     13  C   UNL     1       2.240   2.624  20.856  0.00  0.00    +0.000 C 
ENDBRANCH  11  13
ENDBRANCH   9  11
ENDBRANCH   1   9
BRANCH   5  14
ATOM     14  C   UNL     1       7.548   7.198  17.811  0.00  0.00    +0.000 C 
ATOM     15  O   UNL     1       7.492   7.914  16.819  0.00  0.00    +0.000 OA
BRANCH  14  16
ATOM     16  O   UNL     1       8.443   7.409  18.798  0.00  0.00    +0.000 OA
ATOM     17  H   UNL     1       9.390   7.297  18.532  0.00  0.00    +0.000 HD
ENDBRANCH  14  16
ENDBRANCH   5  14
BRANCH   7  18
ATOM     18  C   UNL     1       2.830   5.624  18.201  0.00  0.00    +0.000 C 
ATOM     19  O   UNL     1       2.069   4.903  17.562  0.00  0.00    +0.000 OA
BRANCH  18  20
ATOM     20  C   UNL     1       2.340   6.924  18.758  0.00  0.00    +0.000 A 
ATOM     21  C   UNL     1       2.057   6.988  20.131  0.00  0.00    +0.000 A 
ATOM     22  C   UNL     1       1.488   8.139  20.687  0.00  0.00    +0.000 A 
ATOM     23  C   UNL     1       1.199   9.231  19.873  0.00  0.00    +0.000 A 
ATOM     24 CL   UNL     1       0.450  10.626  20.544  0.00  0.00    +0.000 Cl
ATOM     25  C   UNL     1       1.510   9.198  18.516  0.00  0.00    +0.000 A 
ATOM     26  C   UNL     1       2.104   8.057  17.963  0.00  0.00    +0.000 A 
ENDBRANCH  18  20
ENDBRANCH   7  18
TORSDOF 7
ENDMDL
MODEL 3
REMARK VINA RESULT:      -8.2      4.200      7.007
REMARK  Name = 
REMARK  8 active torsions:
REMARK  status: ('A' for Active; 'I' for Inactive)
REMARK    1  A    between atoms: C_1  and  C_2
REMARK    2  A    between atoms: C_2  and  O_3
REMARK    3  A    between atoms: O_3  and  C_4
REMARK    4  A    between atoms: C_4  and  C_6
REMARK    5  A    between atoms: C_10  and  C_11
REMARK    6  A    between atoms: C_11  and  O_13
REMARK    7  A    between atoms: C_15  and  C_16
REMARK    8  A    between atoms: C_16  and  C_18
REMARK                            x       y       z     vdW  Elec       q    Type
REMARK                         _______ _______ _______ _____ _____    ______ ____
ROOT
ATOM      1  C   UNL     1       4.700   4.001  18.553  0.00  0.00    +0.000 A 
ATOM      2  N   UNL     1       6.069   3.772  18.609  0.00  0.00    +0.000 N 
ATOM      3  C   UNL     1       7.030   4.720  18.403  0.00  0.00    +0.000 A 
ATOM      4  O   UNL     1       8.228   4.489  18.535  0.00  0.00    +0.000 OA
ATOM      5  C   UNL     1       6.555   6.064  18.012  0.00  0.00    +0.000 A 
ATOM      6  C   UNL     1       5.230   6.251  17.861  0.00  0.00    +0.000 A 
ATOM      7  C   UNL     1       4.247   5.222  18.199  0.00  0.00    +0.000 A 
ATOM      8  H   UNL     1       6.380   2.842  18.876  0.00  0.00    +0.000 HD
ENDROOT
BRANCH   1   9
ATOM      9  C   UNL     1       3.835   2.878  19.049  0.00  0.00    +0.000 C 
ATOM     10  O   UNL     1       3.371   1.988  18.356  0.00  0.00    +0.000 OA
BRANCH   9  11
ATOM     11  O   UNL     1       3.424   3.207  20.311  0.00  0.00    +0.000 OA
BRANCH  11  13
ATOM     12  C   UNL     1       1.063   3.493  20.589  0.00  0.00    +0.000 C 
ATOM     13  C   UNL     1       2.233   2.536  20.749  0.00  0.00    +0.000 C 
ENDBRANCH  11  13
ENDBRANCH   9  11
ENDBRANCH   1   9
BRANCH   5  14
ATOM     14  C   UNL     1       7.464   7.212  17.809  0.00  0.00    +0.000 C 
ATOM     15  O   UNL     1       7.351   7.990  16.870  0.00  0.00    +0.000 OA
BRANCH  14  16
ATOM     16  O   UNL     1       8.407   7.369  18.761  0.00  0.00    +0.000 OA
ATOM     17  H   UNL     1       8.707   6.531  19.192  0.00  0.00    +0.000 HD
ENDBRANCH  14  16
ENDBRANCH   5  14
BRANCH   7  18
ATOM     18  C   UNL     1       2.779   5.519  18.083  0.00  0.00    +0.000 C 
ATOM     19  O   UNL     1       2.058   4.803  17.395  0.00  0.00    +0.000 OA
BRANCH  18  20
ATOM     20  C   UNL     1       2.237   6.784  18.672  0.00  0.00    +0.000 A 
ATOM     21  C   UNL     1       2.022   7.872  17.813  0.00  0.00    +0.000 A 
ATOM     22  C   UNL     1       1.626   9.114  18.323  0.00  0.00    +0.000 A 
ATOM     23  C   UNL     1       1.443   9.272  19.694  0.00  0.00    +0.000 A 
ATOM     24 CL   UNL     1       1.009  10.811  20.330  0.00  0.00    +0.000 Cl
ATOM     25  C   UNL     1       1.613   8.191  20.556  0.00  0.00    +0.000 A 
ATOM     26  C   UNL     1       1.984   6.942  20.044  0.00  0.00    +0.000 A 
ENDBRANCH  18  20
ENDBRANCH   7  18
TORSDOF 7
ENDMDL
MODEL 4
REMARK VINA RESULT:      -8.0      4.246      7.148
REMARK  Name = 
REMARK  8 active torsions:
REMARK  status: ('A' for Active; 'I' for Inactive)
REMARK    1  A    between atoms: C_1  and  C_2
REMARK    2  A    between atoms: C_2  and  O_3
REMARK    3  A    between atoms: O_3  and  C_4
REMARK    4  A    between atoms: C_4  and  C_6
REMARK    5  A    between atoms: C_10  and  C_11
REMARK    6  A    between atoms: C_11  and  O_13
REMARK    7  A    between atoms: C_15  and  C_16
REMARK    8  A    between atoms: C_16  and  C_18
REMARK                            x       y       z     vdW  Elec       q    Type
REMARK                         _______ _______ _______ _____ _____    ______ ____
ROOT
ATOM      1  C   UNL     1       4.267   4.348  18.966  0.00  0.00    +0.000 A 
ATOM      2  N   UNL     1       5.601   3.963  18.938  0.00  0.00    +0.000 N 
ATOM      3  C   UNL     1       6.596   4.638  18.293  0.00  0.00    +0.000 A 
ATOM      4  O   UNL     1       7.775   4.302  18.357  0.00  0.00    +0.000 OA
ATOM      5  C   UNL     1       6.186   5.820  17.504  0.00  0.00    +0.000 A 
ATOM      6  C   UNL     1       4.876   6.126  17.454  0.00  0.00    +0.000 A 
ATOM      7  C   UNL     1       3.873   5.423  18.253  0.00  0.00    +0.000 A 
ATOM      8  H   UNL     1       5.867   3.147  19.483  0.00  0.00    +0.000 HD
ENDROOT
BRANCH   1   9
ATOM      9  C   UNL     1       3.396   3.595  19.930  0.00  0.00    +0.000 C 
ATOM     10  O   UNL     1       2.950   4.043  20.973  0.00  0.00    +0.000 OA
BRANCH   9  11
ATOM     11  O   UNL     1       3.456   2.272  19.587  0.00  0.00    +0.000 OA
BRANCH  11  13
ATOM     12  C   UNL     1       1.189   2.127  18.829  0.00  0.00    +0.000 C 
ATOM     13  C   UNL     1       2.648   1.907  18.460  0.00  0.00    +0.000 C 
ENDBRANCH  11  13
ENDBRANCH   9  11
ENDBRANCH   1   9
BRANCH   5  14
ATOM     14  C   UNL     1       7.149   6.690  16.796  0.00  0.00    +0.000 C 
ATOM     15  O   UNL     1       7.420   7.823  17.173  0.00  0.00    +0.000 OA
BRANCH  14  16
ATOM     16  O   UNL     1       7.746   6.128  15.725  0.00  0.00    +0.000 OA
ATOM     17  H   UNL     1       7.487   5.189  15.549  0.00  0.00    +0.000 HD
ENDBRANCH  14  16
ENDBRANCH   5  14
BRANCH   7  18
ATOM     18  C   UNL     1       2.437   5.864  18.212  0.00  0.00    +0.000 C 
ATOM     19  O   UNL     1       1.601   5.188  17.619  0.00  0.00    +0.000 OA
BRANCH  18  20
ATOM     20  C   UNL     1       2.066   7.210  18.753  0.00  0.00    +0.000 A 
ATOM     21  C   UNL     1       1.818   7.322  20.129  0.00  0.00    +0.000 A 
ATOM     22  C   UNL     1       1.357   8.526  20.673  0.00  0.00    +0.000 A 
ATOM     23  C   UNL     1       1.142   9.623  19.844  0.00  0.00    +0.000 A 
ATOM     24 CL   UNL     1       0.524  11.087  20.501  0.00  0.00    +0.000 Cl
ATOM     25  C   UNL     1       1.422   9.540  18.482  0.00  0.00    +0.000 A 
ATOM     26  C   UNL     1       1.908   8.344  17.940  0.00  0.00    +0.000 A 
ENDBRANCH  18  20
ENDBRANCH   7  18
TORSDOF 7
ENDMDL
MODEL 5
REMARK VINA RESULT:      -7.9      4.168      7.147
REMARK  Name = 
REMARK  8 active torsions:
REMARK  status: ('A' for Active; 'I' for Inactive)
REMARK    1  A    between atoms: C_1  and  C_2
REMARK    2  A    between atoms: C_2  and  O_3
REMARK    3  A    between atoms: O_3  and  C_4
REMARK    4  A    between atoms: C_4  and  C_6
REMARK    5  A    between atoms: C_10  and  C_11
REMARK    6  A    between atoms: C_11  and  O_13
REMARK    7  A    between atoms: C_15  and  C_16
REMARK    8  A    between atoms: C_16  and  C_18
REMARK                            x       y       z     vdW  Elec       q    Type
REMARK                         _______ _______ _______ _____ _____    ______ ____
ROOT
ATOM      1  C   UNL     1       3.411   4.425  17.503  0.00  0.00    +0.000 A 
ATOM      2  N   UNL     1       4.330   3.999  16.552  0.00  0.00    +0.000 N 
ATOM      3  C   UNL     1       5.680   4.178  16.633  0.00  0.00    +0.000 A 
ATOM      4  O   UNL     1       6.461   3.718  15.805  0.00  0.00    +0.000 OA
ATOM      5  C   UNL     1       6.172   4.958  17.788  0.00  0.00    +0.000 A 
ATOM      6  C   UNL     1       5.266   5.455  18.652  0.00  0.00    +0.000 A 
ATOM      7  C   UNL     1       3.841   5.139  18.565  0.00  0.00    +0.000 A 
ATOM      8  H   UNL     1       3.975   3.466  15.762  0.00  0.00    +0.000 HD
ENDROOT
BRANCH   1   9
ATOM      9  C   UNL     1       2.011   3.911  17.328  0.00  0.00    +0.000 C 
ATOM     10  O   UNL     1       0.998   4.586  17.408  0.00  0.00    +0.000 OA
BRANCH   9  11
ATOM     11  O   UNL     1       2.070   2.545  17.373  0.00  0.00    +0.000 OA
BRANCH  11  13
ATOM     12  C   UNL     1       3.563   1.289  18.761  0.00  0.00    +0.000 C 
ATOM     13  C   UNL     1       2.217   1.994  18.690  0.00  0.00    +0.000 C 
ENDBRANCH  11  13
ENDBRANCH   9  11
ENDBRANCH   1   9
BRANCH   5  14
ATOM     14  C   UNL     1       7.609   5.191  18.050  0.00  0.00    +0.000 C 
ATOM     15  O   UNL     1       8.042   6.257  18.470  0.00  0.00    +0.000 OA
BRANCH  14  16
ATOM     16  O   UNL     1       8.408   4.126  17.834  0.00  0.00    +0.000 OA
ATOM     17  H   UNL     1       8.979   3.872  18.602  0.00  0.00    +0.000 HD
ENDBRANCH  14  16
ENDBRANCH   5  14
BRANCH   7  18
ATOM     18  C   UNL     1       2.891   5.661  19.604  0.00  0.00    +0.000 C 
ATOM     19  O   UNL     1       2.466   4.915  20.482  0.00  0.00    +0.000 OA
BRANCH  18  20
ATOM     20  C   UNL     1       2.339   7.046  19.466  0.00  0.00    +0.000 A 
ATOM     21  C   UNL     1       1.705   7.617  20.580  0.00  0.00    +0.000 A 
ATOM     22  C   UNL     1       1.070   8.860  20.477  0.00  0.00    +0.000 A 
ATOM     23  C   UNL     1       1.066   9.536  19.260  0.00  0.00    +0.000 A 
ATOM     24 CL   UNL     1       0.241  11.039  19.116  0.00  0.00    +0.000 Cl
ATOM     25  C   UNL     1       1.726   9.001  18.156  0.00  0.00    +0.000 A 
ATOM     26  C   UNL     1       2.384   7.771  18.265  0.00  0.00    +0.000 A 
ENDBRANCH  18  20
ENDBRANCH   7  18
TORSDOF 7
ENDMDL
MODEL 6
REMARK VINA RESULT:      -7.9      4.390      7.359
REMARK  Name = 
REMARK  8 active torsions:
REMARK  status: ('A' for Active; 'I' for Inactive)
REMARK    1  A    between atoms: C_1  and  C_2
REMARK    2  A    between atoms: C_2  and  O_3
REMARK    3  A    between atoms: O_3  and  C_4
REMARK    4  A    between atoms: C_4  and  C_6
REMARK    5  A    between atoms: C_10  and  C_11
REMARK    6  A    between atoms: C_11  and  O_13
REMARK    7  A    between atoms: C_15  and  C_16
REMARK    8  A    between atoms: C_16  and  C_18
REMARK                            x       y       z     vdW  Elec       q    Type
REMARK                         _______ _______ _______ _____ _____    ______ ____
ROOT
ATOM      1  C   UNL     1       3.364   4.656  17.630  0.00  0.00    +0.000 A 
ATOM      2  N   UNL     1       4.277   4.213  16.681  0.00  0.00    +0.000 N 
ATOM      3  C   UNL     1       5.561   4.658  16.564  0.00  0.00    +0.000 A 
ATOM      4  O   UNL     1       6.357   4.184  15.758  0.00  0.00    +0.000 OA
ATOM      5  C   UNL     1       5.964   5.753  17.472  0.00  0.00    +0.000 A 
ATOM      6  C   UNL     1       5.041   6.247  18.320  0.00  0.00    +0.000 A 
ATOM      7  C   UNL     1       3.712   5.654  18.468  0.00  0.00    +0.000 A 
ATOM      8  H   UNL     1       3.984   3.461  16.062  0.00  0.00    +0.000 HD
ENDROOT
BRANCH   1   9
ATOM      9  C   UNL     1       2.094   3.860  17.729  0.00  0.00    +0.000 C 
ATOM     10  O   UNL     1       0.996   4.235  17.353  0.00  0.00    +0.000 OA
BRANCH   9  11
ATOM     11  O   UNL     1       2.337   2.809  18.571  0.00  0.00    +0.000 OA
BRANCH  11  13
ATOM     12  C   UNL     1       1.323   2.583  20.729  0.00  0.00    +0.000 C 
ATOM     13  C   UNL     1       1.176   2.297  19.242  0.00  0.00    +0.000 C 
ENDBRANCH  11  13
ENDBRANCH   9  11
ENDBRANCH   1   9
BRANCH   5  14
ATOM     14  C   UNL     1       7.334   6.306  17.510  0.00  0.00    +0.000 C 
ATOM     15  O   UNL     1       7.991   6.381  18.540  0.00  0.00    +0.000 OA
BRANCH  14  16
ATOM     16  O   UNL     1       7.829   6.685  16.314  0.00  0.00    +0.000 OA
ATOM     17  H   UNL     1       8.806   6.847  16.300  0.00  0.00    +0.000 HD
ENDBRANCH  14  16
ENDBRANCH   5  14
BRANCH   7  18
ATOM     18  C   UNL     1       2.755   6.203  19.487  0.00  0.00    +0.000 C 
ATOM     19  O   UNL     1       2.370   5.497  20.415  0.00  0.00    +0.000 OA
BRANCH  18  20
ATOM     20  C   UNL     1       2.146   7.553  19.270  0.00  0.00    +0.000 A 
ATOM     21  C   UNL     1       1.556   8.194  20.370  0.00  0.00    +0.000 A 
ATOM     22  C   UNL     1       0.871   9.404  20.206  0.00  0.00    +0.000 A 
ATOM     23  C   UNL     1       0.773   9.977  18.941  0.00  0.00    +0.000 A 
ATOM     24 CL   UNL     1      -0.114  11.436  18.726  0.00  0.00    +0.000 Cl
ATOM     25  C   UNL     1       1.388   9.374  17.846  0.00  0.00    +0.000 A 
ATOM     26  C   UNL     1       2.095   8.178  18.014  0.00  0.00    +0.000 A 
ENDBRANCH  18  20
ENDBRANCH   7  18
TORSDOF 7
ENDMDL
MODEL 7
REMARK VINA RESULT:      -7.7      4.312      7.312
REMARK  Name = 
REMARK  8 active torsions:
REMARK  status: ('A' for Active; 'I' for Inactive)
REMARK    1  A    between atoms: C_1  and  C_2
REMARK    2  A    between atoms: C_2  and  O_3
REMARK    3  A    between atoms: O_3  and  C_4
REMARK    4  A    between atoms: C_4  and  C_6
REMARK    5  A    between atoms: C_10  and  C_11
REMARK    6  A    between atoms: C_11  and  O_13
REMARK    7  A    between atoms: C_15  and  C_16
REMARK    8  A    between atoms: C_16  and  C_18
REMARK                            x       y       z     vdW  Elec       q    Type
REMARK                         _______ _______ _______ _____ _____    ______ ____
ROOT
ATOM      1  C   UNL     1       3.303   4.541  17.653  0.00  0.00    +0.000 A 
ATOM      2  N   UNL     1       4.108   4.099  16.611  0.00  0.00    +0.000 N 
ATOM      3  C   UNL     1       5.374   4.540  16.360  0.00  0.00    +0.000 A 
ATOM      4  O   UNL     1       6.078   4.067  15.472  0.00  0.00    +0.000 OA
ATOM      5  C   UNL     1       5.877   5.628  17.226  0.00  0.00    +0.000 A 
ATOM      6  C   UNL     1       5.052   6.121  18.169  0.00  0.00    +0.000 A 
ATOM      7  C   UNL     1       3.743   5.533  18.455  0.00  0.00    +0.000 A 
ATOM      8  H   UNL     1       3.747   3.352  16.023  0.00  0.00    +0.000 HD
ENDROOT
BRANCH   1   9
ATOM      9  C   UNL     1       2.047   3.750  17.883  0.00  0.00    +0.000 C 
ATOM     10  O   UNL     1       0.935   4.065  17.494  0.00  0.00    +0.000 OA
BRANCH   9  11
ATOM     11  O   UNL     1       2.325   2.812  18.840  0.00  0.00    +0.000 OA
BRANCH  11  13
ATOM     12  C   UNL     1       1.495   2.554  21.071  0.00  0.00    +0.000 C 
ATOM     13  C   UNL     1       1.188   2.367  19.593  0.00  0.00    +0.000 C 
ENDBRANCH  11  13
ENDBRANCH   9  11
ENDBRANCH   1   9
BRANCH   5  14
ATOM     14  C   UNL     1       7.246   6.175  17.120  0.00  0.00    +0.000 C 
ATOM     15  O   UNL     1       7.895   6.530  18.096  0.00  0.00    +0.000 OA
BRANCH  14  16
ATOM     16  O   UNL     1       7.750   6.215  15.870  0.00  0.00    +0.000 OA
ATOM     17  H   UNL     1       8.737   6.254  15.820  0.00  0.00    +0.000 HD
ENDBRANCH  14  16
ENDBRANCH   5  14
BRANCH   7  18
ATOM     18  C   UNL     1       2.902   6.080  19.573  0.00  0.00    +0.000 C 
ATOM     19  O   UNL     1       2.707   5.410  20.583  0.00  0.00    +0.000 OA
BRANCH  18  20
ATOM     20  C   UNL     1       2.170   7.372  19.377  0.00  0.00    +0.000 A 
ATOM     21  C   UNL     1       2.194   7.956  18.102  0.00  0.00    +0.000 A 
ATOM     22  C   UNL     1       1.627   9.217  17.887  0.00  0.00    +0.000 A 
ATOM     23  C   UNL     1       1.033   9.899  18.946  0.00  0.00    +0.000 A 
ATOM     24 CL   UNL     1       0.382  11.472  18.697  0.00  0.00    +0.000 Cl
ATOM     25  C   UNL     1       0.965   9.314  20.208  0.00  0.00    +0.000 A 
ATOM     26  C   UNL     1       1.509   8.042  20.419  0.00  0.00    +0.000 A 
ENDBRANCH  18  20
ENDBRANCH   7  18
TORSDOF 7
ENDMDL
MODEL 8
REMARK VINA RESULT:      -7.7      3.935      7.034
REMARK  Name = 
REMARK  8 active torsions:
REMARK  status: ('A' for Active; 'I' for Inactive)
REMARK    1  A    between atoms: C_1  and  C_2
REMARK    2  A    between atoms: C_2  and  O_3
REMARK    3  A    between atoms: O_3  and  C_4
REMARK    4  A    between atoms: C_4  and  C_6
REMARK    5  A    between atoms: C_10  and  C_11
REMARK    6  A    between atoms: C_11  and  O_13
REMARK    7  A    between atoms: C_15  and  C_16
REMARK    8  A    between atoms: C_16  and  C_18
REMARK                            x       y       z     vdW  Elec       q    Type
REMARK                         _______ _______ _______ _____ _____    ______ ____
ROOT
ATOM      1  C   UNL     1       4.640   4.058  18.261  0.00  0.00    +0.000 A 
ATOM      2  N   UNL     1       5.741   3.836  17.444  0.00  0.00    +0.000 N 
ATOM      3  C   UNL     1       6.778   4.708  17.275  0.00  0.00    +0.000 A 
ATOM      4  O   UNL     1       7.767   4.439  16.601  0.00  0.00    +0.000 OA
ATOM      5  C   UNL     1       6.658   6.013  17.959  0.00  0.00    +0.000 A 
ATOM      6  C   UNL     1       5.539   6.260  18.667  0.00  0.00    +0.000 A 
ATOM      7  C   UNL     1       4.513   5.243  18.894  0.00  0.00    +0.000 A 
ATOM      8  H   UNL     1       5.807   2.935  16.979  0.00  0.00    +0.000 HD
ENDROOT
BRANCH   1   9
ATOM      9  C   UNL     1       3.748   2.870  18.482  0.00  0.00    +0.000 C 
ATOM     10  O   UNL     1       3.972   1.956  19.258  0.00  0.00    +0.000 OA
BRANCH   9  11
ATOM     11  O   UNL     1       2.834   2.851  17.465  0.00  0.00    +0.000 OA
BRANCH  11  13
ATOM     12  C   UNL     1       0.851   2.497  18.759  0.00  0.00    +0.000 C 
ATOM     13  C   UNL     1       1.561   3.429  17.790  0.00  0.00    +0.000 C 
ENDBRANCH  11  13
ENDBRANCH   9  11
ENDBRANCH   1   9
BRANCH   5  14
ATOM     14  C   UNL     1       7.719   7.042  17.922  0.00  0.00    +0.000 C 
ATOM     15  O   UNL     1       7.849   7.827  16.992  0.00  0.00    +0.000 OA
BRANCH  14  16
ATOM     16  O   UNL     1       8.512   7.084  19.013  0.00  0.00    +0.000 OA
ATOM     17  H   UNL     1       8.347   7.849  19.618  0.00  0.00    +0.000 HD
ENDBRANCH  14  16
ENDBRANCH   5  14
BRANCH   7  18
ATOM     18  C   UNL     1       3.325   5.555  19.759  0.00  0.00    +0.000 C 
ATOM     19  O   UNL     1       2.930   4.737  20.584  0.00  0.00    +0.000 OA
BRANCH  18  20
ATOM     20  C   UNL     1       2.529   6.795  19.492  0.00  0.00    +0.000 A 
ATOM     21  C   UNL     1       2.497   7.289  18.179  0.00  0.00    +0.000 A 
ATOM     22  C   UNL     1       1.866   8.504  17.891  0.00  0.00    +0.000 A 
ATOM     23  C   UNL     1       1.264   9.231  18.915  0.00  0.00    +0.000 A 
ATOM     24 CL   UNL     1       0.534  10.751  18.573  0.00  0.00    +0.000 Cl
ATOM     25  C   UNL     1       1.251   8.734  20.216  0.00  0.00    +0.000 A 
ATOM     26  C   UNL     1       1.859   7.506  20.501  0.00  0.00    +0.000 A 
ENDBRANCH  18  20
ENDBRANCH   7  18
TORSDOF 7
ENDMDL
MODEL 9
REMARK VINA RESULT:      -7.6      3.614      5.774
REMARK  Name = 
REMARK  8 active torsions:
REMARK  status: ('A' for Active; 'I' for Inactive)
REMARK    1  A    between atoms: C_1  and  C_2
REMARK    2  A    between atoms: C_2  and  O_3
REMARK    3  A    between atoms: O_3  and  C_4
REMARK    4  A    between atoms: C_4  and  C_6
REMARK    5  A    between atoms: C_10  and  C_11
REMARK    6  A    between atoms: C_11  and  O_13
REMARK    7  A    between atoms: C_15  and  C_16
REMARK    8  A    between atoms: C_16  and  C_18
REMARK                            x       y       z     vdW  Elec       q    Type
REMARK                         _______ _______ _______ _____ _____    ______ ____
ROOT
ATOM      1  C   UNL     1       6.979   5.484  16.342  0.00  0.00    +0.000 A 
ATOM      2  N   UNL     1       7.696   5.555  15.155  0.00  0.00    +0.000 N 
ATOM      3  C   UNL     1       7.318   4.977  13.978  0.00  0.00    +0.000 A 
ATOM      4  O   UNL     1       7.945   5.128  12.933  0.00  0.00    +0.000 OA
ATOM      5  C   UNL     1       6.092   4.152  14.013  0.00  0.00    +0.000 A 
ATOM      6  C   UNL     1       5.458   4.005  15.192  0.00  0.00    +0.000 A 
ATOM      7  C   UNL     1       5.857   4.736  16.395  0.00  0.00    +0.000 A 
ATOM      8  H   UNL     1       8.538   6.124  15.148  0.00  0.00    +0.000 HD
ENDROOT
BRANCH   1   9
ATOM      9  C   UNL     1       7.455   6.390  17.442  0.00  0.00    +0.000 C 
ATOM     10  O   UNL     1       7.404   6.138  18.634  0.00  0.00    +0.000 OA
BRANCH   9  11
ATOM     11  O   UNL     1       7.656   7.627  16.892  0.00  0.00    +0.000 OA
BRANCH  11  13
ATOM     12  C   UNL     1       8.548   9.456  18.155  0.00  0.00    +0.000 C 
ATOM     13  C   UNL     1       7.282   8.726  17.735  0.00  0.00    +0.000 C 
ENDBRANCH  11  13
ENDBRANCH   9  11
ENDBRANCH   1   9
BRANCH   5  14
ATOM     14  C   UNL     1       5.520   3.507  12.812  0.00  0.00    +0.000 C 
ATOM     15  O   UNL     1       4.385   3.738  12.413  0.00  0.00    +0.000 OA
BRANCH  14  16
ATOM     16  O   UNL     1       6.355   2.675  12.158  0.00  0.00    +0.000 OA
ATOM     17  H   UNL     1       7.309   2.938  12.182  0.00  0.00    +0.000 HD
ENDBRANCH  14  16
ENDBRANCH   5  14
BRANCH   7  18
ATOM     18  C   UNL     1       5.062   4.589  17.661  0.00  0.00    +0.000 C 
ATOM     19  O   UNL     1       5.137   3.557  18.321  0.00  0.00    +0.000 OA
BRANCH  18  20
ATOM     20  C   UNL     1       4.054   5.637  18.021  0.00  0.00    +0.000 A 
ATOM     21  C   UNL     1       3.967   6.775  17.206  0.00  0.00    +0.000 A 
ATOM     22  C   UNL     1       3.127   7.838  17.556  0.00  0.00    +0.000 A 
ATOM     23  C   UNL     1       2.371   7.767  18.723  0.00  0.00    +0.000 A 
ATOM     24 CL   UNL     1       1.378   9.095  19.184  0.00  0.00    +0.000 Cl
ATOM     25  C   UNL     1       2.416   6.627  19.522  0.00  0.00    +0.000 A 
ATOM     26  C   UNL     1       3.236   5.552  19.159  0.00  0.00    +0.000 A 
ENDBRANCH  18  20
ENDBRANCH   7  18
TORSDOF 7
ENDMDL
