MODEL 1
REMARK VINA RESULT:      -7.4      0.000      0.000
REMARK  Name = 
REMARK  5 active torsions:
REMARK  status: ('A' for Active; 'I' for Inactive)
REMARK    1  A    between atoms: C_1  and  O_2
REMARK    2  A    between atoms: O_2  and  C_3
REMARK    3  A    between atoms: N_12  and  C_13
REMARK    4  A    between atoms: C_28  and  O_29
REMARK    5  A    between atoms: O_29  and  C_30
REMARK                            x       y       z     vdW  Elec       q    Type
REMARK                         _______ _______ _______ _____ _____    ______ ____
ROOT
ATOM      1  C   UNL     1       2.805   4.271  20.528  0.00  0.00    +0.000 A 
ATOM      2  C   UNL     1       1.844   5.213  20.932  0.00  0.00    +0.000 A 
ATOM      3  C   UNL     1       1.789   6.437  20.264  0.00  0.00    +0.000 A 
ATOM      4  N   UNL     1       0.939   7.496  20.447  0.00  0.00    +0.000 N 
ATOM      5  C   UNL     1       1.264   8.542  19.622  0.00  0.00    +0.000 A 
ATOM      6  C   UNL     1       0.719   9.816  19.466  0.00  0.00    +0.000 A 
ATOM      7  N   UNL     1      -0.286  10.357  20.230  0.00  0.00    +0.000 N 
ATOM      8  C   UNL     1      -0.650   9.914  21.580  0.00  0.00    +0.000 C 
ATOM      9  C   UNL     1      -1.034  11.114  22.482  0.00  0.00    +0.000 C 
ATOM     10  N   UNL     1      -2.029  11.951  21.799  0.00  0.00    +0.000 N 
ATOM     11  C   UNL     1      -1.590  12.445  20.480  0.00  0.00    +0.000 C 
ATOM     12  C   UNL     1      -1.250  11.251  19.566  0.00  0.00    +0.000 C 
ATOM     13  N   UNL     1       1.265  10.566  18.479  0.00  0.00    +0.000 NA
ATOM     14  C   UNL     1       2.292  10.076  17.763  0.00  0.00    +0.000 A 
ATOM     15  N   UNL     1       2.875   8.877  17.871  0.00  0.00    +0.000 NA
ATOM     16  C   UNL     1       2.318   8.107  18.830  0.00  0.00    +0.000 A 
ATOM     17  C   UNL     1       2.654   6.779  19.230  0.00  0.00    +0.000 A 
ATOM     18  C   UNL     1       3.606   5.826  18.825  0.00  0.00    +0.000 A 
ATOM     19  C   UNL     1       3.684   4.575  19.471  0.00  0.00    +0.000 A 
ATOM     20  H   UNL     1       0.173   7.496  21.099  0.00  0.00    +0.000 HD
ENDROOT
BRANCH  10  21
ATOM     21  C   UNL     1      -3.120  12.484  22.444  0.00  0.00    +0.000 A 
ATOM     22  C   UNL     1      -3.373  12.254  23.804  0.00  0.00    +0.000 A 
ATOM     23  C   UNL     1      -4.523  12.747  24.430  0.00  0.00    +0.000 A 
ATOM     24  C   UNL     1      -5.448  13.479  23.695  0.00  0.00    +0.000 A 
ATOM     25 CL   UNL     1      -6.879  14.059  24.449  0.00  0.00    +0.000 Cl
ATOM     26  C   UNL     1      -5.222  13.734  22.347  0.00  0.00    +0.000 A 
ATOM     27  C   UNL     1      -4.067  13.242  21.736  0.00  0.00    +0.000 A 
ENDBRANCH  10  21
BRANCH   1  29
ATOM     28  C   UNL     1       1.761   2.502  21.746  0.00  0.00    +0.000 C 
ATOM     29  O   UNL     1       2.936   3.068  21.175  0.00  0.00    +0.000 OA
ENDBRANCH   1  29
BRANCH  19  30
ATOM     30  O   UNL     1       4.667   3.785  18.928  0.00  0.00    +0.000 OA
ATOM     31  C   UNL     1       5.813   4.404  18.367  0.00  0.00    +0.000 C 
ENDBRANCH  19  30
TORSDOF 3
ENDMDL
MODEL 2
REMARK VINA RESULT:      -6.9      0.611      1.073
REMARK  Name = 
REMARK  5 active torsions:
REMARK  status: ('A' for Active; 'I' for Inactive)
REMARK    1  A    between atoms: C_1  and  O_2
REMARK    2  A    between atoms: O_2  and  C_3
REMARK    3  A    between atoms: N_12  and  C_13
REMARK    4  A    between atoms: C_28  and  O_29
REMARK    5  A    between atoms: O_29  and  C_30
REMARK                            x       y       z     vdW  Elec       q    Type
REMARK                         _______ _______ _______ _____ _____    ______ ____
ROOT
ATOM      1  C   UNL     1       2.681   4.055  20.685  0.00  0.00    +0.000 A 
ATOM      2  C   UNL     1       1.760   5.057  21.035  0.00  0.00    +0.000 A 
ATOM      3  C   UNL     1       1.768   6.252  20.315  0.00  0.00    +0.000 A 
ATOM      4  N   UNL     1       0.966   7.355  20.440  0.00  0.00    +0.000 N 
ATOM      5  C   UNL     1       1.348   8.349  19.576  0.00  0.00    +0.000 A 
ATOM      6  C   UNL     1       0.863   9.638  19.359  0.00  0.00    +0.000 A 
ATOM      7  N   UNL     1      -0.124  10.256  20.085  0.00  0.00    +0.000 N 
ATOM      8  C   UNL     1      -0.524   9.890  21.447  0.00  0.00    +0.000 C 
ATOM      9  C   UNL     1      -0.863  11.144  22.291  0.00  0.00    +0.000 C 
ATOM     10  N   UNL     1      -1.810  11.994  21.560  0.00  0.00    +0.000 N 
ATOM     11  C   UNL     1      -1.334  12.411  20.227  0.00  0.00    +0.000 C 
ATOM     12  C   UNL     1      -1.039  11.164  19.370  0.00  0.00    +0.000 C 
ATOM     13  N   UNL     1       1.454  10.319  18.348  0.00  0.00    +0.000 NA
ATOM     14  C   UNL     1       2.467   9.752  17.668  0.00  0.00    +0.000 A 
ATOM     15  N   UNL     1       2.993   8.533  17.834  0.00  0.00    +0.000 NA
ATOM     16  C   UNL     1       2.389   7.832  18.818  0.00  0.00    +0.000 A 
ATOM     17  C   UNL     1       2.660   6.509  19.279  0.00  0.00    +0.000 A 
ATOM     18  C   UNL     1       3.572   5.498  18.929  0.00  0.00    +0.000 A 
ATOM     19  C   UNL     1       3.585   4.273  19.628  0.00  0.00    +0.000 A 
ATOM     20  H   UNL     1       0.192   7.418  21.082  0.00  0.00    +0.000 HD
ENDROOT
BRANCH  10  21
ATOM     21  C   UNL     1      -2.884  12.604  22.167  0.00  0.00    +0.000 A 
ATOM     22  C   UNL     1      -3.687  13.543  21.503  0.00  0.00    +0.000 A 
ATOM     23  C   UNL     1      -4.733  14.205  22.154  0.00  0.00    +0.000 A 
ATOM     24  C   UNL     1      -4.988  13.939  23.495  0.00  0.00    +0.000 A 
ATOM     25 CL   UNL     1      -6.249  14.775  24.310  0.00  0.00    +0.000 Cl
ATOM     26  C   UNL     1      -4.217  13.007  24.179  0.00  0.00    +0.000 A 
ATOM     27  C   UNL     1      -3.181  12.348  23.515  0.00  0.00    +0.000 A 
ENDBRANCH  10  21
BRANCH   1  29
ATOM     28  C   UNL     1       1.546   2.399  21.979  0.00  0.00    +0.000 C 
ATOM     29  O   UNL     1       2.749   2.877  21.386  0.00  0.00    +0.000 OA
ENDBRANCH   1  29
BRANCH  19  30
ATOM     30  O   UNL     1       4.537   3.416  19.133  0.00  0.00    +0.000 OA
ATOM     31  C   UNL     1       4.132   2.368  18.268  0.00  0.00    +0.000 C 
ENDBRANCH  19  30
TORSDOF 3
ENDMDL
MODEL 3
REMARK VINA RESULT:      -6.8      5.667     10.919
REMARK  Name = 
REMARK  5 active torsions:
REMARK  status: ('A' for Active; 'I' for Inactive)
REMARK    1  A    between atoms: C_1  and  O_2
REMARK    2  A    between atoms: O_2  and  C_3
REMARK    3  A    between atoms: N_12  and  C_13
REMARK    4  A    between atoms: C_28  and  O_29
REMARK    5  A    between atoms: O_29  and  C_30
REMARK                            x       y       z     vdW  Elec       q    Type
REMARK                         _______ _______ _______ _____ _____    ______ ____
ROOT
ATOM      1  C   UNL     1       0.412  11.766  19.678  0.00  0.00    +0.000 A 
ATOM      2  C   UNL     1       1.122  10.950  18.780  0.00  0.00    +0.000 A 
ATOM      3  C   UNL     1       1.378   9.626  19.142  0.00  0.00    +0.000 A 
ATOM      4  N   UNL     1       2.016   8.636  18.443  0.00  0.00    +0.000 N 
ATOM      5  C   UNL     1       2.116   7.488  19.186  0.00  0.00    +0.000 A 
ATOM      6  C   UNL     1       2.694   6.248  18.920  0.00  0.00    +0.000 A 
ATOM      7  N   UNL     1       3.414   5.923  17.797  0.00  0.00    +0.000 N 
ATOM      8  C   UNL     1       4.081   6.886  16.916  0.00  0.00    +0.000 C 
ATOM      9  C   UNL     1       5.439   6.340  16.410  0.00  0.00    +0.000 C 
ATOM     10  N   UNL     1       5.258   4.993  15.855  0.00  0.00    +0.000 N 
ATOM     11  C   UNL     1       4.661   4.031  16.801  0.00  0.00    +0.000 C 
ATOM     12  C   UNL     1       3.288   4.552  17.272  0.00  0.00    +0.000 C 
ATOM     13  N   UNL     1       2.528   5.310  19.884  0.00  0.00    +0.000 NA
ATOM     14  C   UNL     1       1.881   5.630  21.019  0.00  0.00    +0.000 A 
ATOM     15  N   UNL     1       1.321   6.800  21.347  0.00  0.00    +0.000 NA
ATOM     16  C   UNL     1       1.451   7.733  20.380  0.00  0.00    +0.000 A 
ATOM     17  C   UNL     1       0.982   9.081  20.358  0.00  0.00    +0.000 A 
ATOM     18  C   UNL     1       0.264   9.901  21.247  0.00  0.00    +0.000 A 
ATOM     19  C   UNL     1      -0.022  11.241  20.910  0.00  0.00    +0.000 A 
ATOM     20  H   UNL     1       2.358   8.743  17.502  0.00  0.00    +0.000 HD
ENDROOT
BRANCH  10  21
ATOM     21  C   UNL     1       5.867   4.580  14.693  0.00  0.00    +0.000 A 
ATOM     22  C   UNL     1       7.117   5.068  14.287  0.00  0.00    +0.000 A 
ATOM     23  C   UNL     1       7.693   4.690  13.069  0.00  0.00    +0.000 A 
ATOM     24  C   UNL     1       7.015   3.813  12.230  0.00  0.00    +0.000 A 
ATOM     25 CL   UNL     1       7.701   3.371  10.717  0.00  0.00    +0.000 Cl
ATOM     26  C   UNL     1       5.780   3.302  12.608  0.00  0.00    +0.000 A 
ATOM     27  C   UNL     1       5.219   3.682  13.829  0.00  0.00    +0.000 A 
ENDBRANCH  10  21
BRANCH   1  29
ATOM     28  C   UNL     1       1.184  13.805  18.701  0.00  0.00    +0.000 C 
ATOM     29  O   UNL     1       0.169  13.087  19.395  0.00  0.00    +0.000 OA
ENDBRANCH   1  29
BRANCH  19  30
ATOM     30  O   UNL     1      -0.736  11.871  21.898  0.00  0.00    +0.000 OA
ATOM     31  C   UNL     1      -1.209  11.107  22.996  0.00  0.00    +0.000 C 
ENDBRANCH  19  30
TORSDOF 3
ENDMDL
MODEL 4
REMARK VINA RESULT:      -6.6      7.017      9.735
REMARK  Name = 
REMARK  5 active torsions:
REMARK  status: ('A' for Active; 'I' for Inactive)
REMARK    1  A    between atoms: C_1  and  O_2
REMARK    2  A    between atoms: O_2  and  C_3
REMARK    3  A    between atoms: N_12  and  C_13
REMARK    4  A    between atoms: C_28  and  O_29
REMARK    5  A    between atoms: O_29  and  C_30
REMARK                            x       y       z     vdW  Elec       q    Type
REMARK                         _______ _______ _______ _____ _____    ______ ____
ROOT
ATOM      1  C   UNL     1      -3.612  10.937  16.589  0.00  0.00    +0.000 A 
ATOM      2  C   UNL     1      -2.274  11.353  16.695  0.00  0.00    +0.000 A 
ATOM      3  C   UNL     1      -1.849  11.936  17.890  0.00  0.00    +0.000 A 
ATOM      4  N   UNL     1      -0.608  12.393  18.248  0.00  0.00    +0.000 N 
ATOM      5  C   UNL     1      -0.628  12.959  19.496  0.00  0.00    +0.000 A 
ATOM      6  C   UNL     1       0.363  13.571  20.263  0.00  0.00    +0.000 A 
ATOM      7  N   UNL     1       1.647  13.829  19.854  0.00  0.00    +0.000 N 
ATOM      8  C   UNL     1       2.083  13.932  18.457  0.00  0.00    +0.000 C 
ATOM      9  C   UNL     1       3.144  15.047  18.279  0.00  0.00    +0.000 C 
ATOM     10  N   UNL     1       4.217  14.875  19.267  0.00  0.00    +0.000 N 
ATOM     11  C   UNL     1       3.746  14.861  20.665  0.00  0.00    +0.000 C 
ATOM     12  C   UNL     1       2.723  13.724  20.856  0.00  0.00    +0.000 C 
ATOM     13  N   UNL     1      -0.015  13.951  21.507  0.00  0.00    +0.000 NA
ATOM     14  C   UNL     1      -1.288  13.764  21.901  0.00  0.00    +0.000 A 
ATOM     15  N   UNL     1      -2.290  13.203  21.215  0.00  0.00    +0.000 NA
ATOM     16  C   UNL     1      -1.917  12.791  19.984  0.00  0.00    +0.000 A 
ATOM     17  C   UNL     1      -2.692  12.146  18.975  0.00  0.00    +0.000 A 
ATOM     18  C   UNL     1      -4.028  11.718  18.865  0.00  0.00    +0.000 A 
ATOM     19  C   UNL     1      -4.489  11.115  17.676  0.00  0.00    +0.000 A 
ATOM     20  H   UNL     1       0.210  12.313  17.666  0.00  0.00    +0.000 HD
ENDROOT
BRANCH  10  21
ATOM     21  C   UNL     1       5.547  15.032  18.954  0.00  0.00    +0.000 A 
ATOM     22  C   UNL     1       6.127  14.435  17.826  0.00  0.00    +0.000 A 
ATOM     23  C   UNL     1       7.496  14.546  17.558  0.00  0.00    +0.000 A 
ATOM     24  C   UNL     1       8.312  15.260  18.428  0.00  0.00    +0.000 A 
ATOM     25 CL   UNL     1      10.000  15.372  18.124  0.00  0.00    +0.000 Cl
ATOM     26  C   UNL     1       7.767  15.873  19.550  0.00  0.00    +0.000 A 
ATOM     27  C   UNL     1       6.398  15.759  19.802  0.00  0.00    +0.000 A 
ENDBRANCH  10  21
BRANCH   1  29
ATOM     28  C   UNL     1      -3.169  10.179  14.368  0.00  0.00    +0.000 C 
ATOM     29  O   UNL     1      -4.098  10.397  15.425  0.00  0.00    +0.000 OA
ENDBRANCH   1  29
BRANCH  19  30
ATOM     30  O   UNL     1      -5.812  10.761  17.768  0.00  0.00    +0.000 OA
ATOM     31  C   UNL     1      -6.759  11.742  18.159  0.00  0.00    +0.000 C 
ENDBRANCH  19  30
TORSDOF 3
ENDMDL
MODEL 5
REMARK VINA RESULT:      -6.6      5.399     10.301
REMARK  Name = 
REMARK  5 active torsions:
REMARK  status: ('A' for Active; 'I' for Inactive)
REMARK    1  A    between atoms: C_1  and  O_2
REMARK    2  A    between atoms: O_2  and  C_3
REMARK    3  A    between atoms: N_12  and  C_13
REMARK    4  A    between atoms: C_28  and  O_29
REMARK    5  A    between atoms: O_29  and  C_30
REMARK                            x       y       z     vdW  Elec       q    Type
REMARK                         _______ _______ _______ _____ _____    ______ ____
ROOT
ATOM      1  C   UNL     1      -6.232  13.896  19.185  0.00  0.00    +0.000 A 
ATOM      2  C   UNL     1      -5.269  12.875  19.106  0.00  0.00    +0.000 A 
ATOM      3  C   UNL     1      -4.253  12.840  20.063  0.00  0.00    +0.000 A 
ATOM      4  N   UNL     1      -3.227  11.946  20.217  0.00  0.00    +0.000 N 
ATOM      5  C   UNL     1      -2.403  12.309  21.251  0.00  0.00    +0.000 A 
ATOM      6  C   UNL     1      -1.237  11.740  21.763  0.00  0.00    +0.000 A 
ATOM      7  N   UNL     1      -0.577  10.657  21.238  0.00  0.00    +0.000 N 
ATOM      8  C   UNL     1      -0.689  10.191  19.853  0.00  0.00    +0.000 C 
ATOM      9  C   UNL     1       0.676   9.693  19.314  0.00  0.00    +0.000 C 
ATOM     10  N   UNL     1       1.265   8.737  20.259  0.00  0.00    +0.000 N 
ATOM     11  C   UNL     1       1.439   9.273  21.622  0.00  0.00    +0.000 C 
ATOM     12  C   UNL     1       0.074   9.727  22.178  0.00  0.00    +0.000 C 
ATOM     13  N   UNL     1      -0.729  12.346  22.862  0.00  0.00    +0.000 NA
ATOM     14  C   UNL     1      -1.327  13.447  23.351  0.00  0.00    +0.000 A 
ATOM     15  N   UNL     1      -2.431  14.054  22.901  0.00  0.00    +0.000 NA
ATOM     16  C   UNL     1      -2.966  13.440  21.825  0.00  0.00    +0.000 A 
ATOM     17  C   UNL     1      -4.135  13.780  21.080  0.00  0.00    +0.000 A 
ATOM     18  C   UNL     1      -5.108  14.793  21.158  0.00  0.00    +0.000 A 
ATOM     19  C   UNL     1      -6.155  14.854  20.215  0.00  0.00    +0.000 A 
ATOM     20  H   UNL     1      -3.105  11.126  19.646  0.00  0.00    +0.000 HD
ENDROOT
BRANCH  10  21
ATOM     21  C   UNL     1       1.885   7.577  19.853  0.00  0.00    +0.000 A 
ATOM     22  C   UNL     1       1.825   6.394  20.603  0.00  0.00    +0.000 A 
ATOM     23  C   UNL     1       2.517   5.242  20.213  0.00  0.00    +0.000 A 
ATOM     24  C   UNL     1       3.292   5.262  19.058  0.00  0.00    +0.000 A 
ATOM     25 CL   UNL     1       4.172   3.861  18.592  0.00  0.00    +0.000 Cl
ATOM     26  C   UNL     1       3.364   6.416  18.287  0.00  0.00    +0.000 A 
ATOM     27  C   UNL     1       2.663   7.556  18.684  0.00  0.00    +0.000 A 
ENDBRANCH  10  21
BRANCH   1  29
ATOM     28  C   UNL     1      -6.871  13.798  16.886  0.00  0.00    +0.000 C 
ATOM     29  O   UNL     1      -7.228  14.007  18.248  0.00  0.00    +0.000 OA
ENDBRANCH   1  29
BRANCH  19  30
ATOM     30  O   UNL     1      -7.003  15.903  20.465  0.00  0.00    +0.000 OA
ATOM     31  C   UNL     1      -6.596  17.214  20.106  0.00  0.00    +0.000 C 
ENDBRANCH  19  30
TORSDOF 3
ENDMDL
MODEL 6
REMARK VINA RESULT:      -6.5      5.143      9.963
REMARK  Name = 
REMARK  5 active torsions:
REMARK  status: ('A' for Active; 'I' for Inactive)
REMARK    1  A    between atoms: C_1  and  O_2
REMARK    2  A    between atoms: O_2  and  C_3
REMARK    3  A    between atoms: N_12  and  C_13
REMARK    4  A    between atoms: C_28  and  O_29
REMARK    5  A    between atoms: O_29  and  C_30
REMARK                            x       y       z     vdW  Elec       q    Type
REMARK                         _______ _______ _______ _____ _____    ______ ____
ROOT
ATOM      1  C   UNL     1      -1.723  14.036  23.451  0.00  0.00    +0.000 A 
ATOM      2  C   UNL     1      -0.781  13.124  22.947  0.00  0.00    +0.000 A 
ATOM      3  C   UNL     1      -1.036  12.512  21.718  0.00  0.00    +0.000 A 
ATOM      4  N   UNL     1      -0.275  11.620  21.010  0.00  0.00    +0.000 N 
ATOM      5  C   UNL     1      -0.920  11.209  19.873  0.00  0.00    +0.000 A 
ATOM      6  C   UNL     1      -0.566  10.308  18.869  0.00  0.00    +0.000 A 
ATOM      7  N   UNL     1       0.559   9.522  18.858  0.00  0.00    +0.000 N 
ATOM      8  C   UNL     1       1.336   9.145  20.043  0.00  0.00    +0.000 C 
ATOM      9  C   UNL     1       1.847   7.686  19.942  0.00  0.00    +0.000 C 
ATOM     10  N   UNL     1       2.519   7.483  18.652  0.00  0.00    +0.000 N 
ATOM     11  C   UNL     1       1.676   7.794  17.482  0.00  0.00    +0.000 C 
ATOM     12  C   UNL     1       1.203   9.259  17.559  0.00  0.00    +0.000 C 
ATOM     13  N   UNL     1      -1.441  10.211  17.840  0.00  0.00    +0.000 NA
ATOM     14  C   UNL     1      -2.580  10.926  17.865  0.00  0.00    +0.000 A 
ATOM     15  N   UNL     1      -2.990  11.790  18.800  0.00  0.00    +0.000 NA
ATOM     16  C   UNL     1      -2.110  11.920  19.816  0.00  0.00    +0.000 A 
ATOM     17  C   UNL     1      -2.190  12.745  20.978  0.00  0.00    +0.000 A 
ATOM     18  C   UNL     1      -3.123  13.667  21.485  0.00  0.00    +0.000 A 
ATOM     19  C   UNL     1      -2.894  14.312  22.718  0.00  0.00    +0.000 A 
ATOM     20  H   UNL     1       0.644  11.318  21.291  0.00  0.00    +0.000 HD
ENDROOT
BRANCH  10  21
ATOM     21  C   UNL     1       3.694   6.778  18.529  0.00  0.00    +0.000 A 
ATOM     22  C   UNL     1       4.075   5.790  19.448  0.00  0.00    +0.000 A 
ATOM     23  C   UNL     1       5.305   5.130  19.348  0.00  0.00    +0.000 A 
ATOM     24  C   UNL     1       6.181   5.457  18.320  0.00  0.00    +0.000 A 
ATOM     25 CL   UNL     1       7.707   4.674  18.211  0.00  0.00    +0.000 Cl
ATOM     26  C   UNL     1       5.829   6.424  17.386  0.00  0.00    +0.000 A 
ATOM     27  C   UNL     1       4.596   7.071  17.494  0.00  0.00    +0.000 A 
ENDBRANCH  10  21
BRANCH   1  29
ATOM     28  C   UNL     1      -0.851  15.877  24.698  0.00  0.00    +0.000 C 
ATOM     29  O   UNL     1      -1.548  14.636  24.673  0.00  0.00    +0.000 OA
ENDBRANCH   1  29
BRANCH  19  30
ATOM     30  O   UNL     1      -3.911  15.178  23.035  0.00  0.00    +0.000 OA
ATOM     31  C   UNL     1      -5.047  15.241  22.187  0.00  0.00    +0.000 C 
ENDBRANCH  19  30
TORSDOF 3
ENDMDL
MODEL 7
REMARK VINA RESULT:      -6.3      3.589      5.008
REMARK  Name = 
REMARK  5 active torsions:
REMARK  status: ('A' for Active; 'I' for Inactive)
REMARK    1  A    between atoms: C_1  and  O_2
REMARK    2  A    between atoms: O_2  and  C_3
REMARK    3  A    between atoms: N_12  and  C_13
REMARK    4  A    between atoms: C_28  and  O_29
REMARK    5  A    between atoms: O_29  and  C_30
REMARK                            x       y       z     vdW  Elec       q    Type
REMARK                         _______ _______ _______ _____ _____    ______ ____
ROOT
ATOM      1  C   UNL     1       4.805   5.091  16.536  0.00  0.00    +0.000 A 
ATOM      2  C   UNL     1       4.432   6.432  16.729  0.00  0.00    +0.000 A 
ATOM      3  C   UNL     1       3.591   6.743  17.799  0.00  0.00    +0.000 A 
ATOM      4  N   UNL     1       3.111   7.959  18.210  0.00  0.00    +0.000 N 
ATOM      5  C   UNL     1       2.255   7.822  19.272  0.00  0.00    +0.000 A 
ATOM      6  C   UNL     1       1.514   8.750  20.003  0.00  0.00    +0.000 A 
ATOM      7  N   UNL     1       1.419  10.092  19.732  0.00  0.00    +0.000 N 
ATOM      8  C   UNL     1       1.681  10.709  18.428  0.00  0.00    +0.000 C 
ATOM      9  C   UNL     1       0.690  11.865  18.142  0.00  0.00    +0.000 C 
ATOM     10  N   UNL     1       0.657  12.786  19.284  0.00  0.00    +0.000 N 
ATOM     11  C   UNL     1       0.306  12.140  20.564  0.00  0.00    +0.000 C 
ATOM     12  C   UNL     1       1.318  11.020  20.872  0.00  0.00    +0.000 C 
ATOM     13  N   UNL     1       0.825   8.245  21.054  0.00  0.00    +0.000 NA
ATOM     14  C   UNL     1       0.855   6.922  21.296  0.00  0.00    +0.000 A 
ATOM     15  N   UNL     1       1.526   5.977  20.628  0.00  0.00    +0.000 NA
ATOM     16  C   UNL     1       2.244   6.473  19.597  0.00  0.00    +0.000 A 
ATOM     17  C   UNL     1       3.085   5.786  18.671  0.00  0.00    +0.000 A 
ATOM     18  C   UNL     1       3.471   4.447  18.477  0.00  0.00    +0.000 A 
ATOM     19  C   UNL     1       4.328   4.098  17.413  0.00  0.00    +0.000 A 
ATOM     20  H   UNL     1       3.366   8.836  17.787  0.00  0.00    +0.000 HD
ENDROOT
BRANCH  10  21
ATOM     21  C   UNL     1       0.638  14.154  19.136  0.00  0.00    +0.000 A 
ATOM     22  C   UNL     1      -0.514  14.917  19.371  0.00  0.00    +0.000 A 
ATOM     23  C   UNL     1      -0.538  16.299  19.150  0.00  0.00    +0.000 A 
ATOM     24  C   UNL     1       0.603  16.940  18.680  0.00  0.00    +0.000 A 
ATOM     25 CL   UNL     1       0.571  18.631  18.374  0.00  0.00    +0.000 Cl
ATOM     26  C   UNL     1       1.764  16.214  18.446  0.00  0.00    +0.000 A 
ATOM     27  C   UNL     1       1.776  14.837  18.677  0.00  0.00    +0.000 A 
ENDBRANCH  10  21
BRANCH   1  29
ATOM     28  C   UNL     1       7.005   4.766  15.666  0.00  0.00    +0.000 C 
ATOM     29  O   UNL     1       5.595   4.719  15.477  0.00  0.00    +0.000 OA
ENDBRANCH   1  29
BRANCH  19  30
ATOM     30  O   UNL     1       4.594   2.751  17.398  0.00  0.00    +0.000 OA
ATOM     31  C   UNL     1       3.691   1.867  18.042  0.00  0.00    +0.000 C 
ENDBRANCH  19  30
TORSDOF 3
ENDMDL
MODEL 8
REMARK VINA RESULT:      -6.3      5.603     10.764
REMARK  Name = 
REMARK  5 active torsions:
REMARK  status: ('A' for Active; 'I' for Inactive)
REMARK    1  A    between atoms: C_1  and  O_2
REMARK    2  A    between atoms: O_2  and  C_3
REMARK    3  A    between atoms: N_12  and  C_13
REMARK    4  A    between atoms: C_28  and  O_29
REMARK    5  A    between atoms: O_29  and  C_30
REMARK                            x       y       z     vdW  Elec       q    Type
REMARK                         _______ _______ _______ _____ _____    ______ ____
ROOT
ATOM      1  C   UNL     1       0.497  13.190  19.294  0.00  0.00    +0.000 A 
ATOM      2  C   UNL     1       1.172  12.221  18.531  0.00  0.00    +0.000 A 
ATOM      3  C   UNL     1       1.261  10.921  19.031  0.00  0.00    +0.000 A 
ATOM      4  N   UNL     1       1.834   9.808  18.477  0.00  0.00    +0.000 N 
ATOM      5  C   UNL     1       1.763   8.735  19.328  0.00  0.00    +0.000 A 
ATOM      6  C   UNL     1       2.220   7.423  19.221  0.00  0.00    +0.000 A 
ATOM      7  N   UNL     1       2.972   6.918  18.189  0.00  0.00    +0.000 N 
ATOM      8  C   UNL     1       3.793   7.717  17.274  0.00  0.00    +0.000 C 
ATOM      9  C   UNL     1       5.115   6.989  16.923  0.00  0.00    +0.000 C 
ATOM     10  N   UNL     1       4.827   5.619  16.483  0.00  0.00    +0.000 N 
ATOM     11  C   UNL     1       4.071   4.821  17.468  0.00  0.00    +0.000 C 
ATOM     12  C   UNL     1       2.735   5.520  17.785  0.00  0.00    +0.000 C 
ATOM     13  N   UNL     1       1.894   6.607  20.252  0.00  0.00    +0.000 NA
ATOM     14  C   UNL     1       1.213   7.101  21.301  0.00  0.00    +0.000 A 
ATOM     15  N   UNL     1       0.761   8.348  21.478  0.00  0.00    +0.000 NA
ATOM     16  C   UNL     1       1.052   9.163  20.441  0.00  0.00    +0.000 A 
ATOM     17  C   UNL     1       0.732  10.542  20.260  0.00  0.00    +0.000 A 
ATOM     18  C   UNL     1       0.050  11.515  21.013  0.00  0.00    +0.000 A 
ATOM     19  C   UNL     1      -0.069  12.836  20.534  0.00  0.00    +0.000 A 
ATOM     20  H   UNL     1       2.245   9.785  17.558  0.00  0.00    +0.000 HD
ENDROOT
BRANCH  10  21
ATOM     21  C   UNL     1       5.462   5.033  15.413  0.00  0.00    +0.000 A 
ATOM     22  C   UNL     1       6.777   5.358  15.051  0.00  0.00    +0.000 A 
ATOM     23  C   UNL     1       7.386   4.805  13.920  0.00  0.00    +0.000 A 
ATOM     24  C   UNL     1       6.677   3.913  13.123  0.00  0.00    +0.000 A 
ATOM     25 CL   UNL     1       7.407   3.256  11.713  0.00  0.00    +0.000 Cl
ATOM     26  C   UNL     1       5.375   3.561  13.460  0.00  0.00    +0.000 A 
ATOM     27  C   UNL     1       4.782   4.116  14.595  0.00  0.00    +0.000 A 
ENDBRANCH  10  21
BRANCH   1  29
ATOM     28  C   UNL     1       1.191  15.458  19.578  0.00  0.00    +0.000 C 
ATOM     29  O   UNL     1       0.415  14.494  18.874  0.00  0.00    +0.000 OA
ENDBRANCH   1  29
BRANCH  19  30
ATOM     30  O   UNL     1      -0.774  13.630  21.404  0.00  0.00    +0.000 OA
ATOM     31  C   UNL     1      -1.591  13.013  22.386  0.00  0.00    +0.000 C 
ENDBRANCH  19  30
TORSDOF 3
ENDMDL
MODEL 9
REMARK VINA RESULT:      -6.2      7.028      9.894
REMARK  Name = 
REMARK  5 active torsions:
REMARK  status: ('A' for Active; 'I' for Inactive)
REMARK    1  A    between atoms: C_1  and  O_2
REMARK    2  A    between atoms: O_2  and  C_3
REMARK    3  A    between atoms: N_12  and  C_13
REMARK    4  A    between atoms: C_28  and  O_29
REMARK    5  A    between atoms: O_29  and  C_30
REMARK                            x       y       z     vdW  Elec       q    Type
REMARK                         _______ _______ _______ _____ _____    ______ ____
ROOT
ATOM      1  C   UNL     1      -3.245  11.424  17.435  0.00  0.00    +0.000 A 
ATOM      2  C   UNL     1      -1.882  11.765  17.486  0.00  0.00    +0.000 A 
ATOM      3  C   UNL     1      -1.379  12.325  18.661  0.00  0.00    +0.000 A 
ATOM      4  N   UNL     1      -0.102  12.713  18.969  0.00  0.00    +0.000 N 
ATOM      5  C   UNL     1      -0.041  13.281  20.215  0.00  0.00    +0.000 A 
ATOM      6  C   UNL     1       1.012  13.839  20.940  0.00  0.00    +0.000 A 
ATOM      7  N   UNL     1       2.292  14.024  20.479  0.00  0.00    +0.000 N 
ATOM      8  C   UNL     1       2.677  14.100  19.067  0.00  0.00    +0.000 C 
ATOM      9  C   UNL     1       3.791  15.154  18.843  0.00  0.00    +0.000 C 
ATOM     10  N   UNL     1       4.890  14.925  19.788  0.00  0.00    +0.000 N 
ATOM     11  C   UNL     1       4.474  14.939  21.204  0.00  0.00    +0.000 C 
ATOM     12  C   UNL     1       3.398  13.861  21.439  0.00  0.00    +0.000 C 
ATOM     13  N   UNL     1       0.705  14.241  22.196  0.00  0.00    +0.000 NA
ATOM     14  C   UNL     1      -0.560  14.126  22.640  0.00  0.00    +0.000 A 
ATOM     15  N   UNL     1      -1.618  13.621  21.996  0.00  0.00    +0.000 NA
ATOM     16  C   UNL     1      -1.317  13.186  20.754  0.00  0.00    +0.000 A 
ATOM     17  C   UNL     1      -2.166  12.583  19.778  0.00  0.00    +0.000 A 
ATOM     18  C   UNL     1      -3.527  12.231  19.722  0.00  0.00    +0.000 A 
ATOM     19  C   UNL     1      -4.067  11.653  18.554  0.00  0.00    +0.000 A 
ATOM     20  H   UNL     1       0.687  12.587  18.356  0.00  0.00    +0.000 HD
ENDROOT
BRANCH  10  21
ATOM     21  C   UNL     1       6.214  15.006  19.423  0.00  0.00    +0.000 A 
ATOM     22  C   UNL     1       7.256  14.929  20.358  0.00  0.00    +0.000 A 
ATOM     23  C   UNL     1       8.594  15.082  19.981  0.00  0.00    +0.000 A 
ATOM     24  C   UNL     1       8.911  15.323  18.649  0.00  0.00    +0.000 A 
ATOM     25 CL   UNL     1      10.550  15.545  18.183  0.00  0.00    +0.000 Cl
ATOM     26  C   UNL     1       7.902  15.394  17.695  0.00  0.00    +0.000 A 
ATOM     27  C   UNL     1       6.571  15.233  18.084  0.00  0.00    +0.000 A 
ENDBRANCH  10  21
BRANCH   1  29
ATOM     28  C   UNL     1      -2.919  10.385  15.308  0.00  0.00    +0.000 C 
ATOM     29  O   UNL     1      -3.805  10.910  16.292  0.00  0.00    +0.000 OA
ENDBRANCH   1  29
BRANCH  19  30
ATOM     30  O   UNL     1      -5.403  11.373  18.699  0.00  0.00    +0.000 OA
ATOM     31  C   UNL     1      -6.316  12.447  18.858  0.00  0.00    +0.000 C 
ENDBRANCH  19  30
TORSDOF 3
ENDMDL
