MODEL 1
REMARK VINA RESULT:      -8.6      0.000      0.000
REMARK  Name = 
REMARK  3 active torsions:
REMARK  status: ('A' for Active; 'I' for Inactive)
REMARK    1  A    between atoms: C_2  and  C_19
REMARK    2  A    between atoms: N_3  and  C_4
REMARK    3  A    between atoms: C_8  and  C_9
REMARK                            x       y       z     vdW  Elec       q    Type
REMARK                         _______ _______ _______ _____ _____    ______ ____
ROOT
ATOM      1  C   UNL     1       4.184   4.468  17.555  0.00  0.00    +0.000 A 
ATOM      2  C   UNL     1       4.198   3.371  18.423  0.00  0.00    +0.000 A 
ATOM      3  C   UNL     1       3.614   3.444  19.684  0.00  0.00    +0.000 A 
ATOM      4  C   UNL     1       2.998   4.619  20.091  0.00  0.00    +0.000 A 
ATOM      5  C   UNL     1       2.969   5.736  19.244  0.00  0.00    +0.000 A 
ATOM      6  C   UNL     1       3.598   5.665  17.987  0.00  0.00    +0.000 A 
ENDROOT
BRANCH   5   7
ATOM      7  C   UNL     1       2.247   6.931  19.638  0.00  0.00    +0.000 A 
ATOM      8  C   UNL     1       2.096   8.053  18.850  0.00  0.00    +0.000 A 
ATOM      9  N   UNL     1       1.398   8.949  19.610  0.00  0.00    +0.000 N 
ATOM     10  C   UNL     1       0.986  10.240  19.295  0.00  0.00    +0.000 A 
ATOM     11  C   UNL     1       0.314  10.954  20.215  0.00  0.00    +0.000 A 
ATOM     12  C   UNL     1       0.045  10.349  21.514  0.00  0.00    +0.000 A 
ATOM     13  C   UNL     1       0.448   9.095  21.807  0.00  0.00    +0.000 A 
ATOM     14  C   UNL     1       1.159   8.335  20.835  0.00  0.00    +0.000 A 
ATOM     15  N   UNL     1       1.672   7.120  20.874  0.00  0.00    +0.000 NA
ENDBRANCH   5   7
BRANCH   1  18
ATOM     16  O   UNL     1       6.883   5.159  16.698  0.00  0.00    +0.000 OA
ATOM     17  C   UNL     1       6.019   4.773  15.920  0.00  0.00    +0.000 C 
ATOM     18  N   UNL     1       4.723   4.399  16.248  0.00  0.00    +0.000 N 
ATOM     19  H   UNL     1       4.181   3.891  15.563  0.00  0.00    +0.000 HD
BRANCH  17  20
ATOM     20  C   UNL     1       6.422   4.631  14.501  0.00  0.00    +0.000 A 
ATOM     21  C   UNL     1       7.484   5.351  13.943  0.00  0.00    +0.000 A 
ATOM     22  C   UNL     1       7.859   5.111  12.620  0.00  0.00    +0.000 A 
ATOM     23  C   UNL     1       7.179   4.154  11.857  0.00  0.00    +0.000 A 
ATOM     24  C   UNL     1       6.127   3.438  12.419  0.00  0.00    +0.000 A 
ATOM     25 CL   UNL     1       5.300   2.250  11.488  0.00  0.00    +0.000 Cl
ATOM     26  C   UNL     1       5.746   3.669  13.736  0.00  0.00    +0.000 A 
ENDBRANCH  17  20
ENDBRANCH   1  18
TORSDOF 3
ENDMDL
MODEL 2
REMARK VINA RESULT:      -8.5      0.604      1.227
REMARK  Name = 
REMARK  3 active torsions:
REMARK  status: ('A' for Active; 'I' for Inactive)
REMARK    1  A    between atoms: C_2  and  C_19
REMARK    2  A    between atoms: N_3  and  C_4
REMARK    3  A    between atoms: C_8  and  C_9
REMARK                            x       y       z     vdW  Elec       q    Type
REMARK                         _______ _______ _______ _____ _____    ______ ____
ROOT
ATOM      1  C   UNL     1       4.152   4.860  17.545  0.00  0.00    +0.000 A 
ATOM      2  C   UNL     1       4.173   3.782  18.438  0.00  0.00    +0.000 A 
ATOM      3  C   UNL     1       3.586   3.879  19.695  0.00  0.00    +0.000 A 
ATOM      4  C   UNL     1       2.960   5.058  20.075  0.00  0.00    +0.000 A 
ATOM      5  C   UNL     1       2.924   6.155  19.202  0.00  0.00    +0.000 A 
ATOM      6  C   UNL     1       3.556   6.062  17.949  0.00  0.00    +0.000 A 
ENDROOT
BRANCH   5   7
ATOM      7  C   UNL     1       2.192   7.354  19.568  0.00  0.00    +0.000 A 
ATOM      8  C   UNL     1       1.589   7.563  20.791  0.00  0.00    +0.000 A 
ATOM      9  N   UNL     1       0.980   8.783  20.700  0.00  0.00    +0.000 N 
ATOM     10  C   UNL     1       0.228   9.466  21.651  0.00  0.00    +0.000 A 
ATOM     11  C   UNL     1      -0.293  10.664  21.335  0.00  0.00    +0.000 A 
ATOM     12  C   UNL     1      -0.054  11.203  20.001  0.00  0.00    +0.000 A 
ATOM     13  C   UNL     1       0.679  10.532  19.088  0.00  0.00    +0.000 A 
ATOM     14  C   UNL     1       1.233   9.263  19.420  0.00  0.00    +0.000 A 
ATOM     15  N   UNL     1       1.955   8.410  18.718  0.00  0.00    +0.000 NA
ENDBRANCH   5   7
BRANCH   1  18
ATOM     16  O   UNL     1       6.956   4.598  16.792  0.00  0.00    +0.000 OA
ATOM     17  C   UNL     1       6.052   4.667  15.968  0.00  0.00    +0.000 C 
ATOM     18  N   UNL     1       4.695   4.766  16.241  0.00  0.00    +0.000 N 
ATOM     19  H   UNL     1       4.040   4.591  15.492  0.00  0.00    +0.000 HD
BRANCH  17  20
ATOM     20  C   UNL     1       6.448   4.572  14.543  0.00  0.00    +0.000 A 
ATOM     21  C   UNL     1       7.487   5.332  13.995  0.00  0.00    +0.000 A 
ATOM     22  C   UNL     1       7.857   5.135  12.664  0.00  0.00    +0.000 A 
ATOM     23  C   UNL     1       7.195   4.181  11.882  0.00  0.00    +0.000 A 
ATOM     24  C   UNL     1       6.165   3.425  12.434  0.00  0.00    +0.000 A 
ATOM     25 CL   UNL     1       5.362   2.240  11.478  0.00  0.00    +0.000 Cl
ATOM     26  C   UNL     1       5.790   3.612  13.758  0.00  0.00    +0.000 A 
ENDBRANCH  17  20
ENDBRANCH   1  18
TORSDOF 3
ENDMDL
MODEL 3
REMARK VINA RESULT:      -8.5      5.114      6.871
REMARK  Name = 
REMARK  3 active torsions:
REMARK  status: ('A' for Active; 'I' for Inactive)
REMARK    1  A    between atoms: C_2  and  C_19
REMARK    2  A    between atoms: N_3  and  C_4
REMARK    3  A    between atoms: C_8  and  C_9
REMARK                            x       y       z     vdW  Elec       q    Type
REMARK                         _______ _______ _______ _____ _____    ______ ____
ROOT
ATOM      1  C   UNL     1       6.856   6.591  16.808  0.00  0.00    +0.000 A 
ATOM      2  C   UNL     1       7.326   5.843  15.722  0.00  0.00    +0.000 A 
ATOM      3  C   UNL     1       6.827   4.572  15.455  0.00  0.00    +0.000 A 
ATOM      4  C   UNL     1       5.841   4.033  16.270  0.00  0.00    +0.000 A 
ATOM      5  C   UNL     1       5.352   4.757  17.366  0.00  0.00    +0.000 A 
ATOM      6  C   UNL     1       5.892   6.025  17.652  0.00  0.00    +0.000 A 
ENDROOT
BRANCH   5   7
ATOM      7  C   UNL     1       4.261   4.227  18.162  0.00  0.00    +0.000 A 
ATOM      8  C   UNL     1       3.070   3.757  17.647  0.00  0.00    +0.000 A 
ATOM      9  N   UNL     1       2.315   3.398  18.729  0.00  0.00    +0.000 N 
ATOM     10  C   UNL     1       1.029   2.871  18.770  0.00  0.00    +0.000 A 
ATOM     11  C   UNL     1       0.470   2.603  19.962  0.00  0.00    +0.000 A 
ATOM     12  C   UNL     1       1.234   2.879  21.173  0.00  0.00    +0.000 A 
ATOM     13  C   UNL     1       2.482   3.388  21.121  0.00  0.00    +0.000 A 
ATOM     14  C   UNL     1       3.078   3.673  19.859  0.00  0.00    +0.000 A 
ATOM     15  N   UNL     1       4.251   4.183  19.538  0.00  0.00    +0.000 NA
ENDBRANCH   5   7
BRANCH   1  18
ATOM     16  O   UNL     1       8.634   7.481  18.939  0.00  0.00    +0.000 OA
ATOM     17  C   UNL     1       8.140   8.250  18.123  0.00  0.00    +0.000 C 
ATOM     18  N   UNL     1       7.310   7.906  17.066  0.00  0.00    +0.000 N 
ATOM     19  H   UNL     1       7.151   8.588  16.337  0.00  0.00    +0.000 HD
BRANCH  17  20
ATOM     20  C   UNL     1       8.524   9.677  18.243  0.00  0.00    +0.000 A 
ATOM     21  C   UNL     1       8.006  10.671  17.405  0.00  0.00    +0.000 A 
ATOM     22  C   UNL     1       8.351  12.005  17.624  0.00  0.00    +0.000 A 
ATOM     23  C   UNL     1       9.208  12.348  18.676  0.00  0.00    +0.000 A 
ATOM     24  C   UNL     1       9.716  11.355  19.509  0.00  0.00    +0.000 A 
ATOM     25 CL   UNL     1      10.756  11.777  20.814  0.00  0.00    +0.000 Cl
ATOM     26  C   UNL     1       9.378  10.024  19.301  0.00  0.00    +0.000 A 
ENDBRANCH  17  20
ENDBRANCH   1  18
TORSDOF 3
ENDMDL
MODEL 4
REMARK VINA RESULT:      -8.5      5.178      6.938
REMARK  Name = 
REMARK  3 active torsions:
REMARK  status: ('A' for Active; 'I' for Inactive)
REMARK    1  A    between atoms: C_2  and  C_19
REMARK    2  A    between atoms: N_3  and  C_4
REMARK    3  A    between atoms: C_8  and  C_9
REMARK                            x       y       z     vdW  Elec       q    Type
REMARK                         _______ _______ _______ _____ _____    ______ ____
ROOT
ATOM      1  C   UNL     1       6.889   6.683  16.900  0.00  0.00    +0.000 A 
ATOM      2  C   UNL     1       7.297   5.908  15.809  0.00  0.00    +0.000 A 
ATOM      3  C   UNL     1       6.765   4.641  15.587  0.00  0.00    +0.000 A 
ATOM      4  C   UNL     1       5.807   4.135  16.455  0.00  0.00    +0.000 A 
ATOM      5  C   UNL     1       5.380   4.887  17.559  0.00  0.00    +0.000 A 
ATOM      6  C   UNL     1       5.954   6.149  17.797  0.00  0.00    +0.000 A 
ENDROOT
BRANCH   5   7
ATOM      7  C   UNL     1       4.316   4.391  18.412  0.00  0.00    +0.000 A 
ATOM      8  C   UNL     1       4.512   3.711  19.596  0.00  0.00    +0.000 A 
ATOM      9  N   UNL     1       3.263   3.391  20.050  0.00  0.00    +0.000 N 
ATOM     10  C   UNL     1       2.893   2.699  21.199  0.00  0.00    +0.000 A 
ATOM     11  C   UNL     1       1.588   2.484  21.441  0.00  0.00    +0.000 A 
ATOM     12  C   UNL     1       0.607   2.983  20.485  0.00  0.00    +0.000 A 
ATOM     13  C   UNL     1       0.977   3.655  19.376  0.00  0.00    +0.000 A 
ATOM     14  C   UNL     1       2.358   3.885  19.116  0.00  0.00    +0.000 A 
ATOM     15  N   UNL     1       2.975   4.483  18.115  0.00  0.00    +0.000 NA
ENDBRANCH   5   7
BRANCH   1  18
ATOM     16  O   UNL     1       8.649   7.609  19.031  0.00  0.00    +0.000 OA
ATOM     17  C   UNL     1       8.196   8.357  18.174  0.00  0.00    +0.000 C 
ATOM     18  N   UNL     1       7.377   7.994  17.114  0.00  0.00    +0.000 N 
ATOM     19  H   UNL     1       7.253   8.650  16.355  0.00  0.00    +0.000 HD
BRANCH  17  20
ATOM     20  C   UNL     1       8.619   9.776  18.243  0.00  0.00    +0.000 A 
ATOM     21  C   UNL     1       8.058  10.772  17.436  0.00  0.00    +0.000 A 
ATOM     22  C   UNL     1       8.449  12.100  17.609  0.00  0.00    +0.000 A 
ATOM     23  C   UNL     1       9.395  12.436  18.585  0.00  0.00    +0.000 A 
ATOM     24  C   UNL     1       9.946  11.442  19.388  0.00  0.00    +0.000 A 
ATOM     25 CL   UNL     1      11.096  11.854  20.599  0.00  0.00    +0.000 Cl
ATOM     26  C   UNL     1       9.562  10.116  19.225  0.00  0.00    +0.000 A 
ENDBRANCH  17  20
ENDBRANCH   1  18
TORSDOF 3
ENDMDL
MODEL 5
REMARK VINA RESULT:      -7.9      4.910      6.715
REMARK  Name = 
REMARK  3 active torsions:
REMARK  status: ('A' for Active; 'I' for Inactive)
REMARK    1  A    between atoms: C_2  and  C_19
REMARK    2  A    between atoms: N_3  and  C_4
REMARK    3  A    between atoms: C_8  and  C_9
REMARK                            x       y       z     vdW  Elec       q    Type
REMARK                         _______ _______ _______ _____ _____    ______ ____
ROOT
ATOM      1  C   UNL     1       6.907   6.602  16.853  0.00  0.00    +0.000 A 
ATOM      2  C   UNL     1       7.331   5.921  15.707  0.00  0.00    +0.000 A 
ATOM      3  C   UNL     1       6.790   4.686  15.363  0.00  0.00    +0.000 A 
ATOM      4  C   UNL     1       5.806   4.119  16.160  0.00  0.00    +0.000 A 
ATOM      5  C   UNL     1       5.361   4.777  17.315  0.00  0.00    +0.000 A 
ATOM      6  C   UNL     1       5.943   6.005  17.677  0.00  0.00    +0.000 A 
ENDROOT
BRANCH   5   7
ATOM      7  C   UNL     1       4.270   4.223  18.096  0.00  0.00    +0.000 A 
ATOM      8  C   UNL     1       3.078   3.771  17.569  0.00  0.00    +0.000 A 
ATOM      9  N   UNL     1       2.325   3.378  18.640  0.00  0.00    +0.000 N 
ATOM     10  C   UNL     1       1.037   2.851  18.666  0.00  0.00    +0.000 A 
ATOM     11  C   UNL     1       0.481   2.545  19.851  0.00  0.00    +0.000 A 
ATOM     12  C   UNL     1       1.248   2.782  21.068  0.00  0.00    +0.000 A 
ATOM     13  C   UNL     1       2.496   3.291  21.030  0.00  0.00    +0.000 A 
ATOM     14  C   UNL     1       3.090   3.616  19.777  0.00  0.00    +0.000 A 
ATOM     15  N   UNL     1       4.263   4.134  19.469  0.00  0.00    +0.000 NA
ENDBRANCH   5   7
BRANCH   1  18
ATOM     16  O   UNL     1       8.636   7.310  19.090  0.00  0.00    +0.000 OA
ATOM     17  C   UNL     1       8.207   8.139  18.296  0.00  0.00    +0.000 C 
ATOM     18  N   UNL     1       7.404   7.883  17.193  0.00  0.00    +0.000 N 
ATOM     19  H   UNL     1       7.302   8.606  16.494  0.00  0.00    +0.000 HD
BRANCH  17  20
ATOM     20  C   UNL     1       8.644   9.540  18.501  0.00  0.00    +0.000 A 
ATOM     21  C   UNL     1       9.708   9.884  19.342  0.00  0.00    +0.000 A 
ATOM     22  C   UNL     1      10.115  11.216  19.428  0.00  0.00    +0.000 A 
ATOM     23  C   UNL     1       9.466  12.202  18.676  0.00  0.00    +0.000 A 
ATOM     24  C   UNL     1       8.412  11.853  17.838  0.00  0.00    +0.000 A 
ATOM     25 CL   UNL     1       7.623  13.062  16.900  0.00  0.00    +0.000 Cl
ATOM     26  C   UNL     1       7.999  10.530  17.744  0.00  0.00    +0.000 A 
ENDBRANCH  17  20
ENDBRANCH   1  18
TORSDOF 3
ENDMDL
MODEL 6
REMARK VINA RESULT:      -7.9      1.115      1.475
REMARK  Name = 
REMARK  3 active torsions:
REMARK  status: ('A' for Active; 'I' for Inactive)
REMARK    1  A    between atoms: C_2  and  C_19
REMARK    2  A    between atoms: N_3  and  C_4
REMARK    3  A    between atoms: C_8  and  C_9
REMARK                            x       y       z     vdW  Elec       q    Type
REMARK                         _______ _______ _______ _____ _____    ______ ____
ROOT
ATOM      1  C   UNL     1       4.061   4.383  17.640  0.00  0.00    +0.000 A 
ATOM      2  C   UNL     1       4.058   3.282  18.504  0.00  0.00    +0.000 A 
ATOM      3  C   UNL     1       3.480   3.360  19.767  0.00  0.00    +0.000 A 
ATOM      4  C   UNL     1       2.887   4.545  20.181  0.00  0.00    +0.000 A 
ATOM      5  C   UNL     1       2.876   5.665  19.339  0.00  0.00    +0.000 A 
ATOM      6  C   UNL     1       3.498   5.589  18.080  0.00  0.00    +0.000 A 
ENDROOT
BRANCH   5   7
ATOM      7  C   UNL     1       2.177   6.872  19.740  0.00  0.00    +0.000 A 
ATOM      8  C   UNL     1       2.060   8.007  18.964  0.00  0.00    +0.000 A 
ATOM      9  N   UNL     1       1.374   8.909  19.729  0.00  0.00    +0.000 N 
ATOM     10  C   UNL     1       0.994  10.213  19.426  0.00  0.00    +0.000 A 
ATOM     11  C   UNL     1       0.330  10.931  20.347  0.00  0.00    +0.000 A 
ATOM     12  C   UNL     1       0.035  10.316  21.636  0.00  0.00    +0.000 A 
ATOM     13  C   UNL     1       0.406   9.051  21.918  0.00  0.00    +0.000 A 
ATOM     14  C   UNL     1       1.109   8.286  20.944  0.00  0.00    +0.000 A 
ATOM     15  N   UNL     1       1.595   7.060  20.974  0.00  0.00    +0.000 NA
ENDBRANCH   5   7
BRANCH   1  18
ATOM     16  O   UNL     1       6.868   4.366  16.854  0.00  0.00    +0.000 OA
ATOM     17  C   UNL     1       5.952   4.332  16.042  0.00  0.00    +0.000 C 
ATOM     18  N   UNL     1       4.595   4.309  16.331  0.00  0.00    +0.000 N 
ATOM     19  H   UNL     1       3.950   4.057  15.596  0.00  0.00    +0.000 HD
BRANCH  17  20
ATOM     20  C   UNL     1       6.337   4.241  14.613  0.00  0.00    +0.000 A 
ATOM     21  C   UNL     1       5.711   3.369  13.716  0.00  0.00    +0.000 A 
ATOM     22  C   UNL     1       6.072   3.391  12.369  0.00  0.00    +0.000 A 
ATOM     23  C   UNL     1       7.054   4.280  11.916  0.00  0.00    +0.000 A 
ATOM     24  C   UNL     1       7.671   5.148  12.812  0.00  0.00    +0.000 A 
ATOM     25 CL   UNL     1       8.866   6.254  12.255  0.00  0.00    +0.000 Cl
ATOM     26  C   UNL     1       7.317   5.135  14.156  0.00  0.00    +0.000 A 
ENDBRANCH  17  20
ENDBRANCH   1  18
TORSDOF 3
ENDMDL
MODEL 7
REMARK VINA RESULT:      -7.9      5.894     10.518
REMARK  Name = 
REMARK  3 active torsions:
REMARK  status: ('A' for Active; 'I' for Inactive)
REMARK    1  A    between atoms: C_2  and  C_19
REMARK    2  A    between atoms: N_3  and  C_4
REMARK    3  A    between atoms: C_8  and  C_9
REMARK                            x       y       z     vdW  Elec       q    Type
REMARK                         _______ _______ _______ _____ _____    ______ ____
ROOT
ATOM      1  C   UNL     1       0.582  10.077  19.933  0.00  0.00    +0.000 A 
ATOM      2  C   UNL     1       0.976  10.590  18.691  0.00  0.00    +0.000 A 
ATOM      3  C   UNL     1       1.801   9.860  17.841  0.00  0.00    +0.000 A 
ATOM      4  C   UNL     1       2.238   8.598  18.220  0.00  0.00    +0.000 A 
ATOM      5  C   UNL     1       1.861   8.059  19.458  0.00  0.00    +0.000 A 
ATOM      6  C   UNL     1       1.060   8.820  20.328  0.00  0.00    +0.000 A 
ENDROOT
BRANCH   5   7
ATOM      7  C   UNL     1       2.247   6.705  19.811  0.00  0.00    +0.000 A 
ATOM      8  C   UNL     1       3.221   5.972  19.164  0.00  0.00    +0.000 A 
ATOM      9  N   UNL     1       3.234   4.751  19.777  0.00  0.00    +0.000 N 
ATOM     10  C   UNL     1       4.024   3.638  19.509  0.00  0.00    +0.000 A 
ATOM     11  C   UNL     1       3.854   2.523  20.240  0.00  0.00    +0.000 A 
ATOM     12  C   UNL     1       2.841   2.521  21.289  0.00  0.00    +0.000 A 
ATOM     13  C   UNL     1       2.082   3.607  21.542  0.00  0.00    +0.000 A 
ATOM     14  C   UNL     1       2.260   4.790  20.770  0.00  0.00    +0.000 A 
ATOM     15  N   UNL     1       1.647   5.958  20.799  0.00  0.00    +0.000 NA
ENDBRANCH   5   7
BRANCH   1  18
ATOM     16  O   UNL     1       1.119  12.508  21.447  0.00  0.00    +0.000 OA
ATOM     17  C   UNL     1       0.045  11.920  21.496  0.00  0.00    +0.000 C 
ATOM     18  N   UNL     1      -0.300  10.778  20.789  0.00  0.00    +0.000 N 
ATOM     19  H   UNL     1      -1.276  10.519  20.740  0.00  0.00    +0.000 HD
BRANCH  17  20
ATOM     20  C   UNL     1      -1.005  12.532  22.345  0.00  0.00    +0.000 A 
ATOM     21  C   UNL     1      -2.216  11.890  22.627  0.00  0.00    +0.000 A 
ATOM     22  C   UNL     1      -3.127  12.491  23.497  0.00  0.00    +0.000 A 
ATOM     23  C   UNL     1      -2.832  13.726  24.085  0.00  0.00    +0.000 A 
ATOM     24  C   UNL     1      -1.623  14.357  23.804  0.00  0.00    +0.000 A 
ATOM     25 CL   UNL     1      -1.251  15.867  24.540  0.00  0.00    +0.000 Cl
ATOM     26  C   UNL     1      -0.708  13.767  22.941  0.00  0.00    +0.000 A 
ENDBRANCH  17  20
ENDBRANCH   1  18
TORSDOF 3
ENDMDL
MODEL 8
REMARK VINA RESULT:      -7.9      4.915      6.772
REMARK  Name = 
REMARK  3 active torsions:
REMARK  status: ('A' for Active; 'I' for Inactive)
REMARK    1  A    between atoms: C_2  and  C_19
REMARK    2  A    between atoms: N_3  and  C_4
REMARK    3  A    between atoms: C_8  and  C_9
REMARK                            x       y       z     vdW  Elec       q    Type
REMARK                         _______ _______ _______ _____ _____    ______ ____
ROOT
ATOM      1  C   UNL     1       6.873   6.666  16.838  0.00  0.00    +0.000 A 
ATOM      2  C   UNL     1       7.318   5.966  15.710  0.00  0.00    +0.000 A 
ATOM      3  C   UNL     1       6.764   4.737  15.363  0.00  0.00    +0.000 A 
ATOM      4  C   UNL     1       5.747   4.196  16.137  0.00  0.00    +0.000 A 
ATOM      5  C   UNL     1       5.282   4.874  17.273  0.00  0.00    +0.000 A 
ATOM      6  C   UNL     1       5.877   6.095  17.640  0.00  0.00    +0.000 A 
ENDROOT
BRANCH   5   7
ATOM      7  C   UNL     1       4.161   4.347  18.028  0.00  0.00    +0.000 A 
ATOM      8  C   UNL     1       3.969   4.531  19.382  0.00  0.00    +0.000 A 
ATOM      9  N   UNL     1       2.832   3.840  19.693  0.00  0.00    +0.000 N 
ATOM     10  C   UNL     1       2.198   3.693  20.923  0.00  0.00    +0.000 A 
ATOM     11  C   UNL     1       1.082   2.947  20.998  0.00  0.00    +0.000 A 
ATOM     12  C   UNL     1       0.579   2.314  19.785  0.00  0.00    +0.000 A 
ATOM     13  C   UNL     1       1.200   2.467  18.597  0.00  0.00    +0.000 A 
ATOM     14  C   UNL     1       2.382   3.257  18.513  0.00  0.00    +0.000 A 
ATOM     15  N   UNL     1       3.176   3.543  17.499  0.00  0.00    +0.000 NA
ENDBRANCH   5   7
BRANCH   1  18
ATOM     16  O   UNL     1       8.642   7.347  19.052  0.00  0.00    +0.000 OA
ATOM     17  C   UNL     1       8.206   8.184  18.271  0.00  0.00    +0.000 C 
ATOM     18  N   UNL     1       7.385   7.941  17.179  0.00  0.00    +0.000 N 
ATOM     19  H   UNL     1       7.276   8.669  16.487  0.00  0.00    +0.000 HD
BRANCH  17  20
ATOM     20  C   UNL     1       8.655   9.581  18.479  0.00  0.00    +0.000 A 
ATOM     21  C   UNL     1       9.726   9.912  19.316  0.00  0.00    +0.000 A 
ATOM     22  C   UNL     1      10.145  11.241  19.405  0.00  0.00    +0.000 A 
ATOM     23  C   UNL     1       9.499  12.235  18.661  0.00  0.00    +0.000 A 
ATOM     24  C   UNL     1       8.437  11.898  17.827  0.00  0.00    +0.000 A 
ATOM     25 CL   UNL     1       7.652  13.117  16.899  0.00  0.00    +0.000 Cl
ATOM     26  C   UNL     1       8.013  10.578  17.730  0.00  0.00    +0.000 A 
ENDBRANCH  17  20
ENDBRANCH   1  18
TORSDOF 3
ENDMDL
MODEL 9
REMARK VINA RESULT:      -7.8      1.304      1.945
REMARK  Name = 
REMARK  3 active torsions:
REMARK  status: ('A' for Active; 'I' for Inactive)
REMARK    1  A    between atoms: C_2  and  C_19
REMARK    2  A    between atoms: N_3  and  C_4
REMARK    3  A    between atoms: C_8  and  C_9
REMARK                            x       y       z     vdW  Elec       q    Type
REMARK                         _______ _______ _______ _____ _____    ______ ____
ROOT
ATOM      1  C   UNL     1       3.826   4.758  17.745  0.00  0.00    +0.000 A 
ATOM      2  C   UNL     1       3.697   3.683  18.632  0.00  0.00    +0.000 A 
ATOM      3  C   UNL     1       3.069   3.838  19.864  0.00  0.00    +0.000 A 
ATOM      4  C   UNL     1       2.552   5.075  20.223  0.00  0.00    +0.000 A 
ATOM      5  C   UNL     1       2.667   6.171  19.356  0.00  0.00    +0.000 A 
ATOM      6  C   UNL     1       3.340   6.014  18.131  0.00  0.00    +0.000 A 
ENDROOT
BRANCH   5   7
ATOM      7  C   UNL     1       2.047   7.438  19.697  0.00  0.00    +0.000 A 
ATOM      8  C   UNL     1       1.518   7.745  20.934  0.00  0.00    +0.000 A 
ATOM      9  N   UNL     1       1.002   9.005  20.812  0.00  0.00    +0.000 N 
ATOM     10  C   UNL     1       0.349   9.786  21.762  0.00  0.00    +0.000 A 
ATOM     11  C   UNL     1      -0.092  11.006  21.413  0.00  0.00    +0.000 A 
ATOM     12  C   UNL     1       0.127  11.468  20.047  0.00  0.00    +0.000 A 
ATOM     13  C   UNL     1       0.764  10.703  19.136  0.00  0.00    +0.000 A 
ATOM     14  C   UNL     1       1.233   9.410  19.502  0.00  0.00    +0.000 A 
ATOM     15  N   UNL     1       1.855   8.473  18.811  0.00  0.00    +0.000 NA
ENDBRANCH   5   7
BRANCH   1  18
ATOM     16  O   UNL     1       6.644   4.379  17.106  0.00  0.00    +0.000 OA
ATOM     17  C   UNL     1       5.775   4.458  16.247  0.00  0.00    +0.000 C 
ATOM     18  N   UNL     1       4.413   4.610  16.466  0.00  0.00    +0.000 N 
ATOM     19  H   UNL     1       3.780   4.438  15.698  0.00  0.00    +0.000 HD
BRANCH  17  20
ATOM     20  C   UNL     1       6.219   4.311  14.840  0.00  0.00    +0.000 A 
ATOM     21  C   UNL     1       5.576   3.463  13.931  0.00  0.00    +0.000 A 
ATOM     22  C   UNL     1       6.000   3.432  12.601  0.00  0.00    +0.000 A 
ATOM     23  C   UNL     1       7.059   4.245  12.179  0.00  0.00    +0.000 A 
ATOM     24  C   UNL     1       7.691   5.089  13.088  0.00  0.00    +0.000 A 
ATOM     25 CL   UNL     1       8.982   6.101  12.567  0.00  0.00    +0.000 Cl
ATOM     26  C   UNL     1       7.276   5.128  14.414  0.00  0.00    +0.000 A 
ENDBRANCH  17  20
ENDBRANCH   1  18
TORSDOF 3
ENDMDL
