MODEL 1
REMARK VINA RESULT:      -7.6      0.000      0.000
REMARK  Name = 
REMARK  8 active torsions:
REMARK  status: ('A' for Active; 'I' for Inactive)
REMARK    1  A    between atoms: C_1  and  C_2
REMARK    2  A    between atoms: C_2  and  O_3
REMARK    3  A    between atoms: C_2  and  C_24
REMARK    4  A    between atoms: O_3  and  C_4
REMARK    5  A    between atoms: C_10  and  C_11
REMARK    6  A    between atoms: C_12  and  C_13
REMARK    7  A    between atoms: C_13  and  O_15
REMARK    8  A    between atoms: C_16  and  N_17
REMARK                            x       y       z     vdW  Elec       q    Type
REMARK                         _______ _______ _______ _____ _____    ______ ____
ROOT
ATOM      1  C   UNL     1       2.512   6.131  19.215  0.00  0.00    +0.000 A 
ATOM      2  C   UNL     1       2.903   6.432  17.920  0.00  0.00    +0.000 A 
ATOM      3  C   UNL     1       2.743   7.712  17.414  0.00  0.00    +0.000 A 
ATOM      4  C   UNL     1       2.185   8.729  18.163  0.00  0.00    +0.000 A 
ATOM      5  N   UNL     1       2.138   9.911  17.541  0.00  0.00    +0.000 NA
ATOM      6  C   UNL     1       1.661  10.970  18.215  0.00  0.00    +0.000 A 
ATOM      7  C   UNL     1       1.187  10.927  19.520  0.00  0.00    +0.000 A 
ATOM      8  C   UNL     1       1.202   9.664  20.167  0.00  0.00    +0.000 A 
ATOM      9  C   UNL     1       1.747   8.493  19.490  0.00  0.00    +0.000 A 
ATOM     10  C   UNL     1       1.965   7.144  19.996  0.00  0.00    +0.000 A 
ENDROOT
BRANCH   8  11
ATOM     11  N   UNL     1       0.688   9.550  21.498  0.00  0.00    +0.000 N 
ATOM     12  C   UNL     1      -0.624   9.383  21.893  0.00  0.00    +0.000 A 
ATOM     13  C   UNL     1      -0.623   9.383  23.267  0.00  0.00    +0.000 A 
ATOM     14  N   UNL     1       0.648   9.489  23.745  0.00  0.00    +0.000 NA
ATOM     15  C   UNL     1       1.409   9.543  22.675  0.00  0.00    +0.000 A 
ENDBRANCH   8  11
BRANCH   7  16
ATOM     16  C   UNL     1       0.714  12.209  20.065  0.00  0.00    +0.000 C 
ATOM     17  C   UNL     1       1.462  13.058  20.787  0.00  0.00    +0.000 C 
BRANCH  17  18
ATOM     18  C   UNL     1       0.836  14.325  21.227  0.00  0.00    +0.000 C 
ATOM     19  O   UNL     1       0.046  14.970  20.555  0.00  0.00    +0.000 OA
BRANCH  18  20
ATOM     20  O   UNL     1       1.252  14.712  22.446  0.00  0.00    +0.000 OA
ATOM     21  H   UNL     1       0.558  15.022  23.057  0.00  0.00    +0.000 HD
ENDBRANCH  18  20
ENDBRANCH  17  18
ENDBRANCH   7  16
BRANCH   1  22
ATOM     22  O   UNL     1       2.743   4.830  19.533  0.00  0.00    +0.000 OA
BRANCH  22  24
ATOM     23  C   UNL     1       3.833   2.923  20.406  0.00  0.00    +0.000 C 
ATOM     24  C   UNL     1       4.052   4.269  19.711  0.00  0.00    +0.000 C 
BRANCH  24  25
ATOM     25  C   UNL     1       4.819   4.147  18.402  0.00  0.00    +0.000 A 
ATOM     26  C   UNL     1       4.329   3.447  17.282  0.00  0.00    +0.000 A 
ATOM     27 CL   UNL     1       3.082   2.253  17.393  0.00  0.00    +0.000 Cl
ATOM     28  C   UNL     1       4.867   3.663  16.006  0.00  0.00    +0.000 A 
ATOM     29  C   UNL     1       5.938   4.535  15.835  0.00  0.00    +0.000 A 
ATOM     30  C   UNL     1       6.544   5.082  16.955  0.00  0.00    +0.000 A 
ATOM     31  F   UNL     1       7.633   5.846  16.782  0.00  0.00    +0.000 F 
ATOM     32  C   UNL     1       6.023   4.862  18.233  0.00  0.00    +0.000 A 
ATOM     33 CL   UNL     1       6.921   5.455  19.589  0.00  0.00    +0.000 Cl
ENDBRANCH  24  25
ENDBRANCH  22  24
ENDBRANCH   1  22
TORSDOF 7
ENDMDL
MODEL 2
REMARK VINA RESULT:      -7.3      7.885     11.781
REMARK  Name = 
REMARK  8 active torsions:
REMARK  status: ('A' for Active; 'I' for Inactive)
REMARK    1  A    between atoms: C_1  and  C_2
REMARK    2  A    between atoms: C_2  and  O_3
REMARK    3  A    between atoms: C_2  and  C_24
REMARK    4  A    between atoms: O_3  and  C_4
REMARK    5  A    between atoms: C_10  and  C_11
REMARK    6  A    between atoms: C_12  and  C_13
REMARK    7  A    between atoms: C_13  and  O_15
REMARK    8  A    between atoms: C_16  and  N_17
REMARK                            x       y       z     vdW  Elec       q    Type
REMARK                         _______ _______ _______ _____ _____    ______ ____
ROOT
ATOM      1  C   UNL     1      -2.562  13.023  21.707  0.00  0.00    +0.000 A 
ATOM      2  C   UNL     1      -1.221  12.674  21.710  0.00  0.00    +0.000 A 
ATOM      3  C   UNL     1      -0.679  11.945  20.664  0.00  0.00    +0.000 A 
ATOM      4  C   UNL     1      -1.442  11.530  19.590  0.00  0.00    +0.000 A 
ATOM      5  N   UNL     1      -0.759  10.871  18.649  0.00  0.00    +0.000 NA
ATOM      6  C   UNL     1      -1.410  10.478  17.543  0.00  0.00    +0.000 A 
ATOM      7  C   UNL     1      -2.762  10.688  17.307  0.00  0.00    +0.000 A 
ATOM      8  C   UNL     1      -3.495  11.355  18.322  0.00  0.00    +0.000 A 
ATOM      9  C   UNL     1      -2.824  11.835  19.525  0.00  0.00    +0.000 A 
ATOM     10  C   UNL     1      -3.347  12.633  20.626  0.00  0.00    +0.000 A 
ENDROOT
BRANCH   8  11
ATOM     11  N   UNL     1      -4.902  11.563  18.153  0.00  0.00    +0.000 N 
ATOM     12  C   UNL     1      -5.942  10.848  18.711  0.00  0.00    +0.000 A 
ATOM     13  C   UNL     1      -7.102  11.388  18.210  0.00  0.00    +0.000 A 
ATOM     14  N   UNL     1      -6.826  12.451  17.403  0.00  0.00    +0.000 NA
ATOM     15  C   UNL     1      -5.516  12.559  17.421  0.00  0.00    +0.000 A 
ENDBRANCH   8  11
BRANCH   7  16
ATOM     16  C   UNL     1      -3.268  10.177  16.023  0.00  0.00    +0.000 C 
ATOM     17  C   UNL     1      -2.771  10.499  14.820  0.00  0.00    +0.000 C 
BRANCH  17  18
ATOM     18  C   UNL     1      -3.379   9.862  13.630  0.00  0.00    +0.000 C 
ATOM     19  O   UNL     1      -4.570   9.618  13.515  0.00  0.00    +0.000 OA
BRANCH  18  20
ATOM     20  O   UNL     1      -2.470   9.550  12.688  0.00  0.00    +0.000 OA
ATOM     21  H   UNL     1      -2.156   8.628  12.685  0.00  0.00    +0.000 HD
ENDBRANCH  18  20
ENDBRANCH  17  18
ENDBRANCH   7  16
BRANCH   1  22
ATOM     22  O   UNL     1      -2.913  13.731  22.812  0.00  0.00    +0.000 OA
BRANCH  22  24
ATOM     23  C   UNL     1      -4.136  12.529  24.438  0.00  0.00    +0.000 C 
ATOM     24  C   UNL     1      -4.210  13.672  23.423  0.00  0.00    +0.000 C 
BRANCH  24  25
ATOM     25  C   UNL     1      -4.625  14.997  24.047  0.00  0.00    +0.000 A 
ATOM     26  C   UNL     1      -3.754  15.794  24.817  0.00  0.00    +0.000 A 
ATOM     27 CL   UNL     1      -2.321  15.171  25.560  0.00  0.00    +0.000 Cl
ATOM     28  C   UNL     1      -4.036  17.146  25.053  0.00  0.00    +0.000 A 
ATOM     29  C   UNL     1      -5.216  17.710  24.575  0.00  0.00    +0.000 A 
ATOM     30  C   UNL     1      -6.160  16.889  23.980  0.00  0.00    +0.000 A 
ATOM     31  F   UNL     1      -7.331  17.428  23.609  0.00  0.00    +0.000 F 
ATOM     32  C   UNL     1      -5.894  15.536  23.752  0.00  0.00    +0.000 A 
ATOM     33 CL   UNL     1      -7.178  14.548  23.141  0.00  0.00    +0.000 Cl
ENDBRANCH  24  25
ENDBRANCH  22  24
ENDBRANCH   1  22
TORSDOF 7
ENDMDL
MODEL 3
REMARK VINA RESULT:      -7.2      7.574     11.367
REMARK  Name = 
REMARK  8 active torsions:
REMARK  status: ('A' for Active; 'I' for Inactive)
REMARK    1  A    between atoms: C_1  and  C_2
REMARK    2  A    between atoms: C_2  and  O_3
REMARK    3  A    between atoms: C_2  and  C_24
REMARK    4  A    between atoms: O_3  and  C_4
REMARK    5  A    between atoms: C_10  and  C_11
REMARK    6  A    between atoms: C_12  and  C_13
REMARK    7  A    between atoms: C_13  and  O_15
REMARK    8  A    between atoms: C_16  and  N_17
REMARK                            x       y       z     vdW  Elec       q    Type
REMARK                         _______ _______ _______ _____ _____    ______ ____
ROOT
ATOM      1  C   UNL     1      -2.328  12.640  21.382  0.00  0.00    +0.000 A 
ATOM      2  C   UNL     1      -1.019  12.192  21.312  0.00  0.00    +0.000 A 
ATOM      3  C   UNL     1      -0.581  11.460  20.221  0.00  0.00    +0.000 A 
ATOM      4  C   UNL     1      -1.419  11.139  19.172  0.00  0.00    +0.000 A 
ATOM      5  N   UNL     1      -0.830  10.464  18.180  0.00  0.00    +0.000 NA
ATOM      6  C   UNL     1      -1.558  10.158  17.094  0.00  0.00    +0.000 A 
ATOM      7  C   UNL     1      -2.899  10.476  16.927  0.00  0.00    +0.000 A 
ATOM      8  C   UNL     1      -3.533  11.161  17.995  0.00  0.00    +0.000 A 
ATOM      9  C   UNL     1      -2.775  11.549  19.179  0.00  0.00    +0.000 A 
ATOM     10  C   UNL     1      -3.187  12.346  20.328  0.00  0.00    +0.000 A 
ENDROOT
BRANCH   8  11
ATOM     11  N   UNL     1      -4.926  11.480  17.898  0.00  0.00    +0.000 N 
ATOM     12  C   UNL     1      -5.519  12.500  17.181  0.00  0.00    +0.000 A 
ATOM     13  C   UNL     1      -6.865  12.433  17.443  0.00  0.00    +0.000 A 
ATOM     14  N   UNL     1      -7.143  11.373  18.254  0.00  0.00    +0.000 NA
ATOM     15  C   UNL     1      -5.981  10.800  18.473  0.00  0.00    +0.000 A 
ENDBRANCH   8  11
BRANCH   7  16
ATOM     16  C   UNL     1      -3.498  10.048  15.654  0.00  0.00    +0.000 C 
ATOM     17  C   UNL     1      -2.993  10.315  14.440  0.00  0.00    +0.000 C 
BRANCH  17  18
ATOM     18  C   UNL     1      -3.708   9.774  13.262  0.00  0.00    +0.000 C 
ATOM     19  O   UNL     1      -4.902   9.521  13.239  0.00  0.00    +0.000 OA
BRANCH  18  20
ATOM     20  O   UNL     1      -2.891   9.561  12.214  0.00  0.00    +0.000 OA
ATOM     21  H   UNL     1      -2.540   8.657  12.122  0.00  0.00    +0.000 HD
ENDBRANCH  18  20
ENDBRANCH  17  18
ENDBRANCH   7  16
BRANCH   1  22
ATOM     22  O   UNL     1      -2.575  13.335  22.523  0.00  0.00    +0.000 OA
BRANCH  22  24
ATOM     23  C   UNL     1      -3.989  12.476  24.212  0.00  0.00    +0.000 C 
ATOM     24  C   UNL     1      -3.883  13.509  23.088  0.00  0.00    +0.000 C 
BRANCH  24  25
ATOM     25  C   UNL     1      -4.130  14.934  23.563  0.00  0.00    +0.000 A 
ATOM     26  C   UNL     1      -5.370  15.589  23.427  0.00  0.00    +0.000 A 
ATOM     27 CL   UNL     1      -6.579  15.084  22.297  0.00  0.00    +0.000 Cl
ATOM     28  C   UNL     1      -5.671  16.725  24.190  0.00  0.00    +0.000 A 
ATOM     29  C   UNL     1      -4.722  17.260  25.056  0.00  0.00    +0.000 A 
ATOM     30  C   UNL     1      -3.440  16.734  25.056  0.00  0.00    +0.000 A 
ATOM     31  F   UNL     1      -2.510  17.318  25.826  0.00  0.00    +0.000 F 
ATOM     32  C   UNL     1      -3.126  15.608  24.289  0.00  0.00    +0.000 A 
ATOM     33 CL   UNL     1      -1.472  15.104  24.229  0.00  0.00    +0.000 Cl
ENDBRANCH  24  25
ENDBRANCH  22  24
ENDBRANCH   1  22
TORSDOF 7
ENDMDL
MODEL 4
REMARK VINA RESULT:      -7.0      7.576     11.082
REMARK  Name = 
REMARK  8 active torsions:
REMARK  status: ('A' for Active; 'I' for Inactive)
REMARK    1  A    between atoms: C_1  and  C_2
REMARK    2  A    between atoms: C_2  and  O_3
REMARK    3  A    between atoms: C_2  and  C_24
REMARK    4  A    between atoms: O_3  and  C_4
REMARK    5  A    between atoms: C_10  and  C_11
REMARK    6  A    between atoms: C_12  and  C_13
REMARK    7  A    between atoms: C_13  and  O_15
REMARK    8  A    between atoms: C_16  and  N_17
REMARK                            x       y       z     vdW  Elec       q    Type
REMARK                         _______ _______ _______ _____ _____    ______ ____
ROOT
ATOM      1  C   UNL     1      -2.200  12.309  21.100  0.00  0.00    +0.000 A 
ATOM      2  C   UNL     1      -0.936  11.760  20.951  0.00  0.00    +0.000 A 
ATOM      3  C   UNL     1      -0.596  11.073  19.798  0.00  0.00    +0.000 A 
ATOM      4  C   UNL     1      -1.491  10.897  18.761  0.00  0.00    +0.000 A 
ATOM      5  N   UNL     1      -0.993  10.247  17.705  0.00  0.00    +0.000 NA
ATOM      6  C   UNL     1      -1.777  10.080  16.628  0.00  0.00    +0.000 A 
ATOM      7  C   UNL     1      -3.091  10.518  16.533  0.00  0.00    +0.000 A 
ATOM      8  C   UNL     1      -3.631  11.177  17.668  0.00  0.00    +0.000 A 
ATOM      9  C   UNL     1      -2.807  11.417  18.846  0.00  0.00    +0.000 A 
ATOM     10  C   UNL     1      -3.113  12.162  20.060  0.00  0.00    +0.000 A 
ENDROOT
BRANCH   8  11
ATOM     11  N   UNL     1      -4.994  11.615  17.643  0.00  0.00    +0.000 N 
ATOM     12  C   UNL     1      -5.529  12.698  16.975  0.00  0.00    +0.000 A 
ATOM     13  C   UNL     1      -6.863  12.740  17.301  0.00  0.00    +0.000 A 
ATOM     14  N   UNL     1      -7.193  11.690  18.104  0.00  0.00    +0.000 NA
ATOM     15  C   UNL     1      -6.076  11.016  18.256  0.00  0.00    +0.000 A 
ENDBRANCH   8  11
BRANCH   7  16
ATOM     16  C   UNL     1      -3.764  10.231  15.256  0.00  0.00    +0.000 C 
ATOM     17  C   UNL     1      -3.136   9.989  14.096  0.00  0.00    +0.000 C 
BRANCH  17  18
ATOM     18  C   UNL     1      -3.970   9.682  12.912  0.00  0.00    +0.000 C 
ATOM     19  O   UNL     1      -5.166   9.441  12.959  0.00  0.00    +0.000 OA
BRANCH  18  20
ATOM     20  O   UNL     1      -3.261   9.668  11.769  0.00  0.00    +0.000 OA
ATOM     21  H   UNL     1      -3.295  10.482  11.234  0.00  0.00    +0.000 HD
ENDBRANCH  18  20
ENDBRANCH  17  18
ENDBRANCH   7  16
BRANCH   1  22
ATOM     22  O   UNL     1      -2.351  12.939  22.293  0.00  0.00    +0.000 OA
BRANCH  22  24
ATOM     23  C   UNL     1      -3.314  13.701  24.313  0.00  0.00    +0.000 C 
ATOM     24  C   UNL     1      -3.623  13.231  22.890  0.00  0.00    +0.000 C 
BRANCH  24  25
ATOM     25  C   UNL     1      -4.427  14.244  22.089  0.00  0.00    +0.000 A 
ATOM     26  C   UNL     1      -3.883  15.448  21.598  0.00  0.00    +0.000 A 
ATOM     27 CL   UNL     1      -2.440  16.155  22.239  0.00  0.00    +0.000 Cl
ATOM     28  C   UNL     1      -4.520  16.161  20.573  0.00  0.00    +0.000 A 
ATOM     29  C   UNL     1      -5.736  15.718  20.062  0.00  0.00    +0.000 A 
ATOM     30  C   UNL     1      -6.367  14.642  20.667  0.00  0.00    +0.000 A 
ATOM     31  F   UNL     1      -7.582  14.284  20.225  0.00  0.00    +0.000 F 
ATOM     32  C   UNL     1      -5.746  13.932  21.698  0.00  0.00    +0.000 A 
ATOM     33 CL   UNL     1      -6.660  12.699  22.499  0.00  0.00    +0.000 Cl
ENDBRANCH  24  25
ENDBRANCH  22  24
ENDBRANCH   1  22
TORSDOF 7
ENDMDL
MODEL 5
REMARK VINA RESULT:      -7.0      7.958     11.579
REMARK  Name = 
REMARK  8 active torsions:
REMARK  status: ('A' for Active; 'I' for Inactive)
REMARK    1  A    between atoms: C_1  and  C_2
REMARK    2  A    between atoms: C_2  and  O_3
REMARK    3  A    between atoms: C_2  and  C_24
REMARK    4  A    between atoms: O_3  and  C_4
REMARK    5  A    between atoms: C_10  and  C_11
REMARK    6  A    between atoms: C_12  and  C_13
REMARK    7  A    between atoms: C_13  and  O_15
REMARK    8  A    between atoms: C_16  and  N_17
REMARK                            x       y       z     vdW  Elec       q    Type
REMARK                         _______ _______ _______ _____ _____    ______ ____
ROOT
ATOM      1  C   UNL     1      -2.586  12.744  21.748  0.00  0.00    +0.000 A 
ATOM      2  C   UNL     1      -1.234  12.451  21.654  0.00  0.00    +0.000 A 
ATOM      3  C   UNL     1      -0.714  11.876  20.506  0.00  0.00    +0.000 A 
ATOM      4  C   UNL     1      -1.508  11.563  19.421  0.00  0.00    +0.000 A 
ATOM      5  N   UNL     1      -0.845  11.051  18.380  0.00  0.00    +0.000 NA
ATOM      6  C   UNL     1      -1.531  10.769  17.261  0.00  0.00    +0.000 A 
ATOM      7  C   UNL     1      -2.899  10.951  17.106  0.00  0.00    +0.000 A 
ATOM      8  C   UNL     1      -3.609  11.460  18.224  0.00  0.00    +0.000 A 
ATOM      9  C   UNL     1      -2.902  11.818  19.449  0.00  0.00    +0.000 A 
ATOM     10  C   UNL     1      -3.403  12.455  20.659  0.00  0.00    +0.000 A 
ENDROOT
BRANCH   8  11
ATOM     11  N   UNL     1      -5.028  11.630  18.138  0.00  0.00    +0.000 N 
ATOM     12  C   UNL     1      -6.017  10.810  18.643  0.00  0.00    +0.000 A 
ATOM     13  C   UNL     1      -7.216  11.360  18.260  0.00  0.00    +0.000 A 
ATOM     14  N   UNL     1      -7.014  12.524  17.581  0.00  0.00    +0.000 NA
ATOM     15  C   UNL     1      -5.709  12.682  17.561  0.00  0.00    +0.000 A 
ENDBRANCH   8  11
BRANCH   7  16
ATOM     16  C   UNL     1      -3.443  10.578  15.791  0.00  0.00    +0.000 C 
ATOM     17  C   UNL     1      -2.709  10.177  14.743  0.00  0.00    +0.000 C 
BRANCH  17  18
ATOM     18  C   UNL     1      -3.424   9.804  13.502  0.00  0.00    +0.000 C 
ATOM     19  O   UNL     1      -4.639   9.739  13.403  0.00  0.00    +0.000 OA
BRANCH  18  20
ATOM     20  O   UNL     1      -2.588   9.513  12.489  0.00  0.00    +0.000 OA
ATOM     21  H   UNL     1      -2.929   9.679  11.591  0.00  0.00    +0.000 HD
ENDBRANCH  18  20
ENDBRANCH  17  18
ENDBRANCH   7  16
BRANCH   1  22
ATOM     22  O   UNL     1      -2.911  13.298  22.944  0.00  0.00    +0.000 OA
BRANCH  22  24
ATOM     23  C   UNL     1      -4.275  12.734  24.791  0.00  0.00    +0.000 C 
ATOM     24  C   UNL     1      -4.256  13.428  23.427  0.00  0.00    +0.000 C 
BRANCH  24  25
ATOM     25  C   UNL     1      -4.719  14.877  23.490  0.00  0.00    +0.000 A 
ATOM     26  C   UNL     1      -5.756  15.392  22.687  0.00  0.00    +0.000 A 
ATOM     27 CL   UNL     1      -6.281  14.626  21.226  0.00  0.00    +0.000 Cl
ATOM     28  C   UNL     1      -6.398  16.591  23.022  0.00  0.00    +0.000 A 
ATOM     29  C   UNL     1      -5.978  17.326  24.127  0.00  0.00    +0.000 A 
ATOM     30  C   UNL     1      -4.841  16.923  24.809  0.00  0.00    +0.000 A 
ATOM     31  F   UNL     1      -4.394  17.691  25.814  0.00  0.00    +0.000 F 
ATOM     32  C   UNL     1      -4.187  15.734  24.475  0.00  0.00    +0.000 A 
ATOM     33 CL   UNL     1      -2.693  15.378  25.274  0.00  0.00    +0.000 Cl
ENDBRANCH  24  25
ENDBRANCH  22  24
ENDBRANCH   1  22
TORSDOF 7
ENDMDL
MODEL 6
REMARK VINA RESULT:      -7.0      7.617     11.310
REMARK  Name = 
REMARK  8 active torsions:
REMARK  status: ('A' for Active; 'I' for Inactive)
REMARK    1  A    between atoms: C_1  and  C_2
REMARK    2  A    between atoms: C_2  and  O_3
REMARK    3  A    between atoms: C_2  and  C_24
REMARK    4  A    between atoms: O_3  and  C_4
REMARK    5  A    between atoms: C_10  and  C_11
REMARK    6  A    between atoms: C_12  and  C_13
REMARK    7  A    between atoms: C_13  and  O_15
REMARK    8  A    between atoms: C_16  and  N_17
REMARK                            x       y       z     vdW  Elec       q    Type
REMARK                         _______ _______ _______ _____ _____    ______ ____
ROOT
ATOM      1  C   UNL     1      -2.271  12.296  21.099  0.00  0.00    +0.000 A 
ATOM      2  C   UNL     1      -1.008  11.744  20.952  0.00  0.00    +0.000 A 
ATOM      3  C   UNL     1      -0.670  11.055  19.799  0.00  0.00    +0.000 A 
ATOM      4  C   UNL     1      -1.565  10.880  18.762  0.00  0.00    +0.000 A 
ATOM      5  N   UNL     1      -1.068  10.228  17.706  0.00  0.00    +0.000 NA
ATOM      6  C   UNL     1      -1.853  10.062  16.630  0.00  0.00    +0.000 A 
ATOM      7  C   UNL     1      -3.166  10.504  16.534  0.00  0.00    +0.000 A 
ATOM      8  C   UNL     1      -3.704  11.165  17.668  0.00  0.00    +0.000 A 
ATOM      9  C   UNL     1      -2.879  11.404  18.846  0.00  0.00    +0.000 A 
ATOM     10  C   UNL     1      -3.184  12.150  20.059  0.00  0.00    +0.000 A 
ENDROOT
BRANCH   8  11
ATOM     11  N   UNL     1      -5.066  11.607  17.642  0.00  0.00    +0.000 N 
ATOM     12  C   UNL     1      -5.595  12.698  16.983  0.00  0.00    +0.000 A 
ATOM     13  C   UNL     1      -6.930  12.740  17.304  0.00  0.00    +0.000 A 
ATOM     14  N   UNL     1      -7.266  11.683  18.095  0.00  0.00    +0.000 NA
ATOM     15  C   UNL     1      -6.151  11.004  18.245  0.00  0.00    +0.000 A 
ENDBRANCH   8  11
BRANCH   7  16
ATOM     16  C   UNL     1      -3.839  10.218  15.257  0.00  0.00    +0.000 C 
ATOM     17  C   UNL     1      -3.214  10.035  14.085  0.00  0.00    +0.000 C 
BRANCH  17  18
ATOM     18  C   UNL     1      -4.046   9.719  12.902  0.00  0.00    +0.000 C 
ATOM     19  O   UNL     1      -5.237   9.456  12.951  0.00  0.00    +0.000 OA
BRANCH  18  20
ATOM     20  O   UNL     1      -3.341   9.724  11.756  0.00  0.00    +0.000 OA
ATOM     21  H   UNL     1      -2.691  10.444  11.657  0.00  0.00    +0.000 HD
ENDBRANCH  18  20
ENDBRANCH  17  18
ENDBRANCH   7  16
BRANCH   1  22
ATOM     22  O   UNL     1      -2.420  12.928  22.293  0.00  0.00    +0.000 OA
BRANCH  22  24
ATOM     23  C   UNL     1      -3.871  12.522  24.114  0.00  0.00    +0.000 C 
ATOM     24  C   UNL     1      -3.687  13.334  22.830  0.00  0.00    +0.000 C 
BRANCH  24  25
ATOM     25  C   UNL     1      -3.771  14.837  23.058  0.00  0.00    +0.000 A 
ATOM     26  C   UNL     1      -2.723  15.593  23.620  0.00  0.00    +0.000 A 
ATOM     27 CL   UNL     1      -1.453  14.884  24.558  0.00  0.00    +0.000 Cl
ATOM     28  C   UNL     1      -2.681  16.986  23.473  0.00  0.00    +0.000 A 
ATOM     29  C   UNL     1      -3.711  17.653  22.816  0.00  0.00    +0.000 A 
ATOM     30  C   UNL     1      -4.833  16.939  22.427  0.00  0.00    +0.000 A 
ATOM     31  F   UNL     1      -5.858  17.609  21.879  0.00  0.00    +0.000 F 
ATOM     32  C   UNL     1      -4.890  15.551  22.581  0.00  0.00    +0.000 A 
ATOM     33 CL   UNL     1      -6.381  14.754  22.208  0.00  0.00    +0.000 Cl
ENDBRANCH  24  25
ENDBRANCH  22  24
ENDBRANCH   1  22
TORSDOF 7
ENDMDL
MODEL 7
REMARK VINA RESULT:      -7.0      2.402      3.715
REMARK  Name = 
REMARK  8 active torsions:
REMARK  status: ('A' for Active; 'I' for Inactive)
REMARK    1  A    between atoms: C_1  and  C_2
REMARK    2  A    between atoms: C_2  and  O_3
REMARK    3  A    between atoms: C_2  and  C_24
REMARK    4  A    between atoms: O_3  and  C_4
REMARK    5  A    between atoms: C_10  and  C_11
REMARK    6  A    between atoms: C_12  and  C_13
REMARK    7  A    between atoms: C_13  and  O_15
REMARK    8  A    between atoms: C_16  and  N_17
REMARK                            x       y       z     vdW  Elec       q    Type
REMARK                         _______ _______ _______ _____ _____    ______ ____
ROOT
ATOM      1  C   UNL     1       2.164   7.508  19.111  0.00  0.00    +0.000 A 
ATOM      2  C   UNL     1       1.914   6.635  20.157  0.00  0.00    +0.000 A 
ATOM      3  C   UNL     1       1.248   7.066  21.293  0.00  0.00    +0.000 A 
ATOM      4  C   UNL     1       0.817   8.370  21.437  0.00  0.00    +0.000 A 
ATOM      5  N   UNL     1       0.157   8.612  22.573  0.00  0.00    +0.000 NA
ATOM      6  C   UNL     1      -0.346   9.841  22.771  0.00  0.00    +0.000 A 
ATOM      7  C   UNL     1      -0.214  10.901  21.883  0.00  0.00    +0.000 A 
ATOM      8  C   UNL     1       0.517  10.653  20.693  0.00  0.00    +0.000 A 
ATOM      9  C   UNL     1       1.050   9.325  20.415  0.00  0.00    +0.000 A 
ATOM     10  C   UNL     1       1.722   8.823  19.224  0.00  0.00    +0.000 A 
ENDROOT
BRANCH   8  11
ATOM     11  N   UNL     1       0.721  11.719  19.759  0.00  0.00    +0.000 N 
ATOM     12  C   UNL     1      -0.138  12.166  18.775  0.00  0.00    +0.000 A 
ATOM     13  C   UNL     1       0.520  13.167  18.104  0.00  0.00    +0.000 A 
ATOM     14  N   UNL     1       1.738  13.401  18.668  0.00  0.00    +0.000 NA
ATOM     15  C   UNL     1       1.813  12.558  19.673  0.00  0.00    +0.000 A 
ENDBRANCH   8  11
BRANCH   7  16
ATOM     16  C   UNL     1      -0.850  12.160  22.301  0.00  0.00    +0.000 C 
ATOM     17  C   UNL     1      -1.972  12.248  23.031  0.00  0.00    +0.000 C 
BRANCH  17  18
ATOM     18  C   UNL     1      -2.455  13.599  23.394  0.00  0.00    +0.000 C 
ATOM     19  O   UNL     1      -1.856  14.633  23.142  0.00  0.00    +0.000 OA
BRANCH  18  20
ATOM     20  O   UNL     1      -3.622  13.570  24.062  0.00  0.00    +0.000 OA
ATOM     21  H   UNL     1      -3.618  13.089  24.909  0.00  0.00    +0.000 HD
ENDBRANCH  18  20
ENDBRANCH  17  18
ENDBRANCH   7  16
BRANCH   1  22
ATOM     22  O   UNL     1       2.829   6.910  18.088  0.00  0.00    +0.000 OA
BRANCH  22  24
ATOM     23  C   UNL     1       2.945   4.729  17.183  0.00  0.00    +0.000 C 
ATOM     24  C   UNL     1       3.555   5.678  18.217  0.00  0.00    +0.000 C 
BRANCH  24  25
ATOM     25  C   UNL     1       5.056   5.863  18.045  0.00  0.00    +0.000 A 
ATOM     26  C   UNL     1       5.624   6.686  17.052  0.00  0.00    +0.000 A 
ATOM     27 CL   UNL     1       4.763   7.176  15.633  0.00  0.00    +0.000 Cl
ATOM     28  C   UNL     1       6.951   7.124  17.153  0.00  0.00    +0.000 A 
ATOM     29  C   UNL     1       7.750   6.702  18.212  0.00  0.00    +0.000 A 
ATOM     30  C   UNL     1       7.257   5.746  19.087  0.00  0.00    +0.000 A 
ATOM     31  F   UNL     1       8.070   5.279  20.046  0.00  0.00    +0.000 F 
ATOM     32  C   UNL     1       5.938   5.294  18.987  0.00  0.00    +0.000 A 
ATOM     33 CL   UNL     1       5.445   3.996  20.020  0.00  0.00    +0.000 Cl
ENDBRANCH  24  25
ENDBRANCH  22  24
ENDBRANCH   1  22
TORSDOF 7
ENDMDL
MODEL 8
REMARK VINA RESULT:      -6.9      3.197      4.679
REMARK  Name = 
REMARK  8 active torsions:
REMARK  status: ('A' for Active; 'I' for Inactive)
REMARK    1  A    between atoms: C_1  and  C_2
REMARK    2  A    between atoms: C_2  and  O_3
REMARK    3  A    between atoms: C_2  and  C_24
REMARK    4  A    between atoms: O_3  and  C_4
REMARK    5  A    between atoms: C_10  and  C_11
REMARK    6  A    between atoms: C_12  and  C_13
REMARK    7  A    between atoms: C_13  and  O_15
REMARK    8  A    between atoms: C_16  and  N_17
REMARK                            x       y       z     vdW  Elec       q    Type
REMARK                         _______ _______ _______ _____ _____    ______ ____
ROOT
ATOM      1  C   UNL     1       1.437   8.408  20.596  0.00  0.00    +0.000 A 
ATOM      2  C   UNL     1       1.706   8.589  21.944  0.00  0.00    +0.000 A 
ATOM      3  C   UNL     1       1.012   9.534  22.681  0.00  0.00    +0.000 A 
ATOM      4  C   UNL     1       0.040  10.335  22.114  0.00  0.00    +0.000 A 
ATOM      5  N   UNL     1      -0.561  11.166  22.971  0.00  0.00    +0.000 NA
ATOM      6  C   UNL     1      -1.556  11.943  22.517  0.00  0.00    +0.000 A 
ATOM      7  C   UNL     1      -2.003  11.965  21.202  0.00  0.00    +0.000 A 
ATOM      8  C   UNL     1      -1.341  11.110  20.285  0.00  0.00    +0.000 A 
ATOM      9  C   UNL     1      -0.279  10.219  20.739  0.00  0.00    +0.000 A 
ATOM     10  C   UNL     1       0.448   9.190  20.007  0.00  0.00    +0.000 A 
ENDROOT
BRANCH   8  11
ATOM     11  N   UNL     1      -1.731  11.119  18.907  0.00  0.00    +0.000 N 
ATOM     12  C   UNL     1      -1.424  12.057  17.941  0.00  0.00    +0.000 A 
ATOM     13  C   UNL     1      -2.068  11.662  16.794  0.00  0.00    +0.000 A 
ATOM     14  N   UNL     1      -2.720  10.482  16.992  0.00  0.00    +0.000 NA
ATOM     15  C   UNL     1      -2.468  10.162  18.241  0.00  0.00    +0.000 A 
ENDBRANCH   8  11
BRANCH   7  16
ATOM     16  C   UNL     1      -3.112  12.892  20.925  0.00  0.00    +0.000 C 
ATOM     17  C   UNL     1      -4.276  12.917  21.593  0.00  0.00    +0.000 C 
BRANCH  17  18
ATOM     18  C   UNL     1      -5.271  13.942  21.206  0.00  0.00    +0.000 C 
ATOM     19  O   UNL     1      -6.197  14.303  21.916  0.00  0.00    +0.000 OA
BRANCH  18  20
ATOM     20  O   UNL     1      -5.064  14.422  19.967  0.00  0.00    +0.000 OA
ATOM     21  H   UNL     1      -4.225  14.897  19.826  0.00  0.00    +0.000 HD
ENDBRANCH  18  20
ENDBRANCH  17  18
ENDBRANCH   7  16
BRANCH   1  22
ATOM     22  O   UNL     1       2.216   7.445  20.041  0.00  0.00    +0.000 OA
BRANCH  22  24
ATOM     23  C   UNL     1       2.829   8.036  17.835  0.00  0.00    +0.000 C 
ATOM     24  C   UNL     1       2.090   6.997  18.683  0.00  0.00    +0.000 C 
BRANCH  24  25
ATOM     25  C   UNL     1       2.614   5.582  18.481  0.00  0.00    +0.000 A 
ATOM     26  C   UNL     1       1.997   4.444  19.038  0.00  0.00    +0.000 A 
ATOM     27 CL   UNL     1       0.912   4.528  20.383  0.00  0.00    +0.000 Cl
ATOM     28  C   UNL     1       2.269   3.162  18.540  0.00  0.00    +0.000 A 
ATOM     29  C   UNL     1       3.202   2.989  17.522  0.00  0.00    +0.000 A 
ATOM     30  C   UNL     1       3.947   4.079  17.100  0.00  0.00    +0.000 A 
ATOM     31  F   UNL     1       4.908   3.881  16.185  0.00  0.00    +0.000 F 
ATOM     32  C   UNL     1       3.692   5.359  17.600  0.00  0.00    +0.000 A 
ATOM     33 CL   UNL     1       4.761   6.639  17.135  0.00  0.00    +0.000 Cl
ENDBRANCH  24  25
ENDBRANCH  22  24
ENDBRANCH   1  22
TORSDOF 7
ENDMDL
MODEL 9
REMARK VINA RESULT:      -6.9      6.683     10.813
REMARK  Name = 
REMARK  8 active torsions:
REMARK  status: ('A' for Active; 'I' for Inactive)
REMARK    1  A    between atoms: C_1  and  C_2
REMARK    2  A    between atoms: C_2  and  O_3
REMARK    3  A    between atoms: C_2  and  C_24
REMARK    4  A    between atoms: O_3  and  C_4
REMARK    5  A    between atoms: C_10  and  C_11
REMARK    6  A    between atoms: C_12  and  C_13
REMARK    7  A    between atoms: C_13  and  O_15
REMARK    8  A    between atoms: C_16  and  N_17
REMARK                            x       y       z     vdW  Elec       q    Type
REMARK                         _______ _______ _______ _____ _____    ______ ____
ROOT
ATOM      1  C   UNL     1      -3.256  14.137  21.289  0.00  0.00    +0.000 A 
ATOM      2  C   UNL     1      -2.424  14.363  22.374  0.00  0.00    +0.000 A 
ATOM      3  C   UNL     1      -1.217  13.694  22.490  0.00  0.00    +0.000 A 
ATOM      4  C   UNL     1      -0.797  12.776  21.547  0.00  0.00    +0.000 A 
ATOM      5  N   UNL     1       0.408  12.250  21.787  0.00  0.00    +0.000 NA
ATOM      6  C   UNL     1       0.920  11.390  20.892  0.00  0.00    +0.000 A 
ATOM      7  C   UNL     1       0.276  10.982  19.731  0.00  0.00    +0.000 A 
ATOM      8  C   UNL     1      -1.019  11.513  19.496  0.00  0.00    +0.000 A 
ATOM      9  C   UNL     1      -1.601  12.481  20.418  0.00  0.00    +0.000 A 
ATOM     10  C   UNL     1      -2.845  13.231  20.316  0.00  0.00    +0.000 A 
ENDROOT
BRANCH   8  11
ATOM     11  N   UNL     1      -1.748  11.098  18.335  0.00  0.00    +0.000 N 
ATOM     12  C   UNL     1      -1.852  11.742  17.119  0.00  0.00    +0.000 A 
ATOM     13  C   UNL     1      -2.700  10.986  16.346  0.00  0.00    +0.000 A 
ATOM     14  N   UNL     1      -3.086   9.864  17.017  0.00  0.00    +0.000 NA
ATOM     15  C   UNL     1      -2.473   9.934  18.176  0.00  0.00    +0.000 A 
ENDBRANCH   8  11
BRANCH   7  16
ATOM     16  C   UNL     1       1.024  10.034  18.891  0.00  0.00    +0.000 C 
ATOM     17  C   UNL     1       1.427   8.816  19.281  0.00  0.00    +0.000 C 
BRANCH  17  18
ATOM     18  C   UNL     1       2.140   7.976  18.293  0.00  0.00    +0.000 C 
ATOM     19  O   UNL     1       2.276   6.766  18.391  0.00  0.00    +0.000 OA
BRANCH  18  20
ATOM     20  O   UNL     1       2.652   8.694  17.277  0.00  0.00    +0.000 OA
ATOM     21  H   UNL     1       2.085   9.404  16.927  0.00  0.00    +0.000 HD
ENDBRANCH  18  20
ENDBRANCH  17  18
ENDBRANCH   7  16
BRANCH   1  22
ATOM     22  O   UNL     1      -4.394  14.877  21.350  0.00  0.00    +0.000 OA
BRANCH  22  24
ATOM     23  C   UNL     1      -6.259  15.804  22.467  0.00  0.00    +0.000 C 
ATOM     24  C   UNL     1      -5.559  14.495  22.095  0.00  0.00    +0.000 C 
BRANCH  24  25
ATOM     25  C   UNL     1      -6.457  13.535  21.327  0.00  0.00    +0.000 A 
ATOM     26  C   UNL     1      -6.691  13.638  19.941  0.00  0.00    +0.000 A 
ATOM     27 CL   UNL     1      -6.419  15.096  19.049  0.00  0.00    +0.000 Cl
ATOM     28  C   UNL     1      -7.200  12.553  19.215  0.00  0.00    +0.000 A 
ATOM     29  C   UNL     1      -7.539  11.371  19.866  0.00  0.00    +0.000 A 
ATOM     30  C   UNL     1      -7.488  11.327  21.250  0.00  0.00    +0.000 A 
ATOM     31  F   UNL     1      -7.906  10.213  21.869  0.00  0.00    +0.000 F 
ATOM     32  C   UNL     1      -6.993  12.409  21.984  0.00  0.00    +0.000 A 
ATOM     33 CL   UNL     1      -7.101  12.334  23.710  0.00  0.00    +0.000 Cl
ENDBRANCH  24  25
ENDBRANCH  22  24
ENDBRANCH   1  22
TORSDOF 7
ENDMDL
