MODEL 1
REMARK VINA RESULT:      -7.2      0.000      0.000
REMARK  Name = 
REMARK  5 active torsions:
REMARK  status: ('A' for Active; 'I' for Inactive)
REMARK    1  A    between atoms: C_1  and  C_2
REMARK    2  A    between atoms: C_2  and  C_4
REMARK    3  A    between atoms: C_8  and  N_9
REMARK    4  A    between atoms: C_10  and  C_11
REMARK    5  A    between atoms: C_17  and  C_18
REMARK                            x       y       z     vdW  Elec       q    Type
REMARK                         _______ _______ _______ _____ _____    ______ ____
ROOT
ATOM      1  N   UNL     1       2.802   5.608  19.584  0.00  0.00    +0.000 N 
ATOM      2  C   UNL     1       2.209   5.010  20.691  0.00  0.00    +0.000 A 
ATOM      3  C   UNL     1       2.548   3.652  21.209  0.00  0.00    +0.000 C 
ATOM      4  N   UNL     1       1.362   5.841  21.285  0.00  0.00    +0.000 NA
ATOM      5  C   UNL     1       1.422   7.021  20.573  0.00  0.00    +0.000 A 
ATOM      6  C   UNL     1       0.789   8.255  20.634  0.00  0.00    +0.000 A 
ATOM      7 CL   UNL     1      -0.378   8.526  21.834  0.00  0.00    +0.000 Cl
ATOM      8  N   UNL     1       1.040   9.243  19.747  0.00  0.00    +0.000 NA
ATOM      9  C   UNL     1       1.945   8.992  18.783  0.00  0.00    +0.000 A 
ATOM     10  C   UNL     1       2.223  10.047  17.753  0.00  0.00    +0.000 C 
ATOM     11  N   UNL     1       2.624   7.850  18.627  0.00  0.00    +0.000 NA
ATOM     12  C   UNL     1       2.332   6.909  19.542  0.00  0.00    +0.000 A 
ENDROOT
BRANCH   1  17
ATOM     13  C   UNL     1       5.937   4.719  17.811  0.00  0.00    +0.000 A 
ATOM     14  C   UNL     1       5.425   4.104  16.661  0.00  0.00    +0.000 A 
ATOM     15  C   UNL     1       4.046   3.955  16.496  0.00  0.00    +0.000 A 
ATOM     16  C   UNL     1       3.170   4.436  17.465  0.00  0.00    +0.000 A 
ATOM     17  C   UNL     1       3.672   5.041  18.617  0.00  0.00    +0.000 A 
ATOM     18  C   UNL     1       5.059   5.170  18.790  0.00  0.00    +0.000 A 
BRANCH  13  20
ATOM     19  C   UNL     1       7.932   5.876  18.976  0.00  0.00    +0.000 C 
ATOM     20  C   UNL     1       7.412   4.895  17.952  0.00  0.00    +0.000 C 
ATOM     21  O   UNL     1       8.169   4.238  17.251  0.00  0.00    +0.000 OA
ENDBRANCH  13  20
ENDBRANCH   1  17
TORSDOF 2
ENDMDL
MODEL 2
REMARK VINA RESULT:      -7.1      3.707      6.194
REMARK  Name = 
REMARK  5 active torsions:
REMARK  status: ('A' for Active; 'I' for Inactive)
REMARK    1  A    between atoms: C_1  and  C_2
REMARK    2  A    between atoms: C_2  and  C_4
REMARK    3  A    between atoms: C_8  and  N_9
REMARK    4  A    between atoms: C_10  and  C_11
REMARK    5  A    between atoms: C_17  and  C_18
REMARK                            x       y       z     vdW  Elec       q    Type
REMARK                         _______ _______ _______ _____ _____    ______ ____
ROOT
ATOM      1  N   UNL     1       3.325   5.908  17.906  0.00  0.00    +0.000 N 
ATOM      2  C   UNL     1       2.959   4.655  17.422  0.00  0.00    +0.000 A 
ATOM      3  C   UNL     1       1.593   4.066  17.532  0.00  0.00    +0.000 C 
ATOM      4  N   UNL     1       3.963   4.086  16.767  0.00  0.00    +0.000 NA
ATOM      5  C   UNL     1       5.001   4.994  16.794  0.00  0.00    +0.000 A 
ATOM      6  C   UNL     1       6.312   5.024  16.337  0.00  0.00    +0.000 A 
ATOM      7 CL   UNL     1       6.934   3.671  15.526  0.00  0.00    +0.000 Cl
ATOM      8  N   UNL     1       7.129   6.080  16.548  0.00  0.00    +0.000 NA
ATOM      9  C   UNL     1       6.623   7.127  17.225  0.00  0.00    +0.000 A 
ATOM     10  C   UNL     1       7.508   8.302  17.517  0.00  0.00    +0.000 C 
ATOM     11  N   UNL     1       5.377   7.219  17.704  0.00  0.00    +0.000 NA
ATOM     12  C   UNL     1       4.614   6.139  17.460  0.00  0.00    +0.000 A 
ENDROOT
BRANCH   1  17
ATOM     13  C   UNL     1       1.573   8.969  19.056  0.00  0.00    +0.000 A 
ATOM     14  C   UNL     1       1.323   8.643  20.395  0.00  0.00    +0.000 A 
ATOM     15  C   UNL     1       1.703   7.397  20.900  0.00  0.00    +0.000 A 
ATOM     16  C   UNL     1       2.352   6.479  20.081  0.00  0.00    +0.000 A 
ATOM     17  C   UNL     1       2.597   6.792  18.743  0.00  0.00    +0.000 A 
ATOM     18  C   UNL     1       2.195   8.037  18.232  0.00  0.00    +0.000 A 
BRANCH  13  20
ATOM     19  C   UNL     1      -0.275  10.698  18.534  0.00  0.00    +0.000 C 
ATOM     20  C   UNL     1       1.186  10.317  18.545  0.00  0.00    +0.000 C 
ATOM     21  O   UNL     1       2.054  11.088  18.160  0.00  0.00    +0.000 OA
ENDBRANCH  13  20
ENDBRANCH   1  17
TORSDOF 2
ENDMDL
MODEL 3
REMARK VINA RESULT:      -7.1      4.669      6.987
REMARK  Name = 
REMARK  5 active torsions:
REMARK  status: ('A' for Active; 'I' for Inactive)
REMARK    1  A    between atoms: C_1  and  C_2
REMARK    2  A    between atoms: C_2  and  C_4
REMARK    3  A    between atoms: C_8  and  N_9
REMARK    4  A    between atoms: C_10  and  C_11
REMARK    5  A    between atoms: C_17  and  C_18
REMARK                            x       y       z     vdW  Elec       q    Type
REMARK                         _______ _______ _______ _____ _____    ______ ____
ROOT
ATOM      1  N   UNL     1       5.726   5.328  16.447  0.00  0.00    +0.000 N 
ATOM      2  C   UNL     1       6.870   6.018  16.834  0.00  0.00    +0.000 A 
ATOM      3  C   UNL     1       7.124   6.541  18.208  0.00  0.00    +0.000 C 
ATOM      4  N   UNL     1       7.751   6.074  15.843  0.00  0.00    +0.000 NA
ATOM      5  C   UNL     1       7.189   5.381  14.792  0.00  0.00    +0.000 A 
ATOM      6  C   UNL     1       7.551   5.087  13.484  0.00  0.00    +0.000 A 
ATOM      7 CL   UNL     1       9.030   5.663  12.888  0.00  0.00    +0.000 Cl
ATOM      8  N   UNL     1       6.750   4.388  12.650  0.00  0.00    +0.000 NA
ATOM      9  C   UNL     1       5.566   3.972  13.135  0.00  0.00    +0.000 A 
ATOM     10  C   UNL     1       4.628   3.229  12.230  0.00  0.00    +0.000 C 
ATOM     11  N   UNL     1       5.113   4.184  14.376  0.00  0.00    +0.000 NA
ATOM     12  C   UNL     1       5.956   4.881  15.157  0.00  0.00    +0.000 A 
ENDROOT
BRANCH   1  17
ATOM     13  C   UNL     1       2.905   3.600  18.124  0.00  0.00    +0.000 A 
ATOM     14  C   UNL     1       2.053   4.680  18.388  0.00  0.00    +0.000 A 
ATOM     15  C   UNL     1       2.433   5.979  18.042  0.00  0.00    +0.000 A 
ATOM     16  C   UNL     1       3.653   6.206  17.413  0.00  0.00    +0.000 A 
ATOM     17  C   UNL     1       4.512   5.136  17.154  0.00  0.00    +0.000 A 
ATOM     18  C   UNL     1       4.136   3.834  17.523  0.00  0.00    +0.000 A 
BRANCH  13  20
ATOM     19  C   UNL     1       1.021   1.987  18.849  0.00  0.00    +0.000 C 
ATOM     20  C   UNL     1       2.465   2.217  18.475  0.00  0.00    +0.000 C 
ATOM     21  O   UNL     1       3.273   1.300  18.439  0.00  0.00    +0.000 OA
ENDBRANCH  13  20
ENDBRANCH   1  17
TORSDOF 2
ENDMDL
MODEL 4
REMARK VINA RESULT:      -6.9      2.505      4.792
REMARK  Name = 
REMARK  5 active torsions:
REMARK  status: ('A' for Active; 'I' for Inactive)
REMARK    1  A    between atoms: C_1  and  C_2
REMARK    2  A    between atoms: C_2  and  C_4
REMARK    3  A    between atoms: C_8  and  N_9
REMARK    4  A    between atoms: C_10  and  C_11
REMARK    5  A    between atoms: C_17  and  C_18
REMARK                            x       y       z     vdW  Elec       q    Type
REMARK                         _______ _______ _______ _____ _____    ______ ____
ROOT
ATOM      1  N   UNL     1       4.071   5.019  18.834  0.00  0.00    +0.000 N 
ATOM      2  C   UNL     1       2.858   5.693  18.932  0.00  0.00    +0.000 A 
ATOM      3  C   UNL     1       2.486   6.895  18.130  0.00  0.00    +0.000 C 
ATOM      4  N   UNL     1       2.036   5.075  19.770  0.00  0.00    +0.000 NA
ATOM      5  C   UNL     1       2.710   3.955  20.209  0.00  0.00    +0.000 A 
ATOM      6  C   UNL     1       2.448   2.918  21.096  0.00  0.00    +0.000 A 
ATOM      7 CL   UNL     1       0.968   2.893  21.923  0.00  0.00    +0.000 Cl
ATOM      8  N   UNL     1       3.347   1.942  21.355  0.00  0.00    +0.000 NA
ATOM      9  C   UNL     1       4.528   2.003  20.712  0.00  0.00    +0.000 A 
ATOM     10  C   UNL     1       5.569   0.964  21.002  0.00  0.00    +0.000 C 
ATOM     11  N   UNL     1       4.890   2.943  19.832  0.00  0.00    +0.000 NA
ATOM     12  C   UNL     1       3.952   3.883  19.615  0.00  0.00    +0.000 A 
ENDROOT
BRANCH   1  17
ATOM     13  C   UNL     1       6.561   5.334  16.102  0.00  0.00    +0.000 A 
ATOM     14  C   UNL     1       7.622   5.948  16.781  0.00  0.00    +0.000 A 
ATOM     15  C   UNL     1       7.493   6.287  18.129  0.00  0.00    +0.000 A 
ATOM     16  C   UNL     1       6.317   5.998  18.814  0.00  0.00    +0.000 A 
ATOM     17  C   UNL     1       5.252   5.395  18.144  0.00  0.00    +0.000 A 
ATOM     18  C   UNL     1       5.376   5.074  16.782  0.00  0.00    +0.000 A 
BRANCH  13  20
ATOM     19  C   UNL     1       5.726   4.015  14.044  0.00  0.00    +0.000 C 
ATOM     20  C   UNL     1       6.731   4.952  14.670  0.00  0.00    +0.000 C 
ATOM     21  O   UNL     1       7.666   5.411  14.029  0.00  0.00    +0.000 OA
ENDBRANCH  13  20
ENDBRANCH   1  17
TORSDOF 2
ENDMDL
MODEL 5
REMARK VINA RESULT:      -6.8      4.740      7.059
REMARK  Name = 
REMARK  5 active torsions:
REMARK  status: ('A' for Active; 'I' for Inactive)
REMARK    1  A    between atoms: C_1  and  C_2
REMARK    2  A    between atoms: C_2  and  C_4
REMARK    3  A    between atoms: C_8  and  N_9
REMARK    4  A    between atoms: C_10  and  C_11
REMARK    5  A    between atoms: C_17  and  C_18
REMARK                            x       y       z     vdW  Elec       q    Type
REMARK                         _______ _______ _______ _____ _____    ______ ____
ROOT
ATOM      1  N   UNL     1       5.794   4.707  16.265  0.00  0.00    +0.000 N 
ATOM      2  C   UNL     1       6.863   5.477  16.711  0.00  0.00    +0.000 A 
ATOM      3  C   UNL     1       7.103   5.856  18.135  0.00  0.00    +0.000 C 
ATOM      4  N   UNL     1       7.697   5.757  15.717  0.00  0.00    +0.000 NA
ATOM      5  C   UNL     1       7.182   5.134  14.600  0.00  0.00    +0.000 A 
ATOM      6  C   UNL     1       7.530   5.046  13.259  0.00  0.00    +0.000 A 
ATOM      7 CL   UNL     1       8.911   5.862  12.709  0.00  0.00    +0.000 Cl
ATOM      8  N   UNL     1       6.786   4.362  12.361  0.00  0.00    +0.000 NA
ATOM      9  C   UNL     1       5.676   3.753  12.814  0.00  0.00    +0.000 A 
ATOM     10  C   UNL     1       4.800   3.018  11.843  0.00  0.00    +0.000 C 
ATOM     11  N   UNL     1       5.245   3.757  14.081  0.00  0.00    +0.000 NA
ATOM     12  C   UNL     1       6.028   4.450  14.926  0.00  0.00    +0.000 A 
ENDROOT
BRANCH   1  17
ATOM     13  C   UNL     1       2.902   4.801  18.586  0.00  0.00    +0.000 A 
ATOM     14  C   UNL     1       2.461   3.474  18.512  0.00  0.00    +0.000 A 
ATOM     15  C   UNL     1       3.100   2.564  17.666  0.00  0.00    +0.000 A 
ATOM     16  C   UNL     1       4.194   2.966  16.907  0.00  0.00    +0.000 A 
ATOM     17  C   UNL     1       4.635   4.289  16.968  0.00  0.00    +0.000 A 
ATOM     18  C   UNL     1       3.977   5.206  17.803  0.00  0.00    +0.000 A 
BRANCH  13  20
ATOM     19  C   UNL     1       1.443   5.186  20.683  0.00  0.00    +0.000 C 
ATOM     20  C   UNL     1       2.224   5.748  19.519  0.00  0.00    +0.000 C 
ATOM     21  O   UNL     1       2.323   6.953  19.334  0.00  0.00    +0.000 OA
ENDBRANCH  13  20
ENDBRANCH   1  17
TORSDOF 2
ENDMDL
MODEL 6
REMARK VINA RESULT:      -6.7      3.559      6.260
REMARK  Name = 
REMARK  5 active torsions:
REMARK  status: ('A' for Active; 'I' for Inactive)
REMARK    1  A    between atoms: C_1  and  C_2
REMARK    2  A    between atoms: C_2  and  C_4
REMARK    3  A    between atoms: C_8  and  N_9
REMARK    4  A    between atoms: C_10  and  C_11
REMARK    5  A    between atoms: C_17  and  C_18
REMARK                            x       y       z     vdW  Elec       q    Type
REMARK                         _______ _______ _______ _____ _____    ______ ____
ROOT
ATOM      1  N   UNL     1       3.200   5.939  18.310  0.00  0.00    +0.000 N 
ATOM      2  C   UNL     1       4.109   5.651  17.297  0.00  0.00    +0.000 A 
ATOM      3  C   UNL     1       4.782   6.672  16.442  0.00  0.00    +0.000 C 
ATOM      4  N   UNL     1       4.371   4.351  17.249  0.00  0.00    +0.000 NA
ATOM      5  C   UNL     1       3.643   3.776  18.269  0.00  0.00    +0.000 A 
ATOM      6  C   UNL     1       3.441   2.487  18.745  0.00  0.00    +0.000 A 
ATOM      7 CL   UNL     1       4.216   1.191  17.975  0.00  0.00    +0.000 Cl
ATOM      8  N   UNL     1       2.615   2.219  19.782  0.00  0.00    +0.000 NA
ATOM      9  C   UNL     1       1.984   3.261  20.354  0.00  0.00    +0.000 A 
ATOM     10  C   UNL     1       1.027   3.003  21.480  0.00  0.00    +0.000 C 
ATOM     11  N   UNL     1       2.106   4.543  19.992  0.00  0.00    +0.000 NA
ATOM     12  C   UNL     1       2.943   4.744  18.959  0.00  0.00    +0.000 A 
ENDROOT
BRANCH   1  17
ATOM     13  C   UNL     1       1.469   8.563  20.281  0.00  0.00    +0.000 A 
ATOM     14  C   UNL     1       1.180   9.498  19.279  0.00  0.00    +0.000 A 
ATOM     15  C   UNL     1       1.591   9.272  17.963  0.00  0.00    +0.000 A 
ATOM     16  C   UNL     1       2.274   8.105  17.635  0.00  0.00    +0.000 A 
ATOM     17  C   UNL     1       2.574   7.172  18.628  0.00  0.00    +0.000 A 
ATOM     18  C   UNL     1       2.178   7.412  19.954  0.00  0.00    +0.000 A 
BRANCH  13  20
ATOM     19  C   UNL     1      -0.446   8.506  22.014  0.00  0.00    +0.000 C 
ATOM     20  C   UNL     1       0.993   8.810  21.673  0.00  0.00    +0.000 C 
ATOM     21  O   UNL     1       1.774   9.239  22.511  0.00  0.00    +0.000 OA
ENDBRANCH  13  20
ENDBRANCH   1  17
TORSDOF 2
ENDMDL
MODEL 7
REMARK VINA RESULT:      -6.7      4.950      6.919
REMARK  Name = 
REMARK  5 active torsions:
REMARK  status: ('A' for Active; 'I' for Inactive)
REMARK    1  A    between atoms: C_1  and  C_2
REMARK    2  A    between atoms: C_2  and  C_4
REMARK    3  A    between atoms: C_8  and  N_9
REMARK    4  A    between atoms: C_10  and  C_11
REMARK    5  A    between atoms: C_17  and  C_18
REMARK                            x       y       z     vdW  Elec       q    Type
REMARK                         _______ _______ _______ _____ _____    ______ ____
ROOT
ATOM      1  N   UNL     1       5.812   4.644  16.403  0.00  0.00    +0.000 N 
ATOM      2  C   UNL     1       6.786   5.533  16.847  0.00  0.00    +0.000 A 
ATOM      3  C   UNL     1       6.955   5.972  18.264  0.00  0.00    +0.000 C 
ATOM      4  N   UNL     1       7.605   5.874  15.861  0.00  0.00    +0.000 NA
ATOM      5  C   UNL     1       7.181   5.172  14.752  0.00  0.00    +0.000 A 
ATOM      6  C   UNL     1       7.564   5.087  13.420  0.00  0.00    +0.000 A 
ATOM      7 CL   UNL     1       8.863   6.030  12.872  0.00  0.00    +0.000 Cl
ATOM      8  N   UNL     1       6.914   4.306  12.528  0.00  0.00    +0.000 NA
ATOM      9  C   UNL     1       5.865   3.595  12.979  0.00  0.00    +0.000 A 
ATOM     10  C   UNL     1       5.090   2.748  12.013  0.00  0.00    +0.000 C 
ATOM     11  N   UNL     1       5.410   3.587  14.237  0.00  0.00    +0.000 NA
ATOM     12  C   UNL     1       6.099   4.380  15.076  0.00  0.00    +0.000 A 
ENDROOT
BRANCH   1  17
ATOM     13  C   UNL     1       3.814   2.984  19.052  0.00  0.00    +0.000 A 
ATOM     14  C   UNL     1       2.557   2.927  18.437  0.00  0.00    +0.000 A 
ATOM     15  C   UNL     1       2.369   3.470  17.164  0.00  0.00    +0.000 A 
ATOM     16  C   UNL     1       3.436   4.054  16.489  0.00  0.00    +0.000 A 
ATOM     17  C   UNL     1       4.690   4.124  17.097  0.00  0.00    +0.000 A 
ATOM     18  C   UNL     1       4.871   3.596  18.386  0.00  0.00    +0.000 A 
BRANCH  13  20
ATOM     19  C   UNL     1       2.887   2.490  21.412  0.00  0.00    +0.000 C 
ATOM     20  C   UNL     1       4.000   2.370  20.399  0.00  0.00    +0.000 C 
ATOM     21  O   UNL     1       5.038   1.774  20.653  0.00  0.00    +0.000 OA
ENDBRANCH  13  20
ENDBRANCH   1  17
TORSDOF 2
ENDMDL
MODEL 8
REMARK VINA RESULT:      -6.6      2.657      4.746
REMARK  Name = 
REMARK  5 active torsions:
REMARK  status: ('A' for Active; 'I' for Inactive)
REMARK    1  A    between atoms: C_1  and  C_2
REMARK    2  A    between atoms: C_2  and  C_4
REMARK    3  A    between atoms: C_8  and  N_9
REMARK    4  A    between atoms: C_10  and  C_11
REMARK    5  A    between atoms: C_17  and  C_18
REMARK                            x       y       z     vdW  Elec       q    Type
REMARK                         _______ _______ _______ _____ _____    ______ ____
ROOT
ATOM      1  N   UNL     1       3.863   5.516  17.869  0.00  0.00    +0.000 N 
ATOM      2  C   UNL     1       2.872   6.419  18.242  0.00  0.00    +0.000 A 
ATOM      3  C   UNL     1       2.849   7.862  17.863  0.00  0.00    +0.000 C 
ATOM      4  N   UNL     1       1.899   5.809  18.907  0.00  0.00    +0.000 NA
ATOM      5  C   UNL     1       2.241   4.474  18.945  0.00  0.00    +0.000 A 
ATOM      6  C   UNL     1       1.695   3.321  19.495  0.00  0.00    +0.000 A 
ATOM      7 CL   UNL     1       0.246   3.429  20.370  0.00  0.00    +0.000 Cl
ATOM      8  N   UNL     1       2.296   2.115  19.391  0.00  0.00    +0.000 NA
ATOM      9  C   UNL     1       3.463   2.061  18.723  0.00  0.00    +0.000 A 
ATOM     10  C   UNL     1       4.184   0.750  18.621  0.00  0.00    +0.000 C 
ATOM     11  N   UNL     1       4.079   3.097  18.144  0.00  0.00    +0.000 NA
ATOM     12  C   UNL     1       3.430   4.268  18.278  0.00  0.00    +0.000 A 
ENDROOT
BRANCH   1  17
ATOM     13  C   UNL     1       6.581   5.430  15.346  0.00  0.00    +0.000 A 
ATOM     14  C   UNL     1       7.613   6.067  16.048  0.00  0.00    +0.000 A 
ATOM     15  C   UNL     1       7.392   6.555  17.338  0.00  0.00    +0.000 A 
ATOM     16  C   UNL     1       6.150   6.391  17.944  0.00  0.00    +0.000 A 
ATOM     17  C   UNL     1       5.115   5.765  17.249  0.00  0.00    +0.000 A 
ATOM     18  C   UNL     1       5.333   5.295  15.944  0.00  0.00    +0.000 A 
BRANCH  13  20
ATOM     19  C   UNL     1       6.016   3.732  13.482  0.00  0.00    +0.000 C 
ATOM     20  C   UNL     1       6.848   4.889  13.981  0.00  0.00    +0.000 C 
ATOM     21  O   UNL     1       7.721   5.398  13.290  0.00  0.00    +0.000 OA
ENDBRANCH  13  20
ENDBRANCH   1  17
TORSDOF 2
ENDMDL
MODEL 9
REMARK VINA RESULT:      -6.4      3.809      6.099
REMARK  Name = 
REMARK  5 active torsions:
REMARK  status: ('A' for Active; 'I' for Inactive)
REMARK    1  A    between atoms: C_1  and  C_2
REMARK    2  A    between atoms: C_2  and  C_4
REMARK    3  A    between atoms: C_8  and  N_9
REMARK    4  A    between atoms: C_10  and  C_11
REMARK    5  A    between atoms: C_17  and  C_18
REMARK                            x       y       z     vdW  Elec       q    Type
REMARK                         _______ _______ _______ _____ _____    ______ ____
ROOT
ATOM      1  N   UNL     1       3.824   5.219  17.722  0.00  0.00    +0.000 N 
ATOM      2  C   UNL     1       3.592   4.087  16.948  0.00  0.00    +0.000 A 
ATOM      3  C   UNL     1       2.347   3.266  16.993  0.00  0.00    +0.000 C 
ATOM      4  N   UNL     1       4.588   3.881  16.095  0.00  0.00    +0.000 NA
ATOM      5  C   UNL     1       5.479   4.915  16.291  0.00  0.00    +0.000 A 
ATOM      6  C   UNL     1       6.711   5.282  15.766  0.00  0.00    +0.000 A 
ATOM      7 CL   UNL     1       7.427   4.305  14.579  0.00  0.00    +0.000 Cl
ATOM      8  N   UNL     1       7.385   6.373  16.194  0.00  0.00    +0.000 NA
ATOM      9  C   UNL     1       6.812   7.113  17.161  0.00  0.00    +0.000 A 
ATOM     10  C   UNL     1       7.545   8.308  17.694  0.00  0.00    +0.000 C 
ATOM     11  N   UNL     1       5.629   6.867  17.734  0.00  0.00    +0.000 NA
ATOM     12  C   UNL     1       5.007   5.771  17.264  0.00  0.00    +0.000 A 
ENDROOT
BRANCH   1  17
ATOM     13  C   UNL     1       1.873   7.581  19.814  0.00  0.00    +0.000 A 
ATOM     14  C   UNL     1       1.749   6.843  20.999  0.00  0.00    +0.000 A 
ATOM     15  C   UNL     1       2.280   5.554  21.086  0.00  0.00    +0.000 A 
ATOM     16  C   UNL     1       2.955   5.002  20.003  0.00  0.00    +0.000 A 
ATOM     17  C   UNL     1       3.076   5.726  18.816  0.00  0.00    +0.000 A 
ATOM     18  C   UNL     1       2.522   7.013  18.723  0.00  0.00    +0.000 A 
BRANCH  13  20
ATOM     19  C   UNL     1       0.893   9.635  21.037  0.00  0.00    +0.000 C 
ATOM     20  C   UNL     1       1.326   8.967  19.753  0.00  0.00    +0.000 C 
ATOM     21  O   UNL     1       1.250   9.540  18.675  0.00  0.00    +0.000 OA
ENDBRANCH  13  20
ENDBRANCH   1  17
TORSDOF 2
ENDMDL
