MODEL 1
REMARK VINA RESULT:      -8.6      0.000      0.000
REMARK  Name = 
REMARK  6 active torsions:
REMARK  status: ('A' for Active; 'I' for Inactive)
REMARK    1  A    between atoms: C_2  and  C_20
REMARK    2  A    between atoms: N_3  and  C_4
REMARK    3  A    between atoms: C_8  and  N_9
REMARK    4  A    between atoms: C_13  and  C_14
REMARK    5  A    between atoms: C_22  and  C_23
REMARK    6  A    between atoms: C_29  and  N_30
REMARK                            x       y       z     vdW  Elec       q    Type
REMARK                         _______ _______ _______ _____ _____    ______ ____
ROOT
ATOM      1  O   UNL     1       4.208   6.526  17.161  0.00  0.00    +0.000 OA
ATOM      2  C   UNL     1       4.363   5.388  16.734  0.00  0.00    +0.000 C 
ATOM      3  N   UNL     1       3.710   4.273  17.222  0.00  0.00    +0.000 N 
ATOM      4  H   UNL     1       3.810   3.408  16.708  0.00  0.00    +0.000 HD
ENDROOT
BRANCH   2   5
ATOM      5  C   UNL     1       5.370   5.120  15.674  0.00  0.00    +0.000 A 
ATOM      6  C   UNL     1       4.891   4.471  14.518  0.00  0.00    +0.000 A 
ATOM      7  C   UNL     1       5.762   4.053  13.500  0.00  0.00    +0.000 A 
ATOM      8  C   UNL     1       7.136   4.269  13.662  0.00  0.00    +0.000 A 
ATOM      9  C   UNL     1       7.628   4.872  14.823  0.00  0.00    +0.000 A 
ATOM     10  C   UNL     1       6.752   5.312  15.833  0.00  0.00    +0.000 A 
BRANCH  10  11
ATOM     11  N   UNL     1       7.309   5.940  16.975  0.00  0.00    +0.000 N 
ATOM     12  N   UNL     1       7.609   5.227  18.101  0.00  0.00    +0.000 NA
ATOM     13  C   UNL     1       8.009   6.186  18.937  0.00  0.00    +0.000 A 
ATOM     14  C   UNL     1       8.086   7.404  18.259  0.00  0.00    +0.000 A 
ATOM     15  N   UNL     1       7.719   7.238  16.987  0.00  0.00    +0.000 NA
ENDBRANCH  10  11
BRANCH   7  16
ATOM     16  C   UNL     1       5.237   3.367  12.262  0.00  0.00    +0.000 C 
ATOM     17  F   UNL     1       3.880   3.253  12.246  0.00  0.00    +0.000 F 
ATOM     18  F   UNL     1       5.568   4.034  11.123  0.00  0.00    +0.000 F 
ATOM     19  F   UNL     1       5.722   2.105  12.118  0.00  0.00    +0.000 F 
ENDBRANCH   7  16
ENDBRANCH   2   5
BRANCH   3  20
ATOM     20  C   UNL     1       2.563   4.388  18.123  0.00  0.00    +0.000 C 
ATOM     21  C   UNL     1       1.871   3.032  18.298  0.00  0.00    +0.000 C 
ATOM     22  C   UNL     1       2.559   2.358  19.485  0.00  0.00    +0.000 C 
ATOM     23  C   UNL     1       3.366   3.439  20.197  0.00  0.00    +0.000 C 
ATOM     24  C   UNL     1       2.954   4.768  19.568  0.00  0.00    +0.000 C 
BRANCH  24  25
ATOM     25  N   UNL     1       1.812   5.365  20.269  0.00  0.00    +0.000 N 
ATOM     26  C   UNL     1       1.613   6.732  20.151  0.00  0.00    +0.000 A 
ATOM     27  C   UNL     1       1.798   7.458  18.974  0.00  0.00    +0.000 A 
ATOM     28  N   UNL     1       1.622   8.801  18.877  0.00  0.00    +0.000 NA
ATOM     29  C   UNL     1       1.200   9.425  20.008  0.00  0.00    +0.000 A 
ATOM     30  C   UNL     1       0.961   8.695  21.165  0.00  0.00    +0.000 A 
ATOM     31  N   UNL     1       1.170   7.356  21.262  0.00  0.00    +0.000 NA
ATOM     32  H   UNL     1       1.706   5.116  21.249  0.00  0.00    +0.000 HD
BRANCH  29  33
ATOM     33  C   UNL     1       0.979  10.918  20.027  0.00  0.00    +0.000 C 
ATOM     34  F   UNL     1       1.701  11.604  19.098  0.00  0.00    +0.000 F 
ATOM     35  F   UNL     1      -0.325  11.259  19.812  0.00  0.00    +0.000 F 
ATOM     36  F   UNL     1       1.305  11.477  21.230  0.00  0.00    +0.000 F 
ENDBRANCH  29  33
ENDBRANCH  24  25
ENDBRANCH   3  20
TORSDOF 6
ENDMDL
MODEL 2
REMARK VINA RESULT:      -7.9      1.863      8.863
REMARK  Name = 
REMARK  6 active torsions:
REMARK  status: ('A' for Active; 'I' for Inactive)
REMARK    1  A    between atoms: C_2  and  C_20
REMARK    2  A    between atoms: N_3  and  C_4
REMARK    3  A    between atoms: C_8  and  N_9
REMARK    4  A    between atoms: C_13  and  C_14
REMARK    5  A    between atoms: C_22  and  C_23
REMARK    6  A    between atoms: C_29  and  N_30
REMARK                            x       y       z     vdW  Elec       q    Type
REMARK                         _______ _______ _______ _____ _____    ______ ____
ROOT
ATOM      1  O   UNL     1       3.688   5.242  17.018  0.00  0.00    +0.000 OA
ATOM      2  C   UNL     1       3.815   6.014  17.961  0.00  0.00    +0.000 C 
ATOM      3  N   UNL     1       4.920   6.814  18.175  0.00  0.00    +0.000 N 
ATOM      4  H   UNL     1       4.861   7.510  18.907  0.00  0.00    +0.000 HD
ENDROOT
BRANCH   2   5
ATOM      5  C   UNL     1       2.775   6.072  19.021  0.00  0.00    +0.000 A 
ATOM      6  C   UNL     1       2.361   7.362  19.409  0.00  0.00    +0.000 A 
ATOM      7  C   UNL     1       1.477   7.554  20.482  0.00  0.00    +0.000 A 
ATOM      8  C   UNL     1       1.025   6.434  21.189  0.00  0.00    +0.000 A 
ATOM      9  C   UNL     1       1.463   5.152  20.842  0.00  0.00    +0.000 A 
ATOM     10  C   UNL     1       2.330   4.958  19.751  0.00  0.00    +0.000 A 
BRANCH  10  11
ATOM     11  N   UNL     1       2.717   3.632  19.432  0.00  0.00    +0.000 N 
ATOM     12  N   UNL     1       3.834   3.068  19.979  0.00  0.00    +0.000 NA
ATOM     13  C   UNL     1       3.880   1.888  19.360  0.00  0.00    +0.000 A 
ATOM     14  C   UNL     1       2.730   1.713  18.589  0.00  0.00    +0.000 A 
ATOM     15  N   UNL     1       1.945   2.787  18.695  0.00  0.00    +0.000 NA
ENDBRANCH  10  11
BRANCH   7  16
ATOM     16  C   UNL     1       1.034   8.941  20.883  0.00  0.00    +0.000 C 
ATOM     17  F   UNL     1       1.638   9.391  22.019  0.00  0.00    +0.000 F 
ATOM     18  F   UNL     1       1.306   9.867  19.925  0.00  0.00    +0.000 F 
ATOM     19  F   UNL     1      -0.304   9.015  21.114  0.00  0.00    +0.000 F 
ENDBRANCH   7  16
ENDBRANCH   2   5
BRANCH   3  20
ATOM     20  C   UNL     1       5.934   7.015  17.141  0.00  0.00    +0.000 C 
ATOM     21  C   UNL     1       7.044   7.947  17.640  0.00  0.00    +0.000 C 
ATOM     22  C   UNL     1       8.090   7.044  18.294  0.00  0.00    +0.000 C 
ATOM     23  C   UNL     1       7.771   5.616  17.861  0.00  0.00    +0.000 C 
ATOM     24  C   UNL     1       6.702   5.724  16.775  0.00  0.00    +0.000 C 
BRANCH  24  25
ATOM     25  N   UNL     1       7.298   5.842  15.441  0.00  0.00    +0.000 N 
ATOM     26  C   UNL     1       6.870   4.968  14.453  0.00  0.00    +0.000 A 
ATOM     27  C   UNL     1       5.546   4.564  14.277  0.00  0.00    +0.000 A 
ATOM     28  N   UNL     1       5.141   3.689  13.321  0.00  0.00    +0.000 NA
ATOM     29  C   UNL     1       6.112   3.241  12.481  0.00  0.00    +0.000 A 
ATOM     30  C   UNL     1       7.420   3.687  12.619  0.00  0.00    +0.000 A 
ATOM     31  N   UNL     1       7.822   4.538  13.599  0.00  0.00    +0.000 NA
ATOM     32  H   UNL     1       8.314   5.883  15.404  0.00  0.00    +0.000 HD
BRANCH  29  33
ATOM     33  C   UNL     1       5.787   2.258  11.383  0.00  0.00    +0.000 C 
ATOM     34  F   UNL     1       4.676   2.570  10.660  0.00  0.00    +0.000 F 
ATOM     35  F   UNL     1       6.799   2.130  10.476  0.00  0.00    +0.000 F 
ATOM     36  F   UNL     1       5.570   0.997  11.862  0.00  0.00    +0.000 F 
ENDBRANCH  29  33
ENDBRANCH  24  25
ENDBRANCH   3  20
TORSDOF 6
ENDMDL
MODEL 3
REMARK VINA RESULT:      -7.8      4.531      7.363
REMARK  Name = 
REMARK  6 active torsions:
REMARK  status: ('A' for Active; 'I' for Inactive)
REMARK    1  A    between atoms: C_2  and  C_20
REMARK    2  A    between atoms: N_3  and  C_4
REMARK    3  A    between atoms: C_8  and  N_9
REMARK    4  A    between atoms: C_13  and  C_14
REMARK    5  A    between atoms: C_22  and  C_23
REMARK    6  A    between atoms: C_29  and  N_30
REMARK                            x       y       z     vdW  Elec       q    Type
REMARK                         _______ _______ _______ _____ _____    ______ ____
ROOT
ATOM      1  O   UNL     1       2.381  10.128  18.251  0.00  0.00    +0.000 OA
ATOM      2  C   UNL     1       1.529   9.335  18.636  0.00  0.00    +0.000 C 
ATOM      3  N   UNL     1       0.176   9.606  18.693  0.00  0.00    +0.000 N 
ATOM      4  H   UNL     1      -0.449   8.837  18.897  0.00  0.00    +0.000 HD
ENDROOT
BRANCH   2   5
ATOM      5  C   UNL     1       1.933   8.007  19.167  0.00  0.00    +0.000 A 
ATOM      6  C   UNL     1       2.571   7.145  18.252  0.00  0.00    +0.000 A 
ATOM      7  C   UNL     1       2.889   5.822  18.595  0.00  0.00    +0.000 A 
ATOM      8  C   UNL     1       2.539   5.355  19.866  0.00  0.00    +0.000 A 
ATOM      9  C   UNL     1       1.866   6.186  20.767  0.00  0.00    +0.000 A 
ATOM     10  C   UNL     1       1.568   7.520  20.432  0.00  0.00    +0.000 A 
BRANCH  10  11
ATOM     11  N   UNL     1       0.909   8.321  21.399  0.00  0.00    +0.000 N 
ATOM     12  N   UNL     1       1.608   9.150  22.229  0.00  0.00    +0.000 NA
ATOM     13  C   UNL     1       0.645   9.630  23.016  0.00  0.00    +0.000 A 
ATOM     14  C   UNL     1      -0.602   9.206  22.551  0.00  0.00    +0.000 A 
ATOM     15  N   UNL     1      -0.445   8.438  21.472  0.00  0.00    +0.000 NA
ENDBRANCH  10  11
BRANCH   7  16
ATOM     16  C   UNL     1       3.580   4.911  17.610  0.00  0.00    +0.000 C 
ATOM     17  F   UNL     1       4.542   4.132  18.180  0.00  0.00    +0.000 F 
ATOM     18  F   UNL     1       2.715   4.051  17.007  0.00  0.00    +0.000 F 
ATOM     19  F   UNL     1       4.195   5.594  16.608  0.00  0.00    +0.000 F 
ENDBRANCH   7  16
ENDBRANCH   2   5
BRANCH   3  20
ATOM     20  C   UNL     1      -0.400  10.781  18.039  0.00  0.00    +0.000 C 
ATOM     21  C   UNL     1      -1.613  10.390  17.188  0.00  0.00    +0.000 C 
ATOM     22  C   UNL     1      -2.826  10.484  18.114  0.00  0.00    +0.000 C 
ATOM     23  C   UNL     1      -2.376  11.257  19.350  0.00  0.00    +0.000 C 
ATOM     24  C   UNL     1      -0.988  11.810  19.031  0.00  0.00    +0.000 C 
BRANCH  24  25
ATOM     25  N   UNL     1      -1.066  13.136  18.410  0.00  0.00    +0.000 N 
ATOM     26  C   UNL     1       0.026  13.982  18.534  0.00  0.00    +0.000 A 
ATOM     27  C   UNL     1       1.357  13.570  18.457  0.00  0.00    +0.000 A 
ATOM     28  N   UNL     1       2.418  14.404  18.604  0.00  0.00    +0.000 NA
ATOM     29  C   UNL     1       2.116  15.716  18.791  0.00  0.00    +0.000 A 
ATOM     30  C   UNL     1       0.793  16.136  18.811  0.00  0.00    +0.000 A 
ATOM     31  N   UNL     1      -0.264  15.290  18.696  0.00  0.00    +0.000 NA
ATOM     32  H   UNL     1      -1.905  13.676  18.607  0.00  0.00    +0.000 HD
BRANCH  29  33
ATOM     33  C   UNL     1       3.211  16.738  18.977  0.00  0.00    +0.000 C 
ATOM     34  F   UNL     1       2.812  17.883  19.597  0.00  0.00    +0.000 F 
ATOM     35  F   UNL     1       4.257  16.261  19.713  0.00  0.00    +0.000 F 
ATOM     36  F   UNL     1       3.758  17.136  17.790  0.00  0.00    +0.000 F 
ENDBRANCH  29  33
ENDBRANCH  24  25
ENDBRANCH   3  20
TORSDOF 6
ENDMDL
MODEL 4
REMARK VINA RESULT:      -7.8      4.570      7.352
REMARK  Name = 
REMARK  6 active torsions:
REMARK  status: ('A' for Active; 'I' for Inactive)
REMARK    1  A    between atoms: C_2  and  C_20
REMARK    2  A    between atoms: N_3  and  C_4
REMARK    3  A    between atoms: C_8  and  N_9
REMARK    4  A    between atoms: C_13  and  C_14
REMARK    5  A    between atoms: C_22  and  C_23
REMARK    6  A    between atoms: C_29  and  N_30
REMARK                            x       y       z     vdW  Elec       q    Type
REMARK                         _______ _______ _______ _____ _____    ______ ____
ROOT
ATOM      1  O   UNL     1       2.565   9.407  17.628  0.00  0.00    +0.000 OA
ATOM      2  C   UNL     1       1.821   8.977  18.502  0.00  0.00    +0.000 C 
ATOM      3  N   UNL     1       0.794   9.697  19.080  0.00  0.00    +0.000 N 
ATOM      4  H   UNL     1       0.159   9.201  19.692  0.00  0.00    +0.000 HD
ENDROOT
BRANCH   2   5
ATOM      5  C   UNL     1       2.046   7.623  19.073  0.00  0.00    +0.000 A 
ATOM      6  C   UNL     1       2.604   6.669  18.198  0.00  0.00    +0.000 A 
ATOM      7  C   UNL     1       2.751   5.327  18.577  0.00  0.00    +0.000 A 
ATOM      8  C   UNL     1       2.308   4.935  19.845  0.00  0.00    +0.000 A 
ATOM      9  C   UNL     1       1.712   5.862  20.707  0.00  0.00    +0.000 A 
ATOM     10  C   UNL     1       1.586   7.213  20.335  0.00  0.00    +0.000 A 
BRANCH  10  11
ATOM     11  N   UNL     1       0.999   8.110  21.262  0.00  0.00    +0.000 N 
ATOM     12  N   UNL     1      -0.351   8.128  21.473  0.00  0.00    +0.000 NA
ATOM     13  C   UNL     1      -0.484   9.148  22.322  0.00  0.00    +0.000 A 
ATOM     14  C   UNL     1       0.775   9.608  22.711  0.00  0.00    +0.000 A 
ATOM     15  N   UNL     1       1.726   8.897  22.101  0.00  0.00    +0.000 NA
ENDBRANCH  10  11
BRANCH   7  16
ATOM     16  C   UNL     1       3.358   4.316  17.634  0.00  0.00    +0.000 C 
ATOM     17  F   UNL     1       4.111   3.374  18.268  0.00  0.00    +0.000 F 
ATOM     18  F   UNL     1       2.413   3.628  16.937  0.00  0.00    +0.000 F 
ATOM     19  F   UNL     1       4.172   4.887  16.708  0.00  0.00    +0.000 F 
ENDBRANCH   7  16
ENDBRANCH   2   5
BRANCH   3  20
ATOM     20  C   UNL     1       0.325  10.959  18.509  0.00  0.00    +0.000 C 
ATOM     21  C   UNL     1      -1.123  10.830  18.021  0.00  0.00    +0.000 C 
ATOM     22  C   UNL     1      -2.003  11.204  19.214  0.00  0.00    +0.000 C 
ATOM     23  C   UNL     1      -1.094  11.879  20.237  0.00  0.00    +0.000 C 
ATOM     24  C   UNL     1       0.245  12.108  19.538  0.00  0.00    +0.000 C 
BRANCH  24  25
ATOM     25  N   UNL     1       0.284  13.408  18.862  0.00  0.00    +0.000 N 
ATOM     26  C   UNL     1       1.408  14.202  19.035  0.00  0.00    +0.000 A 
ATOM     27  C   UNL     1       2.717  13.720  19.075  0.00  0.00    +0.000 A 
ATOM     28  N   UNL     1       3.808  14.504  19.269  0.00  0.00    +0.000 NA
ATOM     29  C   UNL     1       3.565  15.837  19.382  0.00  0.00    +0.000 A 
ATOM     30  C   UNL     1       2.268  16.325  19.284  0.00  0.00    +0.000 A 
ATOM     31  N   UNL     1       1.179  15.529  19.122  0.00  0.00    +0.000 NA
ATOM     32  H   UNL     1      -0.536  13.998  18.973  0.00  0.00    +0.000 HD
BRANCH  29  33
ATOM     33  C   UNL     1       4.697  16.809  19.609  0.00  0.00    +0.000 C 
ATOM     34  F   UNL     1       5.715  16.318  20.368  0.00  0.00    +0.000 F 
ATOM     35  F   UNL     1       5.270  17.230  18.444  0.00  0.00    +0.000 F 
ATOM     36  F   UNL     1       4.284  17.948  20.241  0.00  0.00    +0.000 F 
ENDBRANCH  29  33
ENDBRANCH  24  25
ENDBRANCH   3  20
TORSDOF 6
ENDMDL
MODEL 5
REMARK VINA RESULT:      -7.7      2.991      8.645
REMARK  Name = 
REMARK  6 active torsions:
REMARK  status: ('A' for Active; 'I' for Inactive)
REMARK    1  A    between atoms: C_2  and  C_20
REMARK    2  A    between atoms: N_3  and  C_4
REMARK    3  A    between atoms: C_8  and  N_9
REMARK    4  A    between atoms: C_13  and  C_14
REMARK    5  A    between atoms: C_22  and  C_23
REMARK    6  A    between atoms: C_29  and  N_30
REMARK                            x       y       z     vdW  Elec       q    Type
REMARK                         _______ _______ _______ _____ _____    ______ ____
ROOT
ATOM      1  O   UNL     1       2.378   9.910  17.988  0.00  0.00    +0.000 OA
ATOM      2  C   UNL     1       1.368   9.599  18.609  0.00  0.00    +0.000 C 
ATOM      3  N   UNL     1       1.229   8.442  19.350  0.00  0.00    +0.000 N 
ATOM      4  H   UNL     1       0.406   8.351  19.930  0.00  0.00    +0.000 HD
ENDROOT
BRANCH   2   5
ATOM      5  C   UNL     1       0.152  10.449  18.527  0.00  0.00    +0.000 A 
ATOM      6  C   UNL     1      -0.987   9.843  17.960  0.00  0.00    +0.000 A 
ATOM      7  C   UNL     1      -2.159  10.574  17.714  0.00  0.00    +0.000 A 
ATOM      8  C   UNL     1      -2.174  11.940  18.020  0.00  0.00    +0.000 A 
ATOM      9  C   UNL     1      -1.037  12.563  18.541  0.00  0.00    +0.000 A 
ATOM     10  C   UNL     1       0.130  11.825  18.810  0.00  0.00    +0.000 A 
BRANCH  10  11
ATOM     11  N   UNL     1       1.242  12.508  19.364  0.00  0.00    +0.000 N 
ATOM     12  N   UNL     1       1.527  12.434  20.697  0.00  0.00    +0.000 NA
ATOM     13  C   UNL     1       2.560  13.270  20.806  0.00  0.00    +0.000 A 
ATOM     14  C   UNL     1       2.959  13.697  19.538  0.00  0.00    +0.000 A 
ATOM     15  N   UNL     1       2.174  13.150  18.608  0.00  0.00    +0.000 NA
ENDBRANCH  10  11
BRANCH   7  16
ATOM     16  C   UNL     1      -3.376   9.912  17.114  0.00  0.00    +0.000 C 
ATOM     17  F   UNL     1      -3.880   8.911  17.889  0.00  0.00    +0.000 F 
ATOM     18  F   UNL     1      -4.400  10.787  16.926  0.00  0.00    +0.000 F 
ATOM     19  F   UNL     1      -3.123   9.356  15.899  0.00  0.00    +0.000 F 
ENDBRANCH   7  16
ENDBRANCH   2   5
BRANCH   3  20
ATOM     20  C   UNL     1       2.379   7.602  19.684  0.00  0.00    +0.000 C 
ATOM     21  C   UNL     1       2.099   6.770  20.941  0.00  0.00    +0.000 C 
ATOM     22  C   UNL     1       1.466   5.467  20.452  0.00  0.00    +0.000 C 
ATOM     23  C   UNL     1       1.713   5.397  18.948  0.00  0.00    +0.000 C 
ATOM     24  C   UNL     1       2.686   6.527  18.617  0.00  0.00    +0.000 C 
BRANCH  24  25
ATOM     25  N   UNL     1       4.081   6.085  18.720  0.00  0.00    +0.000 N 
ATOM     26  C   UNL     1       4.771   5.818  17.547  0.00  0.00    +0.000 A 
ATOM     27  C   UNL     1       4.664   6.575  16.379  0.00  0.00    +0.000 A 
ATOM     28  N   UNL     1       5.327   6.290  15.229  0.00  0.00    +0.000 NA
ATOM     29  C   UNL     1       6.165   5.221  15.280  0.00  0.00    +0.000 A 
ATOM     30  C   UNL     1       6.316   4.502  16.458  0.00  0.00    +0.000 A 
ATOM     31  N   UNL     1       5.624   4.775  17.595  0.00  0.00    +0.000 NA
ATOM     32  H   UNL     1       4.265   5.327  19.371  0.00  0.00    +0.000 HD
BRANCH  29  33
ATOM     33  C   UNL     1       6.950   4.800  14.061  0.00  0.00    +0.000 C 
ATOM     34  F   UNL     1       6.422   5.223  12.878  0.00  0.00    +0.000 F 
ATOM     35  F   UNL     1       8.236   5.258  14.079  0.00  0.00    +0.000 F 
ATOM     36  F   UNL     1       7.052   3.442  13.952  0.00  0.00    +0.000 F 
ENDBRANCH  29  33
ENDBRANCH  24  25
ENDBRANCH   3  20
TORSDOF 6
ENDMDL
MODEL 6
REMARK VINA RESULT:      -7.7      3.019      8.669
REMARK  Name = 
REMARK  6 active torsions:
REMARK  status: ('A' for Active; 'I' for Inactive)
REMARK    1  A    between atoms: C_2  and  C_20
REMARK    2  A    between atoms: N_3  and  C_4
REMARK    3  A    between atoms: C_8  and  N_9
REMARK    4  A    between atoms: C_13  and  C_14
REMARK    5  A    between atoms: C_22  and  C_23
REMARK    6  A    between atoms: C_29  and  N_30
REMARK                            x       y       z     vdW  Elec       q    Type
REMARK                         _______ _______ _______ _____ _____    ______ ____
ROOT
ATOM      1  O   UNL     1       2.457  10.046  18.154  0.00  0.00    +0.000 OA
ATOM      2  C   UNL     1       1.410   9.666  18.665  0.00  0.00    +0.000 C 
ATOM      3  N   UNL     1       1.242   8.449  19.297  0.00  0.00    +0.000 N 
ATOM      4  H   UNL     1       0.378   8.296  19.799  0.00  0.00    +0.000 HD
ENDROOT
BRANCH   2   5
ATOM      5  C   UNL     1       0.182  10.497  18.555  0.00  0.00    +0.000 A 
ATOM      6  C   UNL     1      -0.939   9.868  17.976  0.00  0.00    +0.000 A 
ATOM      7  C   UNL     1      -2.117  10.580  17.704  0.00  0.00    +0.000 A 
ATOM      8  C   UNL     1      -2.157  11.948  17.995  0.00  0.00    +0.000 A 
ATOM      9  C   UNL     1      -1.037  12.594  18.528  0.00  0.00    +0.000 A 
ATOM     10  C   UNL     1       0.136  11.875  18.823  0.00  0.00    +0.000 A 
BRANCH  10  11
ATOM     11  N   UNL     1       1.229  12.580  19.387  0.00  0.00    +0.000 N 
ATOM     12  N   UNL     1       2.027  13.381  18.621  0.00  0.00    +0.000 NA
ATOM     13  C   UNL     1       2.956  13.765  19.497  0.00  0.00    +0.000 A 
ATOM     14  C   UNL     1       2.613  13.321  20.776  0.00  0.00    +0.000 A 
ATOM     15  N   UNL     1       1.470  12.634  20.725  0.00  0.00    +0.000 NA
ENDBRANCH  10  11
BRANCH   7  16
ATOM     16  C   UNL     1      -3.314   9.893  17.092  0.00  0.00    +0.000 C 
ATOM     17  F   UNL     1      -4.346  10.743  16.830  0.00  0.00    +0.000 F 
ATOM     18  F   UNL     1      -3.016   9.294  15.907  0.00  0.00    +0.000 F 
ATOM     19  F   UNL     1      -3.824   8.919  17.892  0.00  0.00    +0.000 F 
ENDBRANCH   7  16
ENDBRANCH   2   5
BRANCH   3  20
ATOM     20  C   UNL     1       2.383   7.607  19.653  0.00  0.00    +0.000 C 
ATOM     21  C   UNL     1       2.081   6.786  20.912  0.00  0.00    +0.000 C 
ATOM     22  C   UNL     1       1.450   5.482  20.423  0.00  0.00    +0.000 C 
ATOM     23  C   UNL     1       1.717   5.400  18.923  0.00  0.00    +0.000 C 
ATOM     24  C   UNL     1       2.700   6.523  18.598  0.00  0.00    +0.000 C 
BRANCH  24  25
ATOM     25  N   UNL     1       4.090   6.075  18.723  0.00  0.00    +0.000 N 
ATOM     26  C   UNL     1       4.798   5.805  17.562  0.00  0.00    +0.000 A 
ATOM     27  C   UNL     1       4.714   6.562  16.392  0.00  0.00    +0.000 A 
ATOM     28  N   UNL     1       5.394   6.275  15.253  0.00  0.00    +0.000 NA
ATOM     29  C   UNL     1       6.227   5.202  15.317  0.00  0.00    +0.000 A 
ATOM     30  C   UNL     1       6.356   4.482  16.498  0.00  0.00    +0.000 A 
ATOM     31  N   UNL     1       5.647   4.758  17.624  0.00  0.00    +0.000 NA
ATOM     32  H   UNL     1       4.261   5.315  19.378  0.00  0.00    +0.000 HD
BRANCH  29  33
ATOM     33  C   UNL     1       7.030   4.778  14.111  0.00  0.00    +0.000 C 
ATOM     34  F   UNL     1       8.379   4.823  14.290  0.00  0.00    +0.000 F 
ATOM     35  F   UNL     1       6.749   3.502  13.715  0.00  0.00    +0.000 F 
ATOM     36  F   UNL     1       6.779   5.559  13.019  0.00  0.00    +0.000 F 
ENDBRANCH  29  33
ENDBRANCH  24  25
ENDBRANCH   3  20
TORSDOF 6
ENDMDL
MODEL 7
REMARK VINA RESULT:      -7.6      3.763      5.938
REMARK  Name = 
REMARK  6 active torsions:
REMARK  status: ('A' for Active; 'I' for Inactive)
REMARK    1  A    between atoms: C_2  and  C_20
REMARK    2  A    between atoms: N_3  and  C_4
REMARK    3  A    between atoms: C_8  and  N_9
REMARK    4  A    between atoms: C_13  and  C_14
REMARK    5  A    between atoms: C_22  and  C_23
REMARK    6  A    between atoms: C_29  and  N_30
REMARK                            x       y       z     vdW  Elec       q    Type
REMARK                         _______ _______ _______ _____ _____    ______ ____
ROOT
ATOM      1  O   UNL     1       1.920   7.614  17.546  0.00  0.00    +0.000 OA
ATOM      2  C   UNL     1       2.443   7.285  18.604  0.00  0.00    +0.000 C 
ATOM      3  N   UNL     1       2.067   7.762  19.845  0.00  0.00    +0.000 N 
ATOM      4  H   UNL     1       2.475   7.323  20.660  0.00  0.00    +0.000 HD
ENDROOT
BRANCH   2   5
ATOM      5  C   UNL     1       3.621   6.379  18.603  0.00  0.00    +0.000 A 
ATOM      6  C   UNL     1       4.830   6.938  18.141  0.00  0.00    +0.000 A 
ATOM      7  C   UNL     1       5.982   6.155  17.975  0.00  0.00    +0.000 A 
ATOM      8  C   UNL     1       5.909   4.786  18.256  0.00  0.00    +0.000 A 
ATOM      9  C   UNL     1       4.705   4.210  18.673  0.00  0.00    +0.000 A 
ATOM     10  C   UNL     1       3.556   5.000  18.861  0.00  0.00    +0.000 A 
BRANCH  10  11
ATOM     11  N   UNL     1       2.372   4.363  19.312  0.00  0.00    +0.000 N 
ATOM     12  N   UNL     1       1.905   4.551  20.581  0.00  0.00    +0.000 NA
ATOM     13  C   UNL     1       0.860   3.724  20.617  0.00  0.00    +0.000 A 
ATOM     14  C   UNL     1       0.638   3.187  19.347  0.00  0.00    +0.000 A 
ATOM     15  N   UNL     1       1.549   3.654  18.492  0.00  0.00    +0.000 NA
ENDBRANCH  10  11
BRANCH   7  16
ATOM     16  C   UNL     1       7.273   6.767  17.487  0.00  0.00    +0.000 C 
ATOM     17  F   UNL     1       7.722   6.219  16.324  0.00  0.00    +0.000 F 
ATOM     18  F   UNL     1       7.154   8.101  17.247  0.00  0.00    +0.000 F 
ATOM     19  F   UNL     1       8.287   6.631  18.382  0.00  0.00    +0.000 F 
ENDBRANCH   7  16
ENDBRANCH   2   5
BRANCH   3  20
ATOM     20  C   UNL     1       0.822   8.504  20.037  0.00  0.00    +0.000 C 
ATOM     21  C   UNL     1       0.159   8.120  21.365  0.00  0.00    +0.000 C 
ATOM     22  C   UNL     1       0.727   9.078  22.411  0.00  0.00    +0.000 C 
ATOM     23  C   UNL     1       1.411  10.208  21.648  0.00  0.00    +0.000 C 
ATOM     24  C   UNL     1       1.030  10.028  20.179  0.00  0.00    +0.000 C 
BRANCH  24  25
ATOM     25  N   UNL     1      -0.204  10.749  19.851  0.00  0.00    +0.000 N 
ATOM     26  C   UNL     1      -0.116  12.103  19.569  0.00  0.00    +0.000 A 
ATOM     27  C   UNL     1       0.913  12.691  18.830  0.00  0.00    +0.000 A 
ATOM     28  N   UNL     1       1.001  14.023  18.581  0.00  0.00    +0.000 NA
ATOM     29  C   UNL     1      -0.018  14.782  19.062  0.00  0.00    +0.000 A 
ATOM     30  C   UNL     1      -1.071  14.192  19.748  0.00  0.00    +0.000 A 
ATOM     31  N   UNL     1      -1.135  12.862  20.021  0.00  0.00    +0.000 NA
ATOM     32  H   UNL     1      -0.987  10.611  20.484  0.00  0.00    +0.000 HD
BRANCH  29  33
ATOM     33  C   UNL     1      -0.027  16.278  18.857  0.00  0.00    +0.000 C 
ATOM     34  F   UNL     1      -0.485  16.989  19.924  0.00  0.00    +0.000 F 
ATOM     35  F   UNL     1       1.214  16.778  18.582  0.00  0.00    +0.000 F 
ATOM     36  F   UNL     1      -0.810  16.654  17.802  0.00  0.00    +0.000 F 
ENDBRANCH  29  33
ENDBRANCH  24  25
ENDBRANCH   3  20
TORSDOF 6
ENDMDL
MODEL 8
REMARK VINA RESULT:      -7.6      3.748      5.891
REMARK  Name = 
REMARK  6 active torsions:
REMARK  status: ('A' for Active; 'I' for Inactive)
REMARK    1  A    between atoms: C_2  and  C_20
REMARK    2  A    between atoms: N_3  and  C_4
REMARK    3  A    between atoms: C_8  and  N_9
REMARK    4  A    between atoms: C_13  and  C_14
REMARK    5  A    between atoms: C_22  and  C_23
REMARK    6  A    between atoms: C_29  and  N_30
REMARK                            x       y       z     vdW  Elec       q    Type
REMARK                         _______ _______ _______ _____ _____    ______ ____
ROOT
ATOM      1  O   UNL     1       1.884   7.325  17.677  0.00  0.00    +0.000 OA
ATOM      2  C   UNL     1       2.466   7.085  18.729  0.00  0.00    +0.000 C 
ATOM      3  N   UNL     1       2.123   7.623  19.954  0.00  0.00    +0.000 N 
ATOM      4  H   UNL     1       2.583   7.252  20.775  0.00  0.00    +0.000 HD
ENDROOT
BRANCH   2   5
ATOM      5  C   UNL     1       3.680   6.227  18.730  0.00  0.00    +0.000 A 
ATOM      6  C   UNL     1       4.854   6.820  18.224  0.00  0.00    +0.000 A 
ATOM      7  C   UNL     1       6.034   6.079  18.058  0.00  0.00    +0.000 A 
ATOM      8  C   UNL     1       6.023   4.717  18.381  0.00  0.00    +0.000 A 
ATOM      9  C   UNL     1       4.852   4.107  18.842  0.00  0.00    +0.000 A 
ATOM     10  C   UNL     1       3.676   4.855  19.031  0.00  0.00    +0.000 A 
BRANCH  10  11
ATOM     11  N   UNL     1       2.529   4.186  19.527  0.00  0.00    +0.000 N 
ATOM     12  N   UNL     1       1.858   3.271  18.766  0.00  0.00    +0.000 NA
ATOM     13  C   UNL     1       0.824   2.963  19.550  0.00  0.00    +0.000 A 
ATOM     14  C   UNL     1       0.980   3.571  20.798  0.00  0.00    +0.000 A 
ATOM     15  N   UNL     1       2.106   4.286  20.816  0.00  0.00    +0.000 NA
ENDBRANCH  10  11
BRANCH   7  16
ATOM     16  C   UNL     1       7.288   6.726  17.523  0.00  0.00    +0.000 C 
ATOM     17  F   UNL     1       7.138   8.055  17.261  0.00  0.00    +0.000 F 
ATOM     18  F   UNL     1       8.328   6.635  18.396  0.00  0.00    +0.000 F 
ATOM     19  F   UNL     1       7.716   6.160  16.363  0.00  0.00    +0.000 F 
ENDBRANCH   7  16
ENDBRANCH   2   5
BRANCH   3  20
ATOM     20  C   UNL     1       0.857   8.326  20.156  0.00  0.00    +0.000 C 
ATOM     21  C   UNL     1       0.285   8.028  21.547  0.00  0.00    +0.000 C 
ATOM     22  C   UNL     1       0.865   9.094  22.477  0.00  0.00    +0.000 C 
ATOM     23  C   UNL     1       1.454  10.183  21.586  0.00  0.00    +0.000 C 
ATOM     24  C   UNL     1       1.002   9.864  20.162  0.00  0.00    +0.000 C 
BRANCH  24  25
ATOM     25  N   UNL     1      -0.280  10.503  19.847  0.00  0.00    +0.000 N 
ATOM     26  C   UNL     1      -0.294  11.873  19.634  0.00  0.00    +0.000 A 
ATOM     27  C   UNL     1       0.695  12.575  18.944  0.00  0.00    +0.000 A 
ATOM     28  N   UNL     1       0.683  13.921  18.763  0.00  0.00    +0.000 NA
ATOM     29  C   UNL     1      -0.400  14.574  19.263  0.00  0.00    +0.000 A 
ATOM     30  C   UNL     1      -1.413  13.869  19.900  0.00  0.00    +0.000 A 
ATOM     31  N   UNL     1      -1.376  12.526  20.105  0.00  0.00    +0.000 NA
ATOM     32  H   UNL     1      -1.059  10.272  20.458  0.00  0.00    +0.000 HD
BRANCH  29  33
ATOM     33  C   UNL     1      -0.522  16.073  19.132  0.00  0.00    +0.000 C 
ATOM     34  F   UNL     1      -1.592  16.608  19.783  0.00  0.00    +0.000 F 
ATOM     35  F   UNL     1       0.573  16.733  19.609  0.00  0.00    +0.000 F 
ATOM     36  F   UNL     1      -0.647  16.472  17.831  0.00  0.00    +0.000 F 
ENDBRANCH  29  33
ENDBRANCH  24  25
ENDBRANCH   3  20
TORSDOF 6
ENDMDL
MODEL 9
REMARK VINA RESULT:      -7.6      4.552      7.275
REMARK  Name = 
REMARK  6 active torsions:
REMARK  status: ('A' for Active; 'I' for Inactive)
REMARK    1  A    between atoms: C_2  and  C_20
REMARK    2  A    between atoms: N_3  and  C_4
REMARK    3  A    between atoms: C_8  and  N_9
REMARK    4  A    between atoms: C_13  and  C_14
REMARK    5  A    between atoms: C_22  and  C_23
REMARK    6  A    between atoms: C_29  and  N_30
REMARK                            x       y       z     vdW  Elec       q    Type
REMARK                         _______ _______ _______ _____ _____    ______ ____
ROOT
ATOM      1  O   UNL     1       2.581   8.972  17.437  0.00  0.00    +0.000 OA
ATOM      2  C   UNL     1       1.916   8.651  18.415  0.00  0.00    +0.000 C 
ATOM      3  N   UNL     1       1.025   9.483  19.065  0.00  0.00    +0.000 N 
ATOM      4  H   UNL     1       0.433   9.074  19.775  0.00  0.00    +0.000 HD
ENDROOT
BRANCH   2   5
ATOM      5  C   UNL     1       2.104   7.314  19.037  0.00  0.00    +0.000 A 
ATOM      6  C   UNL     1       2.641   6.315  18.201  0.00  0.00    +0.000 A 
ATOM      7  C   UNL     1       2.752   4.984  18.630  0.00  0.00    +0.000 A 
ATOM      8  C   UNL     1       2.292   4.651  19.910  0.00  0.00    +0.000 A 
ATOM      9  C   UNL     1       1.717   5.623  20.733  0.00  0.00    +0.000 A 
ATOM     10  C   UNL     1       1.627   6.963  20.311  0.00  0.00    +0.000 A 
BRANCH  10  11
ATOM     11  N   UNL     1       1.058   7.908  21.201  0.00  0.00    +0.000 N 
ATOM     12  N   UNL     1       1.840   8.782  21.901  0.00  0.00    +0.000 NA
ATOM     13  C   UNL     1       0.941   9.407  22.663  0.00  0.00    +0.000 A 
ATOM     14  C   UNL     1      -0.346   9.010  22.298  0.00  0.00    +0.000 A 
ATOM     15  N   UNL     1      -0.282   8.115  21.311  0.00  0.00    +0.000 NA
ENDBRANCH  10  11
BRANCH   7  16
ATOM     16  C   UNL     1       3.337   3.924  17.729  0.00  0.00    +0.000 C 
ATOM     17  F   UNL     1       4.271   4.409  16.864  0.00  0.00    +0.000 F 
ATOM     18  F   UNL     1       3.958   2.936  18.429  0.00  0.00    +0.000 F 
ATOM     19  F   UNL     1       2.396   3.311  16.962  0.00  0.00    +0.000 F 
ENDBRANCH   7  16
ENDBRANCH   2   5
BRANCH   3  20
ATOM     20  C   UNL     1       0.589  10.749  18.476  0.00  0.00    +0.000 C 
ATOM     21  C   UNL     1      -0.905  10.705  18.136  0.00  0.00    +0.000 C 
ATOM     22  C   UNL     1      -1.636  11.195  19.385  0.00  0.00    +0.000 C 
ATOM     23  C   UNL     1      -0.587  11.846  20.282  0.00  0.00    +0.000 C 
ATOM     24  C   UNL     1       0.689  11.946  19.448  0.00  0.00    +0.000 C 
BRANCH  24  25
ATOM     25  N   UNL     1       0.750  13.208  18.705  0.00  0.00    +0.000 N 
ATOM     26  C   UNL     1       1.720  14.133  19.064  0.00  0.00    +0.000 A 
ATOM     27  C   UNL     1       3.027  13.805  19.427  0.00  0.00    +0.000 A 
ATOM     28  N   UNL     1       3.961  14.718  19.799  0.00  0.00    +0.000 NA
ATOM     29  C   UNL     1       3.566  16.018  19.759  0.00  0.00    +0.000 A 
ATOM     30  C   UNL     1       2.283  16.349  19.343  0.00  0.00    +0.000 A 
ATOM     31  N   UNL     1       1.345  15.427  19.003  0.00  0.00    +0.000 NA
ATOM     32  H   UNL     1      -0.129  13.705  18.589  0.00  0.00    +0.000 HD
BRANCH  29  33
ATOM     33  C   UNL     1       4.513  17.123  20.160  0.00  0.00    +0.000 C 
ATOM     34  F   UNL     1       5.400  17.481  19.191  0.00  0.00    +0.000 F 
ATOM     35  F   UNL     1       3.862  18.270  20.512  0.00  0.00    +0.000 F 
ATOM     36  F   UNL     1       5.271  16.789  21.246  0.00  0.00    +0.000 F 
ENDBRANCH  29  33
ENDBRANCH  24  25
ENDBRANCH   3  20
TORSDOF 6
ENDMDL
