MODEL 1
REMARK VINA RESULT:      -7.3      0.000      0.000
REMARK  Name = 
REMARK  1 active torsions:
REMARK  status: ('A' for Active; 'I' for Inactive)
REMARK    1  A    between atoms: N_10  and  C_11
REMARK                            x       y       z     vdW  Elec       q    Type
REMARK                         _______ _______ _______ _____ _____    ______ ____
ROOT
ATOM      1  C   UNL     1       2.336   7.355  19.824  0.00  0.00    +0.000 C 
ATOM      2  C   UNL     1       2.880   7.065  18.420  0.00  0.00    +0.000 C 
ATOM      3  S   UNL     1       4.137   5.767  18.390  0.00  0.00    +0.000 S 
ATOM      4  C   UNL     1       3.057   4.377  18.627  0.00  0.00    +0.000 A 
ATOM      5  C   UNL     1       2.887   3.493  17.555  0.00  0.00    +0.000 A 
ATOM      6  C   UNL     1       2.199   2.298  17.730  0.00  0.00    +0.000 A 
ATOM      7  C   UNL     1       1.726   1.951  18.993  0.00  0.00    +0.000 A 
ATOM      8  C   UNL     1       1.818   2.867  20.046  0.00  0.00    +0.000 A 
ATOM      9  C   UNL     1       2.416   4.122  19.848  0.00  0.00    +0.000 A 
ATOM     10  C   UNL     1       2.286   5.191  20.904  0.00  0.00    +0.000 C 
ATOM     11  O   UNL     1       1.539   6.296  20.377  0.00  0.00    +0.000 OA
ENDROOT
BRANCH   1  21
ATOM     12 CL   UNL     1      -1.594  12.176  20.605  0.00  0.00    +0.000 Cl
ATOM     13  C   UNL     1      -0.600  10.923  21.161  0.00  0.00    +0.000 A 
ATOM     14  N   UNL     1      -0.595  10.636  22.476  0.00  0.00    +0.000 NA
ATOM     15  C   UNL     1       0.181   9.602  22.864  0.00  0.00    +0.000 A 
ATOM     16  N   UNL     1       0.935   8.794  22.089  0.00  0.00    +0.000 NA
ATOM     17  C   UNL     1       0.868   9.147  20.798  0.00  0.00    +0.000 A 
ATOM     18  C   UNL     1       0.158  10.206  20.246  0.00  0.00    +0.000 A 
ATOM     19  N   UNL     1       0.394  10.291  18.890  0.00  0.00    +0.000 NA
ATOM     20  C   UNL     1       1.218   9.293  18.620  0.00  0.00    +0.000 A 
ATOM     21  N   UNL     1       1.481   8.543  19.731  0.00  0.00    +0.000 N 
ENDBRANCH   1  21
TORSDOF 1
ENDMDL
MODEL 2
REMARK VINA RESULT:      -6.9      5.914      8.006
REMARK  Name = 
REMARK  1 active torsions:
REMARK  status: ('A' for Active; 'I' for Inactive)
REMARK    1  A    between atoms: N_10  and  C_11
REMARK                            x       y       z     vdW  Elec       q    Type
REMARK                         _______ _______ _______ _____ _____    ______ ____
ROOT
ATOM      1  C   UNL     1       4.219   4.054  16.625  0.00  0.00    +0.000 C 
ATOM      2  C   UNL     1       3.379   5.213  17.176  0.00  0.00    +0.000 C 
ATOM      3  S   UNL     1       1.748   4.704  17.761  0.00  0.00    +0.000 S 
ATOM      4  C   UNL     1       2.264   3.915  19.267  0.00  0.00    +0.000 A 
ATOM      5  C   UNL     1       1.913   4.528  20.476  0.00  0.00    +0.000 A 
ATOM      6  C   UNL     1       2.133   3.877  21.684  0.00  0.00    +0.000 A 
ATOM      7  C   UNL     1       2.649   2.583  21.688  0.00  0.00    +0.000 A 
ATOM      8  C   UNL     1       3.079   2.002  20.492  0.00  0.00    +0.000 A 
ATOM      9  C   UNL     1       2.961   2.699  19.278  0.00  0.00    +0.000 A 
ATOM     10  C   UNL     1       3.649   2.178  18.041  0.00  0.00    +0.000 C 
ATOM     11  O   UNL     1       4.651   3.115  17.621  0.00  0.00    +0.000 OA
ENDROOT
BRANCH   1  21
ATOM     12 CL   UNL     1       9.122   5.729  13.096  0.00  0.00    +0.000 Cl
ATOM     13  C   UNL     1       7.621   4.991  13.355  0.00  0.00    +0.000 A 
ATOM     14  N   UNL     1       7.078   4.261  12.363  0.00  0.00    +0.000 NA
ATOM     15  C   UNL     1       5.902   3.657  12.632  0.00  0.00    +0.000 A 
ATOM     16  N   UNL     1       5.210   3.669  13.791  0.00  0.00    +0.000 NA
ATOM     17  C   UNL     1       5.822   4.412  14.723  0.00  0.00    +0.000 A 
ATOM     18  C   UNL     1       7.004   5.129  14.591  0.00  0.00    +0.000 A 
ATOM     19  N   UNL     1       7.277   5.827  15.749  0.00  0.00    +0.000 NA
ATOM     20  C   UNL     1       6.289   5.527  16.574  0.00  0.00    +0.000 A 
ATOM     21  N   UNL     1       5.423   4.630  16.016  0.00  0.00    +0.000 N 
ENDBRANCH   1  21
TORSDOF 1
ENDMDL
MODEL 3
REMARK VINA RESULT:      -6.6      2.707      4.165
REMARK  Name = 
REMARK  1 active torsions:
REMARK  status: ('A' for Active; 'I' for Inactive)
REMARK    1  A    between atoms: N_10  and  C_11
REMARK                            x       y       z     vdW  Elec       q    Type
REMARK                         _______ _______ _______ _____ _____    ______ ____
ROOT
ATOM      1  C   UNL     1       3.498   5.207  19.086  0.00  0.00    +0.000 C 
ATOM      2  C   UNL     1       4.944   5.671  19.299  0.00  0.00    +0.000 C 
ATOM      3  S   UNL     1       6.172   4.422  18.859  0.00  0.00    +0.000 S 
ATOM      4  C   UNL     1       6.032   4.552  17.093  0.00  0.00    +0.000 A 
ATOM      5  C   UNL     1       7.116   5.091  16.391  0.00  0.00    +0.000 A 
ATOM      6  C   UNL     1       7.141   5.061  15.002  0.00  0.00    +0.000 A 
ATOM      7  C   UNL     1       6.109   4.436  14.306  0.00  0.00    +0.000 A 
ATOM      8  C   UNL     1       4.985   3.973  14.996  0.00  0.00    +0.000 A 
ATOM      9  C   UNL     1       4.904   4.100  16.392  0.00  0.00    +0.000 A 
ATOM     10  C   UNL     1       3.598   3.834  17.097  0.00  0.00    +0.000 C 
ATOM     11  O   UNL     1       3.129   5.044  17.708  0.00  0.00    +0.000 OA
ENDROOT
BRANCH   1  21
ATOM     12 CL   UNL     1       0.179  10.298  20.626  0.00  0.00    +0.000 Cl
ATOM     13  C   UNL     1       1.133   9.367  19.582  0.00  0.00    +0.000 A 
ATOM     14  N   UNL     1       1.548   9.913  18.424  0.00  0.00    +0.000 NA
ATOM     15  C   UNL     1       2.340   9.147  17.645  0.00  0.00    +0.000 A 
ATOM     16  N   UNL     1       2.797   7.902  17.898  0.00  0.00    +0.000 NA
ATOM     17  C   UNL     1       2.341   7.438  19.070  0.00  0.00    +0.000 A 
ATOM     18  C   UNL     1       1.488   8.079  19.958  0.00  0.00    +0.000 A 
ATOM     19  N   UNL     1       1.189   7.252  21.021  0.00  0.00    +0.000 NA
ATOM     20  C   UNL     1       1.860   6.137  20.792  0.00  0.00    +0.000 A 
ATOM     21  N   UNL     1       2.615   6.230  19.656  0.00  0.00    +0.000 N 
ENDBRANCH   1  21
TORSDOF 1
ENDMDL
MODEL 4
REMARK VINA RESULT:      -6.6      2.204      3.356
REMARK  Name = 
REMARK  1 active torsions:
REMARK  status: ('A' for Active; 'I' for Inactive)
REMARK    1  A    between atoms: N_10  and  C_11
REMARK                            x       y       z     vdW  Elec       q    Type
REMARK                         _______ _______ _______ _____ _____    ______ ____
ROOT
ATOM      1  C   UNL     1       1.257   7.878  19.948  0.00  0.00    +0.000 C 
ATOM      2  C   UNL     1       1.828   6.715  20.767  0.00  0.00    +0.000 C 
ATOM      3  S   UNL     1       2.157   5.236  19.784  0.00  0.00    +0.000 S 
ATOM      4  C   UNL     1       3.617   5.814  18.953  0.00  0.00    +0.000 A 
ATOM      5  C   UNL     1       4.836   5.212  19.283  0.00  0.00    +0.000 A 
ATOM      6  C   UNL     1       5.982   5.494  18.549  0.00  0.00    +0.000 A 
ATOM      7  C   UNL     1       5.905   6.336  17.442  0.00  0.00    +0.000 A 
ATOM      8  C   UNL     1       4.710   7.005  17.160  0.00  0.00    +0.000 A 
ATOM      9  C   UNL     1       3.576   6.808  17.964  0.00  0.00    +0.000 A 
ATOM     10  C   UNL     1       2.379   7.714  17.812  0.00  0.00    +0.000 C 
ATOM     11  O   UNL     1       2.187   8.459  19.021  0.00  0.00    +0.000 OA
ENDROOT
BRANCH   1  21
ATOM     12 CL   UNL     1      -0.932  12.913  22.975  0.00  0.00    +0.000 Cl
ATOM     13  C   UNL     1      -0.849  11.851  21.659  0.00  0.00    +0.000 A 
ATOM     14  N   UNL     1      -1.522  12.159  20.534  0.00  0.00    +0.000 NA
ATOM     15  C   UNL     1      -1.390  11.303  19.499  0.00  0.00    +0.000 A 
ATOM     16  N   UNL     1      -0.639  10.183  19.439  0.00  0.00    +0.000 NA
ATOM     17  C   UNL     1      -0.001   9.955  20.596  0.00  0.00    +0.000 A 
ATOM     18  C   UNL     1      -0.067  10.709  21.761  0.00  0.00    +0.000 A 
ATOM     19  N   UNL     1       0.675  10.116  22.761  0.00  0.00    +0.000 NA
ATOM     20  C   UNL     1       1.195   9.033  22.211  0.00  0.00    +0.000 A 
ATOM     21  N   UNL     1       0.861   8.931  20.889  0.00  0.00    +0.000 N 
ENDBRANCH   1  21
TORSDOF 1
ENDMDL
MODEL 5
REMARK VINA RESULT:      -6.5      2.140      3.541
REMARK  Name = 
REMARK  1 active torsions:
REMARK  status: ('A' for Active; 'I' for Inactive)
REMARK    1  A    between atoms: N_10  and  C_11
REMARK                            x       y       z     vdW  Elec       q    Type
REMARK                         _______ _______ _______ _____ _____    ______ ____
ROOT
ATOM      1  C   UNL     1       2.084   7.373  19.139  0.00  0.00    +0.000 C 
ATOM      2  C   UNL     1       2.538   6.132  19.918  0.00  0.00    +0.000 C 
ATOM      3  S   UNL     1       3.074   4.773  18.855  0.00  0.00    +0.000 S 
ATOM      4  C   UNL     1       4.639   5.454  18.360  0.00  0.00    +0.000 A 
ATOM      5  C   UNL     1       5.800   4.830  18.833  0.00  0.00    +0.000 A 
ATOM      6  C   UNL     1       7.047   5.203  18.346  0.00  0.00    +0.000 A 
ATOM      7  C   UNL     1       7.138   6.160  17.339  0.00  0.00    +0.000 A 
ATOM      8  C   UNL     1       5.992   6.845  16.925  0.00  0.00    +0.000 A 
ATOM      9  C   UNL     1       4.742   6.550  17.491  0.00  0.00    +0.000 A 
ATOM     10  C   UNL     1       3.564   7.455  17.228  0.00  0.00    +0.000 C 
ATOM     11  O   UNL     1       3.143   8.061  18.458  0.00  0.00    +0.000 OA
ENDROOT
BRANCH   1  21
ATOM     12 CL   UNL     1      -0.623  12.086  22.263  0.00  0.00    +0.000 Cl
ATOM     13  C   UNL     1      -0.249  11.211  20.863  0.00  0.00    +0.000 A 
ATOM     14  N   UNL     1      -0.608  11.715  19.668  0.00  0.00    +0.000 NA
ATOM     15  C   UNL     1      -0.250  11.002  18.580  0.00  0.00    +0.000 A 
ATOM     16  N   UNL     1       0.454   9.851  18.537  0.00  0.00    +0.000 NA
ATOM     17  C   UNL     1       0.774   9.424  19.766  0.00  0.00    +0.000 A 
ATOM     18  C   UNL     1       0.444  10.014  20.979  0.00  0.00    +0.000 A 
ATOM     19  N   UNL     1       0.892   9.240  22.030  0.00  0.00    +0.000 NA
ATOM     20  C   UNL     1       1.496   8.208  21.466  0.00  0.00    +0.000 A 
ATOM     21  N   UNL     1       1.501   8.312  20.103  0.00  0.00    +0.000 N 
ENDBRANCH   1  21
TORSDOF 1
ENDMDL
MODEL 6
REMARK VINA RESULT:      -6.5      5.636      6.201
REMARK  Name = 
REMARK  1 active torsions:
REMARK  status: ('A' for Active; 'I' for Inactive)
REMARK    1  A    between atoms: N_10  and  C_11
REMARK                            x       y       z     vdW  Elec       q    Type
REMARK                         _______ _______ _______ _____ _____    ______ ____
ROOT
ATOM      1  C   UNL     1       4.845   4.077  17.805  0.00  0.00    +0.000 C 
ATOM      2  C   UNL     1       3.430   4.124  17.215  0.00  0.00    +0.000 C 
ATOM      3  S   UNL     1       2.524   2.572  17.393  0.00  0.00    +0.000 S 
ATOM      4  C   UNL     1       2.171   2.693  19.130  0.00  0.00    +0.000 A 
ATOM      5  C   UNL     1       0.839   2.891  19.512  0.00  0.00    +0.000 A 
ATOM      6  C   UNL     1       0.472   2.820  20.850  0.00  0.00    +0.000 A 
ATOM      7  C   UNL     1       1.425   2.491  21.812  0.00  0.00    +0.000 A 
ATOM      8  C   UNL     1       2.769   2.377  21.447  0.00  0.00    +0.000 A 
ATOM      9  C   UNL     1       3.163   2.555  20.111  0.00  0.00    +0.000 A 
ATOM     10  C   UNL     1       4.627   2.681  19.769  0.00  0.00    +0.000 C 
ATOM     11  O   UNL     1       4.883   3.988  19.238  0.00  0.00    +0.000 OA
ENDROOT
BRANCH   1  21
ATOM     12 CL   UNL     1       8.319   9.268  17.273  0.00  0.00    +0.000 Cl
ATOM     13  C   UNL     1       7.921   7.772  17.959  0.00  0.00    +0.000 A 
ATOM     14  N   UNL     1       8.594   7.360  19.050  0.00  0.00    +0.000 NA
ATOM     15  C   UNL     1       8.212   6.181  19.585  0.00  0.00    +0.000 A 
ATOM     16  N   UNL     1       7.212   5.371  19.178  0.00  0.00    +0.000 NA
ATOM     17  C   UNL     1       6.593   5.858  18.094  0.00  0.00    +0.000 A 
ATOM     18  C   UNL     1       6.893   7.024  17.401  0.00  0.00    +0.000 A 
ATOM     19  N   UNL     1       6.079   7.152  16.295  0.00  0.00    +0.000 NA
ATOM     20  C   UNL     1       5.289   6.093  16.324  0.00  0.00    +0.000 A 
ATOM     21  N   UNL     1       5.525   5.319  17.425  0.00  0.00    +0.000 N 
ENDBRANCH   1  21
TORSDOF 1
ENDMDL
MODEL 7
REMARK VINA RESULT:      -6.5      1.700      2.428
REMARK  Name = 
REMARK  1 active torsions:
REMARK  status: ('A' for Active; 'I' for Inactive)
REMARK    1  A    between atoms: N_10  and  C_11
REMARK                            x       y       z     vdW  Elec       q    Type
REMARK                         _______ _______ _______ _____ _____    ______ ____
ROOT
ATOM      1  C   UNL     1       1.070   9.481  19.525  0.00  0.00    +0.000 C 
ATOM      2  C   UNL     1       1.347   8.993  18.099  0.00  0.00    +0.000 C 
ATOM      3  S   UNL     1       2.877   8.045  17.948  0.00  0.00    +0.000 S 
ATOM      4  C   UNL     1       2.312   6.545  18.714  0.00  0.00    +0.000 A 
ATOM      5  C   UNL     1       2.163   5.414  17.902  0.00  0.00    +0.000 A 
ATOM      6  C   UNL     1       1.894   4.173  18.467  0.00  0.00    +0.000 A 
ATOM      7  C   UNL     1       1.831   4.043  19.852  0.00  0.00    +0.000 A 
ATOM      8  C   UNL     1       1.894   5.181  20.661  0.00  0.00    +0.000 A 
ATOM      9  C   UNL     1       2.056   6.453  20.090  0.00  0.00    +0.000 A 
ATOM     10  C   UNL     1       1.871   7.688  20.937  0.00  0.00    +0.000 C 
ATOM     11  O   UNL     1       0.746   8.435  20.453  0.00  0.00    +0.000 OA
ENDROOT
BRANCH   1  21
ATOM     12 CL   UNL     1      -3.703  13.426  20.504  0.00  0.00    +0.000 Cl
ATOM     13  C   UNL     1      -2.275  12.632  20.949  0.00  0.00    +0.000 A 
ATOM     14  N   UNL     1      -1.819  12.775  22.207  0.00  0.00    +0.000 NA
ATOM     15  C   UNL     1      -0.702  12.088  22.525  0.00  0.00    +0.000 A 
ATOM     16  N   UNL     1       0.005  11.246  21.742  0.00  0.00    +0.000 NA
ATOM     17  C   UNL     1      -0.520  11.159  20.512  0.00  0.00    +0.000 A 
ATOM     18  C   UNL     1      -1.630  11.831  20.017  0.00  0.00    +0.000 A 
ATOM     19  N   UNL     1      -1.818  11.534  18.683  0.00  0.00    +0.000 NA
ATOM     20  C   UNL     1      -0.851  10.686  18.378  0.00  0.00    +0.000 A 
ATOM     21  N   UNL     1      -0.082  10.387  19.468  0.00  0.00    +0.000 N 
ENDBRANCH   1  21
TORSDOF 1
ENDMDL
MODEL 8
REMARK VINA RESULT:      -6.2      2.035      2.798
REMARK  Name = 
REMARK  1 active torsions:
REMARK  status: ('A' for Active; 'I' for Inactive)
REMARK    1  A    between atoms: N_10  and  C_11
REMARK                            x       y       z     vdW  Elec       q    Type
REMARK                         _______ _______ _______ _____ _____    ______ ____
ROOT
ATOM      1  C   UNL     1       1.802   8.746  19.440  0.00  0.00    +0.000 C 
ATOM      2  C   UNL     1       1.967   8.221  18.009  0.00  0.00    +0.000 C 
ATOM      3  S   UNL     1       3.192   6.901  17.865  0.00  0.00    +0.000 S 
ATOM      4  C   UNL     1       2.233   5.596  18.595  0.00  0.00    +0.000 A 
ATOM      5  C   UNL     1       1.804   4.557  17.761  0.00  0.00    +0.000 A 
ATOM      6  C   UNL     1       1.204   3.425  18.299  0.00  0.00    +0.000 A 
ATOM      7  C   UNL     1       1.082   3.298  19.681  0.00  0.00    +0.000 A 
ATOM      8  C   UNL     1       1.429   4.367  20.511  0.00  0.00    +0.000 A 
ATOM      9  C   UNL     1       1.936   5.558  19.965  0.00  0.00    +0.000 A 
ATOM     10  C   UNL     1       2.069   6.786  20.831  0.00  0.00    +0.000 C 
ATOM     11  O   UNL     1       1.193   7.811  20.345  0.00  0.00    +0.000 OA
ENDROOT
BRANCH   1  21
ATOM     12 CL   UNL     1      -0.865  14.396  18.921  0.00  0.00    +0.000 Cl
ATOM     13  C   UNL     1       0.391  13.284  18.692  0.00  0.00    +0.000 A 
ATOM     14  N   UNL     1       1.561  13.722  18.188  0.00  0.00    +0.000 NA
ATOM     15  C   UNL     1       2.544  12.807  18.064  0.00  0.00    +0.000 A 
ATOM     16  N   UNL     1       2.513  11.503  18.412  0.00  0.00    +0.000 NA
ATOM     17  C   UNL     1       1.318  11.154  18.908  0.00  0.00    +0.000 A 
ATOM     18  C   UNL     1       0.196  11.959  19.057  0.00  0.00    +0.000 A 
ATOM     19  N   UNL     1      -0.866  11.223  19.537  0.00  0.00    +0.000 NA
ATOM     20  C   UNL     1      -0.395   9.997  19.693  0.00  0.00    +0.000 A 
ATOM     21  N   UNL     1       0.934   9.927  19.382  0.00  0.00    +0.000 N 
ENDBRANCH   1  21
TORSDOF 1
ENDMDL
MODEL 9
REMARK VINA RESULT:      -6.2      3.748      7.195
REMARK  Name = 
REMARK  1 active torsions:
REMARK  status: ('A' for Active; 'I' for Inactive)
REMARK    1  A    between atoms: N_10  and  C_11
REMARK                            x       y       z     vdW  Elec       q    Type
REMARK                         _______ _______ _______ _____ _____    ______ ____
ROOT
ATOM      1  C   UNL     1       2.274   7.530  19.734  0.00  0.00    +0.000 C 
ATOM      2  C   UNL     1       1.417   7.811  20.974  0.00  0.00    +0.000 C 
ATOM      3  S   UNL     1       1.385   9.554  21.447  0.00  0.00    +0.000 S 
ATOM      4  C   UNL     1       0.314  10.138  20.156  0.00  0.00    +0.000 A 
ATOM      5  C   UNL     1      -0.966  10.572  20.517  0.00  0.00    +0.000 A 
ATOM      6  C   UNL     1      -1.786  11.200  19.587  0.00  0.00    +0.000 A 
ATOM      7  C   UNL     1      -1.308  11.453  18.304  0.00  0.00    +0.000 A 
ATOM      8  C   UNL     1      -0.065  10.947  17.913  0.00  0.00    +0.000 A 
ATOM      9  C   UNL     1       0.723  10.216  18.817  0.00  0.00    +0.000 A 
ATOM     10  C   UNL     1       1.934   9.464  18.322  0.00  0.00    +0.000 C 
ATOM     11  O   UNL     1       1.734   8.057  18.513  0.00  0.00    +0.000 OA
ENDROOT
BRANCH   1  21
ATOM     12 CL   UNL     1       3.337   1.581  18.068  0.00  0.00    +0.000 Cl
ATOM     13  C   UNL     1       3.632   3.247  18.015  0.00  0.00    +0.000 A 
ATOM     14  N   UNL     1       4.514   3.721  17.114  0.00  0.00    +0.000 NA
ATOM     15  C   UNL     1       4.682   5.060  17.082  0.00  0.00    +0.000 A 
ATOM     16  N   UNL     1       4.052   5.993  17.826  0.00  0.00    +0.000 NA
ATOM     17  C   UNL     1       3.192   5.437  18.690  0.00  0.00    +0.000 A 
ATOM     18  C   UNL     1       2.938   4.084  18.877  0.00  0.00    +0.000 A 
ATOM     19  N   UNL     1       2.039   3.900  19.908  0.00  0.00    +0.000 NA
ATOM     20  C   UNL     1       1.740   5.118  20.327  0.00  0.00    +0.000 A 
ATOM     21  N   UNL     1       2.367   6.075  19.579  0.00  0.00    +0.000 N 
ENDBRANCH   1  21
TORSDOF 1
ENDMDL
