MODEL 1
REMARK VINA RESULT:      -8.3      0.000      0.000
REMARK  Name = 
REMARK  8 active torsions:
REMARK  status: ('A' for Active; 'I' for Inactive)
REMARK    1  A    between atoms: N_1  and  C_2
REMARK    2  A    between atoms: C_2  and  C_3
REMARK    3  A    between atoms: C_6  and  C_7
REMARK    4  A    between atoms: C_7  and  N_8
REMARK    5  A    between atoms: N_8  and  C_9
REMARK    6  A    between atoms: N_12  and  C_13
REMARK    7  A    between atoms: C_13  and  C_14
REMARK    8  A    between atoms: C_24  and  N_25
REMARK                            x       y       z     vdW  Elec       q    Type
REMARK                         _______ _______ _______ _____ _____    ______ ____
ROOT
ATOM      1  C   UNL     1       4.474   4.628  19.560  0.00  0.00    +0.000 A 
ATOM      2  N   UNL     1       3.986   5.884  19.661  0.00  0.00    +0.000 NA
ATOM      3  C   UNL     1       2.676   6.063  19.873  0.00  0.00    +0.000 A 
ATOM      4  N   UNL     1       2.268   7.380  19.992  0.00  0.00    +0.000 N 
ATOM      5  N   UNL     1       1.796   5.055  19.966  0.00  0.00    +0.000 NA
ATOM      6  C   UNL     1       2.287   3.805  19.835  0.00  0.00    +0.000 A 
ATOM      7  C   UNL     1       3.622   3.552  19.665  0.00  0.00    +0.000 A 
ATOM      8  H   UNL     1       3.101   7.936  20.156  0.00  0.00    +0.000 HD
ENDROOT
BRANCH   7   9
ATOM      9  N   UNL     1       4.073   2.202  19.534  0.00  0.00    +0.000 N 
ATOM     10  O   UNL     1       3.602   1.536  18.600  0.00  0.00    +0.000 OA
ATOM     11  O   UNL     1       4.952   1.820  20.318  0.00  0.00    +0.000 OA
ENDBRANCH   7   9
BRANCH   1  12
ATOM     12  N   UNL     1       5.839   4.465  19.307  0.00  0.00    +0.000 N 
ATOM     13  H   UNL     1       6.260   3.777  19.928  0.00  0.00    +0.000 HD
BRANCH  12  14
ATOM     14  C   UNL     1       6.623   5.681  19.112  0.00  0.00    +0.000 C 
BRANCH  14  18
ATOM     15  C   UNL     1       5.465   4.918  15.627  0.00  0.00    +0.000 C 
ATOM     16  C   UNL     1       6.128   3.876  16.550  0.00  0.00    +0.000 C 
ATOM     17  C   UNL     1       7.479   4.329  17.104  0.00  0.00    +0.000 C 
ATOM     18  C   UNL     1       7.415   5.703  17.790  0.00  0.00    +0.000 C 
ATOM     19  C   UNL     1       6.803   6.736  16.829  0.00  0.00    +0.000 C 
ATOM     20  C   UNL     1       5.435   6.303  16.299  0.00  0.00    +0.000 C 
BRANCH  15  21
ATOM     21  C   UNL     1       6.131   5.012  14.240  0.00  0.00    +0.000 C 
BRANCH  21  22
ATOM     22  N   UNL     1       6.338   3.697  13.643  0.00  0.00    +0.000 NA
ATOM     23  H   UNL     1       5.500   3.424  13.131  0.00  0.00    +0.000 HD
ATOM     24  H   UNL     1       6.458   3.002  14.379  0.00  0.00    +0.000 HD
ENDBRANCH  21  22
ENDBRANCH  15  21
ENDBRANCH  14  18
ENDBRANCH  12  14
ENDBRANCH   1  12
BRANCH   4  25
ATOM     25  C   UNL     1       1.181   7.594  20.925  0.00  0.00    +0.000 C 
BRANCH  25  26
ATOM     26  C   UNL     1       0.709   9.017  20.842  0.00  0.00    +0.000 A 
ATOM     27  C   UNL     1       0.328   9.709  21.990  0.00  0.00    +0.000 A 
ATOM     28  F   UNL     1       0.401   9.112  23.187  0.00  0.00    +0.000 F 
ATOM     29  C   UNL     1      -0.126  11.027  21.933  0.00  0.00    +0.000 A 
ATOM     30  C   UNL     1      -0.201  11.685  20.706  0.00  0.00    +0.000 A 
ATOM     31  C   UNL     1       0.171  11.008  19.544  0.00  0.00    +0.000 A 
ATOM     32  C   UNL     1       0.616   9.688  19.620  0.00  0.00    +0.000 A 
ATOM     33  F   UNL     1       0.961   9.060  18.486  0.00  0.00    +0.000 F 
ENDBRANCH  25  26
ENDBRANCH   4  25
TORSDOF 8
ENDMDL
MODEL 2
REMARK VINA RESULT:      -8.2      4.626      7.330
REMARK  Name = 
REMARK  8 active torsions:
REMARK  status: ('A' for Active; 'I' for Inactive)
REMARK    1  A    between atoms: N_1  and  C_2
REMARK    2  A    between atoms: C_2  and  C_3
REMARK    3  A    between atoms: C_6  and  C_7
REMARK    4  A    between atoms: C_7  and  N_8
REMARK    5  A    between atoms: N_8  and  C_9
REMARK    6  A    between atoms: N_12  and  C_13
REMARK    7  A    between atoms: C_13  and  C_14
REMARK    8  A    between atoms: C_24  and  N_25
REMARK                            x       y       z     vdW  Elec       q    Type
REMARK                         _______ _______ _______ _____ _____    ______ ____
ROOT
ATOM      1  C   UNL     1       7.044   5.557  18.077  0.00  0.00    +0.000 A 
ATOM      2  N   UNL     1       7.713   6.493  18.786  0.00  0.00    +0.000 NA
ATOM      3  C   UNL     1       8.105   7.620  18.178  0.00  0.00    +0.000 A 
ATOM      4  N   UNL     1       8.757   8.535  18.986  0.00  0.00    +0.000 N 
ATOM      5  N   UNL     1       7.897   7.871  16.877  0.00  0.00    +0.000 NA
ATOM      6  C   UNL     1       7.255   6.918  16.170  0.00  0.00    +0.000 A 
ATOM      7  C   UNL     1       6.785   5.767  16.742  0.00  0.00    +0.000 A 
ATOM      8  H   UNL     1       8.570   8.270  19.948  0.00  0.00    +0.000 HD
ENDROOT
BRANCH   7   9
ATOM      9  N   UNL     1       6.112   4.800  15.932  0.00  0.00    +0.000 N 
ATOM     10  O   UNL     1       5.120   5.187  15.294  0.00  0.00    +0.000 OA
ATOM     11  O   UNL     1       6.609   3.669  15.870  0.00  0.00    +0.000 OA
ENDBRANCH   7   9
BRANCH   1  12
ATOM     12  N   UNL     1       6.673   4.375  18.724  0.00  0.00    +0.000 N 
ATOM     13  H   UNL     1       6.804   3.560  18.128  0.00  0.00    +0.000 HD
BRANCH  12  14
ATOM     14  C   UNL     1       5.418   4.398  19.470  0.00  0.00    +0.000 C 
BRANCH  14  18
ATOM     15  C   UNL     1       1.727   4.051  18.900  0.00  0.00    +0.000 C 
ATOM     16  C   UNL     1       2.382   3.986  20.295  0.00  0.00    +0.000 C 
ATOM     17  C   UNL     1       3.506   2.953  20.389  0.00  0.00    +0.000 C 
ATOM     18  C   UNL     1       4.570   3.123  19.294  0.00  0.00    +0.000 C 
ATOM     19  C   UNL     1       3.897   3.126  17.911  0.00  0.00    +0.000 C 
ATOM     20  C   UNL     1       2.795   4.183  17.800  0.00  0.00    +0.000 C 
BRANCH  15  21
ATOM     21  C   UNL     1       0.804   2.852  18.607  0.00  0.00    +0.000 C 
BRANCH  21  22
ATOM     22  N   UNL     1       0.018   2.467  19.774  0.00  0.00    +0.000 NA
ATOM     23  H   UNL     1       0.138   1.470  19.949  0.00  0.00    +0.000 HD
ATOM     24  H   UNL     1      -0.974   2.602  19.577  0.00  0.00    +0.000 HD
ENDBRANCH  21  22
ENDBRANCH  15  21
ENDBRANCH  14  18
ENDBRANCH  12  14
ENDBRANCH   1  12
BRANCH   4  25
ATOM     25  C   UNL     1       8.498   9.922  18.659  0.00  0.00    +0.000 C 
BRANCH  25  26
ATOM     26  C   UNL     1       9.614  10.785  19.175  0.00  0.00    +0.000 A 
ATOM     27  C   UNL     1      10.662  11.169  18.338  0.00  0.00    +0.000 A 
ATOM     28  F   UNL     1      10.669  10.785  17.055  0.00  0.00    +0.000 F 
ATOM     29  C   UNL     1      11.715  11.958  18.801  0.00  0.00    +0.000 A 
ATOM     30  C   UNL     1      11.733  12.387  20.128  0.00  0.00    +0.000 A 
ATOM     31  C   UNL     1      10.697  12.010  20.981  0.00  0.00    +0.000 A 
ATOM     32  C   UNL     1       9.655  11.214  20.503  0.00  0.00    +0.000 A 
ATOM     33  F   UNL     1       8.675  10.862  21.348  0.00  0.00    +0.000 F 
ENDBRANCH  25  26
ENDBRANCH   4  25
TORSDOF 8
ENDMDL
MODEL 3
REMARK VINA RESULT:      -8.2      0.990      1.493
REMARK  Name = 
REMARK  8 active torsions:
REMARK  status: ('A' for Active; 'I' for Inactive)
REMARK    1  A    between atoms: N_1  and  C_2
REMARK    2  A    between atoms: C_2  and  C_3
REMARK    3  A    between atoms: C_6  and  C_7
REMARK    4  A    between atoms: C_7  and  N_8
REMARK    5  A    between atoms: N_8  and  C_9
REMARK    6  A    between atoms: N_12  and  C_13
REMARK    7  A    between atoms: C_13  and  C_14
REMARK    8  A    between atoms: C_24  and  N_25
REMARK                            x       y       z     vdW  Elec       q    Type
REMARK                         _______ _______ _______ _____ _____    ______ ____
ROOT
ATOM      1  C   UNL     1       4.058   4.893  19.536  0.00  0.00    +0.000 A 
ATOM      2  N   UNL     1       3.538   6.131  19.691  0.00  0.00    +0.000 NA
ATOM      3  C   UNL     1       2.304   6.267  20.193  0.00  0.00    +0.000 A 
ATOM      4  N   UNL     1       1.864   7.570  20.343  0.00  0.00    +0.000 N 
ATOM      5  N   UNL     1       1.525   5.230  20.533  0.00  0.00    +0.000 NA
ATOM      6  C   UNL     1       2.040   3.996  20.348  0.00  0.00    +0.000 A 
ATOM      7  C   UNL     1       3.312   3.790  19.886  0.00  0.00    +0.000 A 
ATOM      8  H   UNL     1       2.680   8.169  20.284  0.00  0.00    +0.000 HD
ENDROOT
BRANCH   7   9
ATOM      9  N   UNL     1       3.793   2.455  19.715  0.00  0.00    +0.000 N 
ATOM     10  O   UNL     1       3.232   1.756  18.857  0.00  0.00    +0.000 OA
ATOM     11  O   UNL     1       4.779   2.119  20.383  0.00  0.00    +0.000 OA
ENDBRANCH   7   9
BRANCH   1  12
ATOM     12  N   UNL     1       5.334   4.774  18.981  0.00  0.00    +0.000 N 
ATOM     13  H   UNL     1       6.052   4.680  19.698  0.00  0.00    +0.000 HD
BRANCH  12  14
ATOM     14  C   UNL     1       5.668   5.687  17.892  0.00  0.00    +0.000 C 
BRANCH  14  18
ATOM     15  C   UNL     1       6.480   4.092  14.597  0.00  0.00    +0.000 C 
ATOM     16  C   UNL     1       6.614   5.604  14.865  0.00  0.00    +0.000 C 
ATOM     17  C   UNL     1       5.334   6.240  15.407  0.00  0.00    +0.000 C 
ATOM     18  C   UNL     1       4.781   5.513  16.644  0.00  0.00    +0.000 C 
ATOM     19  C   UNL     1       4.602   4.017  16.331  0.00  0.00    +0.000 C 
ATOM     20  C   UNL     1       5.891   3.369  15.822  0.00  0.00    +0.000 C 
BRANCH  15  21
ATOM     21  C   UNL     1       5.652   3.770  13.337  0.00  0.00    +0.000 C 
BRANCH  21  22
ATOM     22  N   UNL     1       6.434   3.053  12.336  0.00  0.00    +0.000 NA
ATOM     23  H   UNL     1       7.053   3.708  11.860  0.00  0.00    +0.000 HD
ATOM     24  H   UNL     1       5.811   2.681  11.619  0.00  0.00    +0.000 HD
ENDBRANCH  21  22
ENDBRANCH  15  21
ENDBRANCH  14  18
ENDBRANCH  12  14
ENDBRANCH   1  12
BRANCH   4  25
ATOM     25  C   UNL     1       1.009   7.790  21.492  0.00  0.00    +0.000 C 
BRANCH  25  26
ATOM     26  C   UNL     1       0.385   9.153  21.410  0.00  0.00    +0.000 A 
ATOM     27  C   UNL     1      -0.048   9.808  22.562  0.00  0.00    +0.000 A 
ATOM     28  F   UNL     1       0.110   9.231  23.760  0.00  0.00    +0.000 F 
ATOM     29  C   UNL     1      -0.642  11.069  22.506  0.00  0.00    +0.000 A 
ATOM     30  C   UNL     1      -0.810  11.707  21.278  0.00  0.00    +0.000 A 
ATOM     31  C   UNL     1      -0.388  11.066  20.113  0.00  0.00    +0.000 A 
ATOM     32  C   UNL     1       0.199   9.802  20.188  0.00  0.00    +0.000 A 
ATOM     33  F   UNL     1       0.590   9.207  19.051  0.00  0.00    +0.000 F 
ENDBRANCH  25  26
ENDBRANCH   4  25
TORSDOF 8
ENDMDL
MODEL 4
REMARK VINA RESULT:      -8.2      1.004      2.219
REMARK  Name = 
REMARK  8 active torsions:
REMARK  status: ('A' for Active; 'I' for Inactive)
REMARK    1  A    between atoms: N_1  and  C_2
REMARK    2  A    between atoms: C_2  and  C_3
REMARK    3  A    between atoms: C_6  and  C_7
REMARK    4  A    between atoms: C_7  and  N_8
REMARK    5  A    between atoms: N_8  and  C_9
REMARK    6  A    between atoms: N_12  and  C_13
REMARK    7  A    between atoms: C_13  and  C_14
REMARK    8  A    between atoms: C_24  and  N_25
REMARK                            x       y       z     vdW  Elec       q    Type
REMARK                         _______ _______ _______ _____ _____    ______ ____
ROOT
ATOM      1  C   UNL     1       4.041   4.957  19.576  0.00  0.00    +0.000 A 
ATOM      2  N   UNL     1       3.517   6.190  19.758  0.00  0.00    +0.000 NA
ATOM      3  C   UNL     1       2.264   6.308  20.216  0.00  0.00    +0.000 A 
ATOM      4  N   UNL     1       1.820   7.606  20.400  0.00  0.00    +0.000 N 
ATOM      5  N   UNL     1       1.471   5.261  20.485  0.00  0.00    +0.000 NA
ATOM      6  C   UNL     1       1.992   4.034  20.274  0.00  0.00    +0.000 A 
ATOM      7  C   UNL     1       3.281   3.843  19.853  0.00  0.00    +0.000 A 
ATOM      8  H   UNL     1       2.639   8.205  20.396  0.00  0.00    +0.000 HD
ENDROOT
BRANCH   7   9
ATOM      9  N   UNL     1       3.767   2.514  19.650  0.00  0.00    +0.000 N 
ATOM     10  O   UNL     1       4.816   2.200  20.233  0.00  0.00    +0.000 OA
ATOM     11  O   UNL     1       3.068   1.755  18.966  0.00  0.00    +0.000 OA
ENDBRANCH   7   9
BRANCH   1  12
ATOM     12  N   UNL     1       5.338   4.856  19.067  0.00  0.00    +0.000 N 
ATOM     13  H   UNL     1       6.035   4.833  19.809  0.00  0.00    +0.000 HD
BRANCH  12  14
ATOM     14  C   UNL     1       5.671   5.717  17.936  0.00  0.00    +0.000 C 
BRANCH  14  18
ATOM     15  C   UNL     1       6.491   4.167  14.620  0.00  0.00    +0.000 C 
ATOM     16  C   UNL     1       6.557   5.684  14.889  0.00  0.00    +0.000 C 
ATOM     17  C   UNL     1       5.258   6.255  15.460  0.00  0.00    +0.000 C 
ATOM     18  C   UNL     1       4.768   5.501  16.706  0.00  0.00    +0.000 C 
ATOM     19  C   UNL     1       4.656   3.999  16.394  0.00  0.00    +0.000 C 
ATOM     20  C   UNL     1       5.964   3.415  15.855  0.00  0.00    +0.000 C 
BRANCH  15  21
ATOM     21  C   UNL     1       5.653   3.807  13.378  0.00  0.00    +0.000 C 
BRANCH  21  22
ATOM     22  N   UNL     1       6.417   3.027  12.410  0.00  0.00    +0.000 NA
ATOM     23  H   UNL     1       7.184   2.555  12.887  0.00  0.00    +0.000 HD
ATOM     24  H   UNL     1       6.849   3.653  11.731  0.00  0.00    +0.000 HD
ENDBRANCH  21  22
ENDBRANCH  15  21
ENDBRANCH  14  18
ENDBRANCH  12  14
ENDBRANCH   1  12
BRANCH   4  25
ATOM     25  C   UNL     1       0.921   7.784  21.523  0.00  0.00    +0.000 C 
BRANCH  25  26
ATOM     26  C   UNL     1       0.296   9.148  21.465  0.00  0.00    +0.000 A 
ATOM     27  C   UNL     1       0.100   9.789  20.242  0.00  0.00    +0.000 A 
ATOM     28  F   UNL     1       0.451   9.180  19.103  0.00  0.00    +0.000 F 
ATOM     29  C   UNL     1      -0.466  11.062  20.168  0.00  0.00    +0.000 A 
ATOM     30  C   UNL     1      -0.856  11.721  21.333  0.00  0.00    +0.000 A 
ATOM     31  C   UNL     1      -0.664  11.098  22.566  0.00  0.00    +0.000 A 
ATOM     32  C   UNL     1      -0.090   9.828  22.622  0.00  0.00    +0.000 A 
ATOM     33  F   UNL     1       0.089   9.255  23.822  0.00  0.00    +0.000 F 
ENDBRANCH  25  26
ENDBRANCH   4  25
TORSDOF 8
ENDMDL
MODEL 5
REMARK VINA RESULT:      -8.1      4.636      7.197
REMARK  Name = 
REMARK  8 active torsions:
REMARK  status: ('A' for Active; 'I' for Inactive)
REMARK    1  A    between atoms: N_1  and  C_2
REMARK    2  A    between atoms: C_2  and  C_3
REMARK    3  A    between atoms: C_6  and  C_7
REMARK    4  A    between atoms: C_7  and  N_8
REMARK    5  A    between atoms: N_8  and  C_9
REMARK    6  A    between atoms: N_12  and  C_13
REMARK    7  A    between atoms: C_13  and  C_14
REMARK    8  A    between atoms: C_24  and  N_25
REMARK                            x       y       z     vdW  Elec       q    Type
REMARK                         _______ _______ _______ _____ _____    ______ ____
ROOT
ATOM      1  C   UNL     1       7.071   5.566  17.995  0.00  0.00    +0.000 A 
ATOM      2  N   UNL     1       7.704   6.493  18.748  0.00  0.00    +0.000 NA
ATOM      3  C   UNL     1       8.109   7.636  18.179  0.00  0.00    +0.000 A 
ATOM      4  N   UNL     1       8.722   8.539  19.030  0.00  0.00    +0.000 N 
ATOM      5  N   UNL     1       7.946   7.913  16.877  0.00  0.00    +0.000 NA
ATOM      6  C   UNL     1       7.338   6.971  16.126  0.00  0.00    +0.000 A 
ATOM      7  C   UNL     1       6.858   5.803  16.655  0.00  0.00    +0.000 A 
ATOM      8  H   UNL     1       8.502   8.252  19.977  0.00  0.00    +0.000 HD
ENDROOT
BRANCH   7   9
ATOM      9  N   UNL     1       6.224   4.849  15.801  0.00  0.00    +0.000 N 
ATOM     10  O   UNL     1       6.720   3.712  15.755  0.00  0.00    +0.000 OA
ATOM     11  O   UNL     1       5.187   5.205  15.227  0.00  0.00    +0.000 OA
ENDBRANCH   7   9
BRANCH   1  12
ATOM     12  N   UNL     1       6.687   4.368  18.602  0.00  0.00    +0.000 N 
ATOM     13  H   UNL     1       6.785   3.575  17.971  0.00  0.00    +0.000 HD
BRANCH  12  14
ATOM     14  C   UNL     1       5.450   4.389  19.378  0.00  0.00    +0.000 C 
BRANCH  14  18
ATOM     15  C   UNL     1       2.380   2.245  19.590  0.00  0.00    +0.000 C 
ATOM     16  C   UNL     1       3.569   1.935  18.660  0.00  0.00    +0.000 C 
ATOM     17  C   UNL     1       3.943   3.102  17.745  0.00  0.00    +0.000 C 
ATOM     18  C   UNL     1       4.176   4.414  18.511  0.00  0.00    +0.000 C 
ATOM     19  C   UNL     1       2.951   4.729  19.387  0.00  0.00    +0.000 C 
ATOM     20  C   UNL     1       2.595   3.578  20.329  0.00  0.00    +0.000 C 
BRANCH  15  21
ATOM     21  C   UNL     1       1.023   2.253  18.859  0.00  0.00    +0.000 C 
BRANCH  21  22
ATOM     22  N   UNL     1      -0.029   2.866  19.662  0.00  0.00    +0.000 NA
ATOM     23  H   UNL     1      -0.631   2.136  20.042  0.00  0.00    +0.000 HD
ATOM     24  H   UNL     1      -0.623   3.441  19.065  0.00  0.00    +0.000 HD
ENDBRANCH  21  22
ENDBRANCH  15  21
ENDBRANCH  14  18
ENDBRANCH  12  14
ENDBRANCH   1  12
BRANCH   4  25
ATOM     25  C   UNL     1       8.463   9.931  18.722  0.00  0.00    +0.000 C 
BRANCH  25  26
ATOM     26  C   UNL     1       9.608  10.779  19.195  0.00  0.00    +0.000 A 
ATOM     27  C   UNL     1       9.668  11.220  20.516  0.00  0.00    +0.000 A 
ATOM     28  F   UNL     1       8.709  10.871  21.383  0.00  0.00    +0.000 F 
ATOM     29  C   UNL     1      10.716  12.021  20.972  0.00  0.00    +0.000 A 
ATOM     30  C   UNL     1      11.739  12.393  20.101  0.00  0.00    +0.000 A 
ATOM     31  C   UNL     1      11.694  11.965  18.774  0.00  0.00    +0.000 A 
ATOM     32  C   UNL     1      10.635  11.171  18.334  0.00  0.00    +0.000 A 
ATOM     33  F   UNL     1      10.615  10.779  17.051  0.00  0.00    +0.000 F 
ENDBRANCH  25  26
ENDBRANCH   4  25
TORSDOF 8
ENDMDL
MODEL 6
REMARK VINA RESULT:      -7.9      4.641      7.209
REMARK  Name = 
REMARK  8 active torsions:
REMARK  status: ('A' for Active; 'I' for Inactive)
REMARK    1  A    between atoms: N_1  and  C_2
REMARK    2  A    between atoms: C_2  and  C_3
REMARK    3  A    between atoms: C_6  and  C_7
REMARK    4  A    between atoms: C_7  and  N_8
REMARK    5  A    between atoms: N_8  and  C_9
REMARK    6  A    between atoms: N_12  and  C_13
REMARK    7  A    between atoms: C_13  and  C_14
REMARK    8  A    between atoms: C_24  and  N_25
REMARK                            x       y       z     vdW  Elec       q    Type
REMARK                         _______ _______ _______ _____ _____    ______ ____
ROOT
ATOM      1  C   UNL     1       6.974   5.652  18.220  0.00  0.00    +0.000 A 
ATOM      2  N   UNL     1       7.685   6.596  18.875  0.00  0.00    +0.000 NA
ATOM      3  C   UNL     1       8.097   7.685  18.212  0.00  0.00    +0.000 A 
ATOM      4  N   UNL     1       8.793   8.612  18.968  0.00  0.00    +0.000 N 
ATOM      5  N   UNL     1       7.867   7.888  16.907  0.00  0.00    +0.000 NA
ATOM      6  C   UNL     1       7.181   6.927  16.254  0.00  0.00    +0.000 A 
ATOM      7  C   UNL     1       6.691   5.814  16.882  0.00  0.00    +0.000 A 
ATOM      8  H   UNL     1       8.619   8.393  19.943  0.00  0.00    +0.000 HD
ENDROOT
BRANCH   7   9
ATOM      9  N   UNL     1       5.972   4.836  16.128  0.00  0.00    +0.000 N 
ATOM     10  O   UNL     1       4.944   5.214  15.545  0.00  0.00    +0.000 OA
ATOM     11  O   UNL     1       6.467   3.704  16.053  0.00  0.00    +0.000 OA
ENDBRANCH   7   9
BRANCH   1  12
ATOM     12  N   UNL     1       6.583   4.510  18.923  0.00  0.00    +0.000 N 
ATOM     13  H   UNL     1       6.848   3.656  18.436  0.00  0.00    +0.000 HD
BRANCH  12  14
ATOM     14  C   UNL     1       5.233   4.507  19.478  0.00  0.00    +0.000 C 
BRANCH  14  18
ATOM     15  C   UNL     1       1.646   3.716  20.237  0.00  0.00    +0.000 C 
ATOM     16  C   UNL     1       2.831   3.141  21.038  0.00  0.00    +0.000 C 
ATOM     17  C   UNL     1       3.872   2.441  20.164  0.00  0.00    +0.000 C 
ATOM     18  C   UNL     1       4.371   3.320  19.006  0.00  0.00    +0.000 C 
ATOM     19  C   UNL     1       3.173   3.833  18.188  0.00  0.00    +0.000 C 
ATOM     20  C   UNL     1       2.146   4.565  19.054  0.00  0.00    +0.000 C 
BRANCH  15  21
ATOM     21  C   UNL     1       0.667   2.633  19.740  0.00  0.00    +0.000 C 
BRANCH  21  22
ATOM     22  N   UNL     1       0.626   2.558  18.284  0.00  0.00    +0.000 NA
ATOM     23  H   UNL     1       1.449   2.058  17.949  0.00  0.00    +0.000 HD
ATOM     24  H   UNL     1       0.687   3.498  17.892  0.00  0.00    +0.000 HD
ENDBRANCH  21  22
ENDBRANCH  15  21
ENDBRANCH  14  18
ENDBRANCH  12  14
ENDBRANCH   1  12
BRANCH   4  25
ATOM     25  C   UNL     1       8.568   9.992  18.588  0.00  0.00    +0.000 C 
BRANCH  25  26
ATOM     26  C   UNL     1       9.679  10.854  19.115  0.00  0.00    +0.000 A 
ATOM     27  C   UNL     1       9.674  11.291  20.439  0.00  0.00    +0.000 A 
ATOM     28  F   UNL     1       8.682  10.925  21.260  0.00  0.00    +0.000 F 
ATOM     29  C   UNL     1      10.690  12.103  20.944  0.00  0.00    +0.000 A 
ATOM     30  C   UNL     1      11.746  12.492  20.120  0.00  0.00    +0.000 A 
ATOM     31  C   UNL     1      11.766  12.069  18.791  0.00  0.00    +0.000 A 
ATOM     32  C   UNL     1      10.738  11.262  18.301  0.00  0.00    +0.000 A 
ATOM     33  F   UNL     1      10.781  10.875  17.018  0.00  0.00    +0.000 F 
ENDBRANCH  25  26
ENDBRANCH   4  25
TORSDOF 8
ENDMDL
MODEL 7
REMARK VINA RESULT:      -7.9      0.425      1.689
REMARK  Name = 
REMARK  8 active torsions:
REMARK  status: ('A' for Active; 'I' for Inactive)
REMARK    1  A    between atoms: N_1  and  C_2
REMARK    2  A    between atoms: C_2  and  C_3
REMARK    3  A    between atoms: C_6  and  C_7
REMARK    4  A    between atoms: C_7  and  N_8
REMARK    5  A    between atoms: N_8  and  C_9
REMARK    6  A    between atoms: N_12  and  C_13
REMARK    7  A    between atoms: C_13  and  C_14
REMARK    8  A    between atoms: C_24  and  N_25
REMARK                            x       y       z     vdW  Elec       q    Type
REMARK                         _______ _______ _______ _____ _____    ______ ____
ROOT
ATOM      1  C   UNL     1       4.498   4.537  19.571  0.00  0.00    +0.000 A 
ATOM      2  N   UNL     1       4.020   5.796  19.684  0.00  0.00    +0.000 NA
ATOM      3  C   UNL     1       2.708   5.985  19.869  0.00  0.00    +0.000 A 
ATOM      4  N   UNL     1       2.310   7.304  20.003  0.00  0.00    +0.000 N 
ATOM      5  N   UNL     1       1.816   4.985  19.924  0.00  0.00    +0.000 NA
ATOM      6  C   UNL     1       2.297   3.733  19.782  0.00  0.00    +0.000 A 
ATOM      7  C   UNL     1       3.633   3.468  19.638  0.00  0.00    +0.000 A 
ATOM      8  H   UNL     1       3.144   7.848  20.195  0.00  0.00    +0.000 HD
ENDROOT
BRANCH   7   9
ATOM      9  N   UNL     1       4.073   2.116  19.493  0.00  0.00    +0.000 N 
ATOM     10  O   UNL     1       4.957   1.722  20.269  0.00  0.00    +0.000 OA
ATOM     11  O   UNL     1       3.490   1.418  18.653  0.00  0.00    +0.000 OA
ENDBRANCH   7   9
BRANCH   1  12
ATOM     12  N   UNL     1       5.866   4.364  19.346  0.00  0.00    +0.000 N 
ATOM     13  H   UNL     1       6.252   3.614  19.916  0.00  0.00    +0.000 HD
BRANCH  12  14
ATOM     14  C   UNL     1       6.682   5.573  19.286  0.00  0.00    +0.000 C 
BRANCH  14  18
ATOM     15  C   UNL     1       5.465   5.287  15.750  0.00  0.00    +0.000 C 
ATOM     16  C   UNL     1       6.098   4.116  16.528  0.00  0.00    +0.000 C 
ATOM     17  C   UNL     1       7.470   4.450  17.116  0.00  0.00    +0.000 C 
ATOM     18  C   UNL     1       7.462   5.730  17.966  0.00  0.00    +0.000 C 
ATOM     19  C   UNL     1       6.880   6.895  17.147  0.00  0.00    +0.000 C 
ATOM     20  C   UNL     1       5.491   6.579  16.587  0.00  0.00    +0.000 C 
BRANCH  15  21
ATOM     21  C   UNL     1       6.120   5.527  14.376  0.00  0.00    +0.000 C 
BRANCH  21  22
ATOM     22  N   UNL     1       7.535   5.172  14.375  0.00  0.00    +0.000 NA
ATOM     23  H   UNL     1       7.853   5.052  15.336  0.00  0.00    +0.000 HD
ATOM     24  H   UNL     1       8.080   5.944  13.991  0.00  0.00    +0.000 HD
ENDBRANCH  21  22
ENDBRANCH  15  21
ENDBRANCH  14  18
ENDBRANCH  12  14
ENDBRANCH   1  12
BRANCH   4  25
ATOM     25  C   UNL     1       1.204   7.512  20.915  0.00  0.00    +0.000 C 
BRANCH  25  26
ATOM     26  C   UNL     1       0.737   8.937  20.833  0.00  0.00    +0.000 A 
ATOM     27  C   UNL     1       0.678   9.597  19.606  0.00  0.00    +0.000 A 
ATOM     28  F   UNL     1       1.019   8.954  18.483  0.00  0.00    +0.000 F 
ATOM     29  C   UNL     1       0.260  10.925  19.511  0.00  0.00    +0.000 A 
ATOM     30  C   UNL     1      -0.115  11.622  20.658  0.00  0.00    +0.000 A 
ATOM     31  C   UNL     1      -0.058  10.980  21.895  0.00  0.00    +0.000 A 
ATOM     32  C   UNL     1       0.368   9.654  21.973  0.00  0.00    +0.000 A 
ATOM     33  F   UNL     1       0.418   9.065  23.177  0.00  0.00    +0.000 F 
ENDBRANCH  25  26
ENDBRANCH   4  25
TORSDOF 8
ENDMDL
MODEL 8
REMARK VINA RESULT:      -7.8      4.677      8.635
REMARK  Name = 
REMARK  8 active torsions:
REMARK  status: ('A' for Active; 'I' for Inactive)
REMARK    1  A    between atoms: N_1  and  C_2
REMARK    2  A    between atoms: C_2  and  C_3
REMARK    3  A    between atoms: C_6  and  C_7
REMARK    4  A    between atoms: C_7  and  N_8
REMARK    5  A    between atoms: N_8  and  C_9
REMARK    6  A    between atoms: N_12  and  C_13
REMARK    7  A    between atoms: C_13  and  C_14
REMARK    8  A    between atoms: C_24  and  N_25
REMARK                            x       y       z     vdW  Elec       q    Type
REMARK                         _______ _______ _______ _____ _____    ______ ____
ROOT
ATOM      1  C   UNL     1      -0.032  10.505  20.717  0.00  0.00    +0.000 A 
ATOM      2  N   UNL     1       0.685   9.569  20.055  0.00  0.00    +0.000 NA
ATOM      3  C   UNL     1       1.287   8.593  20.747  0.00  0.00    +0.000 A 
ATOM      4  N   UNL     1       1.974   7.663  19.986  0.00  0.00    +0.000 N 
ATOM      5  N   UNL     1       1.245   8.498  22.084  0.00  0.00    +0.000 NA
ATOM      6  C   UNL     1       0.552   9.452  22.739  0.00  0.00    +0.000 A 
ATOM      7  C   UNL     1      -0.126  10.449  22.090  0.00  0.00    +0.000 A 
ATOM      8  H   UNL     1       1.658   7.770  19.028  0.00  0.00    +0.000 HD
ENDROOT
BRANCH   7   9
ATOM      9  N   UNL     1      -0.842  11.426  22.848  0.00  0.00    +0.000 N 
ATOM     10  O   UNL     1      -1.876  11.053  23.421  0.00  0.00    +0.000 OA
ATOM     11  O   UNL     1      -0.337  12.553  22.937  0.00  0.00    +0.000 OA
ENDBRANCH   7   9
BRANCH   1  12
ATOM     12  N   UNL     1      -0.624  11.532  19.979  0.00  0.00    +0.000 N 
ATOM     13  H   UNL     1      -0.317  12.451  20.294  0.00  0.00    +0.000 HD
BRANCH  12  14
ATOM     14  C   UNL     1      -2.056  11.417  19.719  0.00  0.00    +0.000 C 
BRANCH  14  18
ATOM     15  C   UNL     1      -3.202   9.728  16.573  0.00  0.00    +0.000 C 
ATOM     16  C   UNL     1      -1.742  10.151  16.826  0.00  0.00    +0.000 C 
ATOM     17  C   UNL     1      -1.595  11.627  17.202  0.00  0.00    +0.000 C 
ATOM     18  C   UNL     1      -2.494  12.038  18.378  0.00  0.00    +0.000 C 
ATOM     19  C   UNL     1      -3.953  11.657  18.075  0.00  0.00    +0.000 C 
ATOM     20  C   UNL     1      -4.111  10.174  17.733  0.00  0.00    +0.000 C 
BRANCH  15  21
ATOM     21  C   UNL     1      -3.759  10.243  15.231  0.00  0.00    +0.000 C 
BRANCH  21  22
ATOM     22  N   UNL     1      -2.808  10.066  14.139  0.00  0.00    +0.000 NA
ATOM     23  H   UNL     1      -3.122   9.305  13.539  0.00  0.00    +0.000 HD
ATOM     24  H   UNL     1      -1.906   9.775  14.516  0.00  0.00    +0.000 HD
ENDBRANCH  21  22
ENDBRANCH  15  21
ENDBRANCH  14  18
ENDBRANCH  12  14
ENDBRANCH   1  12
BRANCH   4  25
ATOM     25  C   UNL     1       1.942   6.313  20.509  0.00  0.00    +0.000 C 
BRANCH  25  26
ATOM     26  C   UNL     1       2.169   5.330  19.396  0.00  0.00    +0.000 A 
ATOM     27  C   UNL     1       1.379   4.187  19.284  0.00  0.00    +0.000 A 
ATOM     28  F   UNL     1       0.391   3.967  20.161  0.00  0.00    +0.000 F 
ATOM     29  C   UNL     1       1.583   3.255  18.266  0.00  0.00    +0.000 A 
ATOM     30  C   UNL     1       2.593   3.458  17.327  0.00  0.00    +0.000 A 
ATOM     31  C   UNL     1       3.397   4.593  17.425  0.00  0.00    +0.000 A 
ATOM     32  C   UNL     1       3.184   5.511  18.453  0.00  0.00    +0.000 A 
ATOM     33  F   UNL     1       3.977   6.591  18.527  0.00  0.00    +0.000 F 
ENDBRANCH  25  26
ENDBRANCH   4  25
TORSDOF 8
ENDMDL
MODEL 9
REMARK VINA RESULT:      -7.8      4.741      8.667
REMARK  Name = 
REMARK  8 active torsions:
REMARK  status: ('A' for Active; 'I' for Inactive)
REMARK    1  A    between atoms: N_1  and  C_2
REMARK    2  A    between atoms: C_2  and  C_3
REMARK    3  A    between atoms: C_6  and  C_7
REMARK    4  A    between atoms: C_7  and  N_8
REMARK    5  A    between atoms: N_8  and  C_9
REMARK    6  A    between atoms: N_12  and  C_13
REMARK    7  A    between atoms: C_13  and  C_14
REMARK    8  A    between atoms: C_24  and  N_25
REMARK                            x       y       z     vdW  Elec       q    Type
REMARK                         _______ _______ _______ _____ _____    ______ ____
ROOT
ATOM      1  C   UNL     1       0.095  10.334  20.317  0.00  0.00    +0.000 A 
ATOM      2  N   UNL     1       0.786   9.345  19.708  0.00  0.00    +0.000 NA
ATOM      3  C   UNL     1       1.441   8.447  20.454  0.00  0.00    +0.000 A 
ATOM      4  N   UNL     1       2.098   7.454  19.748  0.00  0.00    +0.000 N 
ATOM      5  N   UNL     1       1.478   8.482  21.794  0.00  0.00    +0.000 NA
ATOM      6  C   UNL     1       0.808   9.489  22.394  0.00  0.00    +0.000 A 
ATOM      7  C   UNL     1       0.080  10.411  21.692  0.00  0.00    +0.000 A 
ATOM      8  H   UNL     1       1.725   7.463  18.804  0.00  0.00    +0.000 HD
ENDROOT
BRANCH   7   9
ATOM      9  N   UNL     1      -0.606  11.451  22.393  0.00  0.00    +0.000 N 
ATOM     10  O   UNL     1      -0.212  12.613  22.208  0.00  0.00    +0.000 OA
ATOM     11  O   UNL     1      -1.585  11.123  23.075  0.00  0.00    +0.000 OA
ENDBRANCH   7   9
BRANCH   1  12
ATOM     12  N   UNL     1      -0.554  11.279  19.519  0.00  0.00    +0.000 N 
ATOM     13  H   UNL     1      -0.281  12.230  19.760  0.00  0.00    +0.000 HD
BRANCH  12  14
ATOM     14  C   UNL     1      -1.985  11.087  19.300  0.00  0.00    +0.000 C 
BRANCH  14  18
ATOM     15  C   UNL     1      -3.554  11.127  15.894  0.00  0.00    +0.000 C 
ATOM     16  C   UNL     1      -4.354  10.921  17.195  0.00  0.00    +0.000 C 
ATOM     17  C   UNL     1      -3.818   9.782  18.063  0.00  0.00    +0.000 C 
ATOM     18  C   UNL     1      -2.315   9.911  18.360  0.00  0.00    +0.000 C 
ATOM     19  C   UNL     1      -1.535  10.056  17.042  0.00  0.00    +0.000 C 
ATOM     20  C   UNL     1      -2.046  11.218  16.187  0.00  0.00    +0.000 C 
BRANCH  15  21
ATOM     21  C   UNL     1      -3.828  10.040  14.835  0.00  0.00    +0.000 C 
BRANCH  21  22
ATOM     22  N   UNL     1      -3.093  10.282  13.599  0.00  0.00    +0.000 NA
ATOM     23  H   UNL     1      -2.098  10.133  13.764  0.00  0.00    +0.000 HD
ATOM     24  H   UNL     1      -3.191  11.261  13.330  0.00  0.00    +0.000 HD
ENDBRANCH  21  22
ENDBRANCH  15  21
ENDBRANCH  14  18
ENDBRANCH  12  14
ENDBRANCH   1  12
BRANCH   4  25
ATOM     25  C   UNL     1       2.116   6.160  20.400  0.00  0.00    +0.000 C 
BRANCH  25  26
ATOM     26  C   UNL     1       2.235   5.073  19.371  0.00  0.00    +0.000 A 
ATOM     27  C   UNL     1       3.236   5.117  18.401  0.00  0.00    +0.000 A 
ATOM     28  F   UNL     1       4.116   6.125  18.394  0.00  0.00    +0.000 F 
ATOM     29  C   UNL     1       3.355   4.123  17.429  0.00  0.00    +0.000 A 
ATOM     30  C   UNL     1       2.464   3.051  17.414  0.00  0.00    +0.000 A 
ATOM     31  C   UNL     1       1.453   2.992  18.373  0.00  0.00    +0.000 A 
ATOM     32  C   UNL     1       1.344   3.997  19.334  0.00  0.00    +0.000 A 
ATOM     33  F   UNL     1       0.358   3.917  20.240  0.00  0.00    +0.000 F 
ENDBRANCH  25  26
ENDBRANCH   4  25
TORSDOF 8
ENDMDL
