MODEL 1
REMARK VINA RESULT:      -7.0      0.000      0.000
REMARK  Name = 
REMARK  3 active torsions:
REMARK  status: ('A' for Active; 'I' for Inactive)
REMARK    1  A    between atoms: C_1  and  C_2
REMARK    2  A    between atoms: C_8  and  N_9
REMARK    3  A    between atoms: C_10  and  C_12
REMARK                            x       y       z     vdW  Elec       q    Type
REMARK                         _______ _______ _______ _____ _____    ______ ____
ROOT
ATOM      1  N   UNL     1       2.026   7.810  20.886  0.00  0.00    +0.000 N 
ATOM      2  C   UNL     1       0.917   8.623  21.042  0.00  0.00    +0.000 C 
ATOM      3  O   UNL     1      -0.121   8.488  20.383  0.00  0.00    +0.000 OA
ATOM      4  H   UNL     1       2.922   8.146  21.226  0.00  0.00    +0.000 HD
ENDROOT
BRANCH   2   5
ATOM      5  C   UNL     1       0.925   9.755  22.080  0.00  0.00    +0.000 C 
ATOM      6  C   UNL     1      -0.084   9.693  23.228  0.00  0.00    +0.000 C 
ATOM      7  C   UNL     1      -1.258  10.666  23.144  0.00  0.00    +0.000 C 
ATOM      8  C   UNL     1      -0.863  12.035  22.609  0.00  0.00    +0.000 C 
ATOM      9  N   UNL     1      -0.089  11.920  21.380  0.00  0.00    +0.000 N 
ATOM     10  C   UNL     1      -0.764  11.922  20.166  0.00  0.00    +0.000 A 
ATOM     11  C   UNL     1      -0.124  12.348  18.993  0.00  0.00    +0.000 A 
ATOM     12  N   UNL     1      -0.712  12.407  17.772  0.00  0.00    +0.000 NA
ATOM     13  C   UNL     1      -2.003  12.029  17.755  0.00  0.00    +0.000 A 
ATOM     14  C   UNL     1      -2.661  11.614  18.899  0.00  0.00    +0.000 A 
ATOM     15  N   UNL     1      -2.062  11.548  20.114  0.00  0.00    +0.000 NA
ATOM     16  C   UNL     1       1.138  11.133  21.457  0.00  0.00    +0.000 C 
ENDBRANCH   2   5
BRANCH   1  24
ATOM     17  C   UNL     1       2.752   7.891  17.978  0.00  0.00    +0.000 C 
ATOM     18  C   UNL     1       2.366   6.639  18.713  0.00  0.00    +0.000 A 
ATOM     19  C   UNL     1       2.318   5.435  17.961  0.00  0.00    +0.000 A 
ATOM     20  C   UNL     1       1.931   4.234  18.546  0.00  0.00    +0.000 A 
ATOM     21  C   UNL     1       1.602   4.209  19.887  0.00  0.00    +0.000 A 
ATOM     22 CL   UNL     1       1.122   2.729  20.625  0.00  0.00    +0.000 Cl
ATOM     23  C   UNL     1       1.655   5.382  20.646  0.00  0.00    +0.000 A 
ATOM     24  C   UNL     1       2.012   6.620  20.078  0.00  0.00    +0.000 A 
ENDBRANCH   1  24
TORSDOF 2
ENDMDL
MODEL 2
REMARK VINA RESULT:      -6.8      4.832      7.522
REMARK  Name = 
REMARK  3 active torsions:
REMARK  status: ('A' for Active; 'I' for Inactive)
REMARK    1  A    between atoms: C_1  and  C_2
REMARK    2  A    between atoms: C_8  and  N_9
REMARK    3  A    between atoms: C_10  and  C_12
REMARK                            x       y       z     vdW  Elec       q    Type
REMARK                         _______ _______ _______ _____ _____    ______ ____
ROOT
ATOM      1  N   UNL     1      -4.195  12.049  17.432  0.00  0.00    +0.000 N 
ATOM      2  C   UNL     1      -5.415  11.555  17.860  0.00  0.00    +0.000 C 
ATOM      3  O   UNL     1      -5.542  10.470  18.440  0.00  0.00    +0.000 OA
ATOM      4  H   UNL     1      -4.190  12.773  16.721  0.00  0.00    +0.000 HD
ENDROOT
BRANCH   2   5
ATOM      5  C   UNL     1      -6.702  12.362  17.634  0.00  0.00    +0.000 C 
ATOM      6  C   UNL     1      -6.589  13.739  16.976  0.00  0.00    +0.000 C 
ATOM      7  C   UNL     1      -6.778  14.941  17.898  0.00  0.00    +0.000 C 
ATOM      8  C   UNL     1      -7.868  14.731  18.939  0.00  0.00    +0.000 C 
ATOM      9  N   UNL     1      -7.699  13.462  19.635  0.00  0.00    +0.000 N 
ATOM     10  C   UNL     1      -6.938  13.436  20.796  0.00  0.00    +0.000 A 
ATOM     11  C   UNL     1      -7.158  12.455  21.773  0.00  0.00    +0.000 A 
ATOM     12  N   UNL     1      -6.482  12.369  22.946  0.00  0.00    +0.000 NA
ATOM     13  C   UNL     1      -5.558  13.329  23.129  0.00  0.00    +0.000 A 
ATOM     14  C   UNL     1      -5.327  14.315  22.186  0.00  0.00    +0.000 A 
ATOM     15  N   UNL     1      -6.001  14.387  21.011  0.00  0.00    +0.000 NA
ATOM     16  C   UNL     1      -7.681  12.262  18.802  0.00  0.00    +0.000 C 
ENDBRANCH   2   5
BRANCH   1  24
ATOM     17  C   UNL     1      -2.945   9.942  15.704  0.00  0.00    +0.000 C 
ATOM     18  C   UNL     1      -2.333  10.458  16.975  0.00  0.00    +0.000 A 
ATOM     19  C   UNL     1      -1.102   9.880  17.383  0.00  0.00    +0.000 A 
ATOM     20  C   UNL     1      -0.480  10.264  18.566  0.00  0.00    +0.000 A 
ATOM     21  C   UNL     1      -1.065  11.237  19.352  0.00  0.00    +0.000 A 
ATOM     22 CL   UNL     1      -0.307  11.724  20.820  0.00  0.00    +0.000 Cl
ATOM     23  C   UNL     1      -2.271  11.827  18.962  0.00  0.00    +0.000 A 
ATOM     24  C   UNL     1      -2.941  11.439  17.785  0.00  0.00    +0.000 A 
ENDBRANCH   1  24
TORSDOF 2
ENDMDL
MODEL 3
REMARK VINA RESULT:      -6.7      5.441      8.007
REMARK  Name = 
REMARK  3 active torsions:
REMARK  status: ('A' for Active; 'I' for Inactive)
REMARK    1  A    between atoms: C_1  and  C_2
REMARK    2  A    between atoms: C_8  and  N_9
REMARK    3  A    between atoms: C_10  and  C_12
REMARK                            x       y       z     vdW  Elec       q    Type
REMARK                         _______ _______ _______ _____ _____    ______ ____
ROOT
ATOM      1  N   UNL     1       4.249   5.007  17.154  0.00  0.00    +0.000 N 
ATOM      2  C   UNL     1       3.572   6.191  17.388  0.00  0.00    +0.000 C 
ATOM      3  O   UNL     1       3.947   7.285  16.948  0.00  0.00    +0.000 OA
ATOM      4  H   UNL     1       4.070   4.219  17.768  0.00  0.00    +0.000 HD
ENDROOT
BRANCH   2   5
ATOM      5  C   UNL     1       2.282   6.195  18.220  0.00  0.00    +0.000 C 
ATOM      6  C   UNL     1       2.292   6.911  19.572  0.00  0.00    +0.000 C 
ATOM      7  C   UNL     1       2.306   6.013  20.807  0.00  0.00    +0.000 C 
ATOM      8  C   UNL     1       1.432   4.776  20.657  0.00  0.00    +0.000 C 
ATOM      9  N   UNL     1       1.708   4.081  19.406  0.00  0.00    +0.000 N 
ATOM     10  C   UNL     1       2.677   3.086  19.397  0.00  0.00    +0.000 A 
ATOM     11  C   UNL     1       2.629   2.051  18.452  0.00  0.00    +0.000 A 
ATOM     12  N   UNL     1       3.517   1.027  18.386  0.00  0.00    +0.000 NA
ATOM     13  C   UNL     1       4.477   1.057  19.328  0.00  0.00    +0.000 A 
ATOM     14  C   UNL     1       4.541   2.061  20.278  0.00  0.00    +0.000 A 
ATOM     15  N   UNL     1       3.655   3.087  20.330  0.00  0.00    +0.000 NA
ATOM     16  C   UNL     1       1.543   4.859  18.182  0.00  0.00    +0.000 C 
ENDBRANCH   2   5
BRANCH   1  24
ATOM     17  C   UNL     1       6.986   6.008  17.861  0.00  0.00    +0.000 C 
ATOM     18  C   UNL     1       6.641   5.358  16.551  0.00  0.00    +0.000 A 
ATOM     19  C   UNL     1       7.680   5.248  15.589  0.00  0.00    +0.000 A 
ATOM     20  C   UNL     1       7.446   4.699  14.333  0.00  0.00    +0.000 A 
ATOM     21  C   UNL     1       6.182   4.240  14.020  0.00  0.00    +0.000 A 
ATOM     22 CL   UNL     1       5.877   3.557  12.468  0.00  0.00    +0.000 Cl
ATOM     23  C   UNL     1       5.149   4.329  14.958  0.00  0.00    +0.000 A 
ATOM     24  C   UNL     1       5.345   4.907  16.227  0.00  0.00    +0.000 A 
ENDBRANCH   1  24
TORSDOF 2
ENDMDL
MODEL 4
REMARK VINA RESULT:      -6.7      3.811      7.547
REMARK  Name = 
REMARK  3 active torsions:
REMARK  status: ('A' for Active; 'I' for Inactive)
REMARK    1  A    between atoms: C_1  and  C_2
REMARK    2  A    between atoms: C_8  and  N_9
REMARK    3  A    between atoms: C_10  and  C_12
REMARK                            x       y       z     vdW  Elec       q    Type
REMARK                         _______ _______ _______ _____ _____    ______ ____
ROOT
ATOM      1  N   UNL     1       2.403   5.763  19.778  0.00  0.00    +0.000 N 
ATOM      2  C   UNL     1       1.548   4.707  20.042  0.00  0.00    +0.000 C 
ATOM      3  O   UNL     1       0.412   4.855  20.508  0.00  0.00    +0.000 OA
ATOM      4  H   UNL     1       3.395   5.569  19.685  0.00  0.00    +0.000 HD
ENDROOT
BRANCH   2   5
ATOM      5  C   UNL     1       1.984   3.264  19.750  0.00  0.00    +0.000 C 
ATOM      6  C   UNL     1       2.570   2.436  20.896  0.00  0.00    +0.000 C 
ATOM      7  C   UNL     1       4.078   2.203  20.853  0.00  0.00    +0.000 C 
ATOM      8  C   UNL     1       4.606   1.956  19.447  0.00  0.00    +0.000 C 
ATOM      9  N   UNL     1       4.129   2.971  18.516  0.00  0.00    +0.000 N 
ATOM     10  C   UNL     1       4.895   4.115  18.329  0.00  0.00    +0.000 A 
ATOM     11  C   UNL     1       4.814   4.839  17.131  0.00  0.00    +0.000 A 
ATOM     12  N   UNL     1       5.542   5.949  16.852  0.00  0.00    +0.000 NA
ATOM     13  C   UNL     1       6.389   6.323  17.829  0.00  0.00    +0.000 A 
ATOM     14  C   UNL     1       6.494   5.620  19.016  0.00  0.00    +0.000 A 
ATOM     15  N   UNL     1       5.755   4.516  19.291  0.00  0.00    +0.000 NA
ATOM     16  C   UNL     1       2.681   3.114  18.399  0.00  0.00    +0.000 C 
ENDBRANCH   2   5
BRANCH   1  24
ATOM     17  C   UNL     1       2.673   7.589  17.415  0.00  0.00    +0.000 C 
ATOM     18  C   UNL     1       2.092   8.005  18.737  0.00  0.00    +0.000 A 
ATOM     19  C   UNL     1       1.679   9.357  18.866  0.00  0.00    +0.000 A 
ATOM     20  C   UNL     1       1.168   9.845  20.064  0.00  0.00    +0.000 A 
ATOM     21  C   UNL     1       1.047   8.994  21.144  0.00  0.00    +0.000 A 
ATOM     22 CL   UNL     1       0.415   9.583  22.634  0.00  0.00    +0.000 Cl
ATOM     23  C   UNL     1       1.436   7.655  21.033  0.00  0.00    +0.000 A 
ATOM     24  C   UNL     1       1.986   7.138  19.844  0.00  0.00    +0.000 A 
ENDBRANCH   1  24
TORSDOF 2
ENDMDL
MODEL 5
REMARK VINA RESULT:      -6.6      3.524      7.954
REMARK  Name = 
REMARK  3 active torsions:
REMARK  status: ('A' for Active; 'I' for Inactive)
REMARK    1  A    between atoms: C_1  and  C_2
REMARK    2  A    between atoms: C_8  and  N_9
REMARK    3  A    between atoms: C_10  and  C_12
REMARK                            x       y       z     vdW  Elec       q    Type
REMARK                         _______ _______ _______ _____ _____    ______ ____
ROOT
ATOM      1  N   UNL     1       2.722   8.590  18.669  0.00  0.00    +0.000 N 
ATOM      2  C   UNL     1       2.968   7.314  18.194  0.00  0.00    +0.000 C 
ATOM      3  O   UNL     1       2.087   6.454  18.071  0.00  0.00    +0.000 OA
ATOM      4  H   UNL     1       3.504   9.133  19.021  0.00  0.00    +0.000 HD
ENDROOT
BRANCH   2   5
ATOM      5  C   UNL     1       4.387   6.902  17.776  0.00  0.00    +0.000 C 
ATOM      6  C   UNL     1       4.690   6.750  16.284  0.00  0.00    +0.000 C 
ATOM      7  C   UNL     1       4.831   5.319  15.770  0.00  0.00    +0.000 C 
ATOM      8  C   UNL     1       5.555   4.402  16.745  0.00  0.00    +0.000 C 
ATOM      9  N   UNL     1       4.993   4.505  18.085  0.00  0.00    +0.000 N 
ATOM     10  C   UNL     1       3.959   3.648  18.441  0.00  0.00    +0.000 A 
ATOM     11  C   UNL     1       3.742   3.311  19.785  0.00  0.00    +0.000 A 
ATOM     12  N   UNL     1       2.776   2.463  20.220  0.00  0.00    +0.000 NA
ATOM     13  C   UNL     1       2.014   1.936  19.244  0.00  0.00    +0.000 A 
ATOM     14  C   UNL     1       2.214   2.244  17.910  0.00  0.00    +0.000 A 
ATOM     15  N   UNL     1       3.176   3.101  17.485  0.00  0.00    +0.000 NA
ATOM     16  C   UNL     1       4.991   5.835  18.688  0.00  0.00    +0.000 C 
ENDBRANCH   2   5
BRANCH   1  24
ATOM     17  C   UNL     1       1.609   8.897  21.436  0.00  0.00    +0.000 C 
ATOM     18  C   UNL     1       0.862   9.261  20.184  0.00  0.00    +0.000 A 
ATOM     19  C   UNL     1      -0.462   9.750  20.340  0.00  0.00    +0.000 A 
ATOM     20  C   UNL     1      -1.246  10.074  19.238  0.00  0.00    +0.000 A 
ATOM     21  C   UNL     1      -0.721   9.930  17.969  0.00  0.00    +0.000 A 
ATOM     22 CL   UNL     1      -1.680  10.328  16.594  0.00  0.00    +0.000 Cl
ATOM     23  C   UNL     1       0.585   9.462  17.796  0.00  0.00    +0.000 A 
ATOM     24  C   UNL     1       1.394   9.096  18.889  0.00  0.00    +0.000 A 
ENDBRANCH   1  24
TORSDOF 2
ENDMDL
MODEL 6
REMARK VINA RESULT:      -6.5      3.926      8.101
REMARK  Name = 
REMARK  3 active torsions:
REMARK  status: ('A' for Active; 'I' for Inactive)
REMARK    1  A    between atoms: C_1  and  C_2
REMARK    2  A    between atoms: C_8  and  N_9
REMARK    3  A    between atoms: C_10  and  C_12
REMARK                            x       y       z     vdW  Elec       q    Type
REMARK                         _______ _______ _______ _____ _____    ______ ____
ROOT
ATOM      1  N   UNL     1       3.323   6.924  18.930  0.00  0.00    +0.000 N 
ATOM      2  C   UNL     1       3.768   7.265  17.665  0.00  0.00    +0.000 C 
ATOM      3  O   UNL     1       3.166   8.050  16.922  0.00  0.00    +0.000 OA
ATOM      4  H   UNL     1       3.684   6.076  19.356  0.00  0.00    +0.000 HD
ENDROOT
BRANCH   2   5
ATOM      5  C   UNL     1       5.075   6.673  17.117  0.00  0.00    +0.000 C 
ATOM      6  C   UNL     1       5.172   6.397  15.615  0.00  0.00    +0.000 C 
ATOM      7  C   UNL     1       5.102   4.930  15.196  0.00  0.00    +0.000 C 
ATOM      8  C   UNL     1       5.844   4.000  16.146  0.00  0.00    +0.000 C 
ATOM      9  N   UNL     1       5.466   4.247  17.532  0.00  0.00    +0.000 N 
ATOM     10  C   UNL     1       4.402   3.534  18.069  0.00  0.00    +0.000 A 
ATOM     11  C   UNL     1       4.320   3.306  19.450  0.00  0.00    +0.000 A 
ATOM     12  N   UNL     1       3.333   2.600  20.057  0.00  0.00    +0.000 NA
ATOM     13  C   UNL     1       2.407   2.101  19.219  0.00  0.00    +0.000 A 
ATOM     14  C   UNL     1       2.470   2.302  17.852  0.00  0.00    +0.000 A 
ATOM     15  N   UNL     1       3.454   3.018  17.254  0.00  0.00    +0.000 NA
ATOM     16  C   UNL     1       5.675   5.605  18.029  0.00  0.00    +0.000 C 
ENDBRANCH   2   5
BRANCH   1  24
ATOM     17  C   UNL     1       1.667   5.539  21.010  0.00  0.00    +0.000 C 
ATOM     18  C   UNL     1       1.443   6.956  20.564  0.00  0.00    +0.000 A 
ATOM     19  C   UNL     1       0.357   7.656  21.153  0.00  0.00    +0.000 A 
ATOM     20  C   UNL     1       0.046   8.957  20.773  0.00  0.00    +0.000 A 
ATOM     21  C   UNL     1       0.817   9.585  19.816  0.00  0.00    +0.000 A 
ATOM     22 CL   UNL     1       0.445  11.197  19.336  0.00  0.00    +0.000 Cl
ATOM     23  C   UNL     1       1.898   8.917  19.234  0.00  0.00    +0.000 A 
ATOM     24  C   UNL     1       2.221   7.588  19.573  0.00  0.00    +0.000 A 
ENDBRANCH   1  24
TORSDOF 2
ENDMDL
MODEL 7
REMARK VINA RESULT:      -6.5      3.870      7.944
REMARK  Name = 
REMARK  3 active torsions:
REMARK  status: ('A' for Active; 'I' for Inactive)
REMARK    1  A    between atoms: C_1  and  C_2
REMARK    2  A    between atoms: C_8  and  N_9
REMARK    3  A    between atoms: C_10  and  C_12
REMARK                            x       y       z     vdW  Elec       q    Type
REMARK                         _______ _______ _______ _____ _____    ______ ____
ROOT
ATOM      1  N   UNL     1       1.454   7.836  18.484  0.00  0.00    +0.000 N 
ATOM      2  C   UNL     1       2.382   6.906  18.920  0.00  0.00    +0.000 C 
ATOM      3  O   UNL     1       3.303   7.181  19.699  0.00  0.00    +0.000 OA
ATOM      4  H   UNL     1       0.925   7.631  17.642  0.00  0.00    +0.000 HD
ENDROOT
BRANCH   2   5
ATOM      5  C   UNL     1       2.300   5.447  18.449  0.00  0.00    +0.000 C 
ATOM      6  C   UNL     1       2.080   4.357  19.500  0.00  0.00    +0.000 C 
ATOM      7  C   UNL     1       3.293   3.491  19.833  0.00  0.00    +0.000 C 
ATOM      8  C   UNL     1       4.140   3.153  18.615  0.00  0.00    +0.000 C 
ATOM      9  N   UNL     1       4.450   4.346  17.837  0.00  0.00    +0.000 N 
ATOM     10  C   UNL     1       5.610   5.050  18.132  0.00  0.00    +0.000 A 
ATOM     11  C   UNL     1       6.239   5.831  17.152  0.00  0.00    +0.000 A 
ATOM     12  N   UNL     1       7.387   6.529  17.344  0.00  0.00    +0.000 NA
ATOM     13  C   UNL     1       7.912   6.414  18.576  0.00  0.00    +0.000 A 
ATOM     14  C   UNL     1       7.317   5.642  19.558  0.00  0.00    +0.000 A 
ATOM     15  N   UNL     1       6.164   4.955  19.361  0.00  0.00    +0.000 NA
ATOM     16  C   UNL     1       3.309   5.117  17.351  0.00  0.00    +0.000 C 
ENDBRANCH   2   5
BRANCH   1  24
ATOM     17  C   UNL     1       0.267   8.312  21.196  0.00  0.00    +0.000 C 
ATOM     18  C   UNL     1       0.818   9.399  20.317  0.00  0.00    +0.000 A 
ATOM     19  C   UNL     1       0.735  10.730  20.804  0.00  0.00    +0.000 A 
ATOM     20  C   UNL     1       1.181  11.806  20.044  0.00  0.00    +0.000 A 
ATOM     21  C   UNL     1       1.728  11.573  18.798  0.00  0.00    +0.000 A 
ATOM     22 CL   UNL     1       2.285  12.896  17.845  0.00  0.00    +0.000 Cl
ATOM     23  C   UNL     1       1.829  10.268  18.306  0.00  0.00    +0.000 A 
ATOM     24  C   UNL     1       1.360   9.160  19.037  0.00  0.00    +0.000 A 
ENDBRANCH   1  24
TORSDOF 2
ENDMDL
MODEL 8
REMARK VINA RESULT:      -6.5      4.035      7.863
REMARK  Name = 
REMARK  3 active torsions:
REMARK  status: ('A' for Active; 'I' for Inactive)
REMARK    1  A    between atoms: C_1  and  C_2
REMARK    2  A    between atoms: C_8  and  N_9
REMARK    3  A    between atoms: C_10  and  C_12
REMARK                            x       y       z     vdW  Elec       q    Type
REMARK                         _______ _______ _______ _____ _____    ______ ____
ROOT
ATOM      1  N   UNL     1       2.290   5.823  19.347  0.00  0.00    +0.000 N 
ATOM      2  C   UNL     1       1.800   4.830  18.517  0.00  0.00    +0.000 C 
ATOM      3  O   UNL     1       1.036   5.053  17.570  0.00  0.00    +0.000 OA
ATOM      4  H   UNL     1       2.655   5.555  20.256  0.00  0.00    +0.000 HD
ENDROOT
BRANCH   2   5
ATOM      5  C   UNL     1       2.205   3.365  18.737  0.00  0.00    +0.000 C 
ATOM      6  C   UNL     1       2.260   2.834  20.171  0.00  0.00    +0.000 C 
ATOM      7  C   UNL     1       3.655   2.621  20.755  0.00  0.00    +0.000 C 
ATOM      8  C   UNL     1       4.647   2.063  19.745  0.00  0.00    +0.000 C 
ATOM      9  N   UNL     1       4.627   2.827  18.504  0.00  0.00    +0.000 N 
ATOM     10  C   UNL     1       5.489   3.907  18.374  0.00  0.00    +0.000 A 
ATOM     11  C   UNL     1       5.914   4.333  17.107  0.00  0.00    +0.000 A 
ATOM     12  N   UNL     1       6.773   5.360  16.888  0.00  0.00    +0.000 NA
ATOM     13  C   UNL     1       7.222   5.962  18.004  0.00  0.00    +0.000 A 
ATOM     14  C   UNL     1       6.826   5.555  19.266  0.00  0.00    +0.000 A 
ATOM     15  N   UNL     1       5.959   4.534  19.476  0.00  0.00    +0.000 NA
ATOM     16  C   UNL     1       3.340   2.916  17.819  0.00  0.00    +0.000 C 
ENDBRANCH   2   5
BRANCH   1  24
ATOM     17  C   UNL     1       3.761   7.185  17.118  0.00  0.00    +0.000 C 
ATOM     18  C   UNL     1       2.780   7.875  18.023  0.00  0.00    +0.000 A 
ATOM     19  C   UNL     1       2.573   9.264  17.815  0.00  0.00    +0.000 A 
ATOM     20  C   UNL     1       1.716   9.997  18.629  0.00  0.00    +0.000 A 
ATOM     21  C   UNL     1       1.043   9.358  19.651  0.00  0.00    +0.000 A 
ATOM     22 CL   UNL     1      -0.023  10.252  20.666  0.00  0.00    +0.000 Cl
ATOM     23  C   UNL     1       1.224   7.988  19.864  0.00  0.00    +0.000 A 
ATOM     24  C   UNL     1       2.107   7.224  19.078  0.00  0.00    +0.000 A 
ENDBRANCH   1  24
TORSDOF 2
ENDMDL
MODEL 9
REMARK VINA RESULT:      -6.3      3.574      7.690
REMARK  Name = 
REMARK  3 active torsions:
REMARK  status: ('A' for Active; 'I' for Inactive)
REMARK    1  A    between atoms: C_1  and  C_2
REMARK    2  A    between atoms: C_8  and  N_9
REMARK    3  A    between atoms: C_10  and  C_12
REMARK                            x       y       z     vdW  Elec       q    Type
REMARK                         _______ _______ _______ _____ _____    ______ ____
ROOT
ATOM      1  N   UNL     1       1.283   7.104  19.192  0.00  0.00    +0.000 N 
ATOM      2  C   UNL     1       2.421   6.332  19.342  0.00  0.00    +0.000 C 
ATOM      3  O   UNL     1       3.430   6.721  19.942  0.00  0.00    +0.000 OA
ATOM      4  H   UNL     1       0.626   6.858  18.458  0.00  0.00    +0.000 HD
ENDROOT
BRANCH   2   5
ATOM      5  C   UNL     1       2.477   4.912  18.761  0.00  0.00    +0.000 C 
ATOM      6  C   UNL     1       2.572   3.733  19.733  0.00  0.00    +0.000 C 
ATOM      7  C   UNL     1       3.931   3.044  19.822  0.00  0.00    +0.000 C 
ATOM      8  C   UNL     1       4.628   2.920  18.474  0.00  0.00    +0.000 C 
ATOM      9  N   UNL     1       4.647   4.194  17.768  0.00  0.00    +0.000 N 
ATOM     10  C   UNL     1       5.726   5.047  17.963  0.00  0.00    +0.000 A 
ATOM     11  C   UNL     1       6.087   5.977  16.978  0.00  0.00    +0.000 A 
ATOM     12  N   UNL     1       7.140   6.829  17.072  0.00  0.00    +0.000 NA
ATOM     13  C   UNL     1       7.852   6.714  18.207  0.00  0.00    +0.000 A 
ATOM     14  C   UNL     1       7.524   5.797  19.190  0.00  0.00    +0.000 A 
ATOM     15  N   UNL     1       6.464   4.956  19.092  0.00  0.00    +0.000 NA
ATOM     16  C   UNL     1       3.349   4.813  17.511  0.00  0.00    +0.000 C 
ENDBRANCH   2   5
BRANCH   1  24
ATOM     17  C   UNL     1       1.748   9.722  17.806  0.00  0.00    +0.000 C 
ATOM     18  C   UNL     1       1.295   9.595  19.232  0.00  0.00    +0.000 A 
ATOM     19  C   UNL     1       1.110  10.799  19.962  0.00  0.00    +0.000 A 
ATOM     20  C   UNL     1       0.732  10.782  21.300  0.00  0.00    +0.000 A 
ATOM     21  C   UNL     1       0.518   9.570  21.927  0.00  0.00    +0.000 A 
ATOM     22 CL   UNL     1       0.048   9.532  23.583  0.00  0.00    +0.000 Cl
ATOM     23  C   UNL     1       0.683   8.374  21.221  0.00  0.00    +0.000 A 
ATOM     24  C   UNL     1       1.095   8.356  19.875  0.00  0.00    +0.000 A 
ENDBRANCH   1  24
TORSDOF 2
ENDMDL
