MODEL 1
REMARK VINA RESULT:      -7.9      0.000      0.000
REMARK  Name = 
REMARK  14 active torsions:
REMARK  status: ('A' for Active; 'I' for Inactive)
REMARK    1  A    between atoms: C_1  and  O_2
REMARK    2  A    between atoms: O_2  and  C_3
REMARK    3  A    between atoms: C_6  and  C_7
REMARK    4  A    between atoms: C_8  and  C_9
REMARK    5  A    between atoms: C_9  and  C_11
REMARK    6  A    between atoms: C_12  and  O_13
REMARK    7  A    between atoms: O_13  and  C_14
REMARK    8  A    between atoms: C_16  and  O_17
REMARK    9  A    between atoms: O_17  and  C_18
REMARK   10  A    between atoms: C_19  and  C_20
REMARK   11  A    between atoms: N_23  and  C_24
REMARK   12  A    between atoms: C_27  and  O_28
REMARK   13  A    between atoms: C_29  and  O_30
REMARK   14  A    between atoms: O_30  and  C_31
REMARK                            x       y       z     vdW  Elec       q    Type
REMARK                         _______ _______ _______ _____ _____    ______ ____
ROOT
ATOM      1  C   UNL     1       1.274   8.977  19.324  0.00  0.00    +0.000 A 
ATOM      2  C   UNL     1       1.036   8.319  20.533  0.00  0.00    +0.000 A 
ATOM      3  C   UNL     1       1.625   7.054  20.740  0.00  0.00    +0.000 A 
ATOM      4  C   UNL     1       2.431   6.417  19.781  0.00  0.00    +0.000 A 
ATOM      5  C   UNL     1       2.700   7.060  18.560  0.00  0.00    +0.000 A 
ATOM      6  C   UNL     1       2.105   8.335  18.363  0.00  0.00    +0.000 A 
ENDROOT
BRANCH   5   7
ATOM      7  C   UNL     1       3.645   6.469  17.524  0.00  0.00    +0.000 C 
ATOM      8  C   UNL     1       3.618   4.932  17.428  0.00  0.00    +0.000 C 
ATOM      9  C   UNL     1       4.629   4.438  16.398  0.00  0.00    +0.000 C 
ATOM     10  N   UNL     1       5.976   4.950  16.697  0.00  0.00    +0.000 NA
ATOM     11  C   UNL     1       6.937   4.391  15.744  0.00  0.00    +0.000 C 
ATOM     12  C   UNL     1       6.017   6.416  16.643  0.00  0.00    +0.000 C 
ATOM     13  C   UNL     1       5.071   7.028  17.673  0.00  0.00    +0.000 C 
ENDBRANCH   5   7
BRANCH   1  14
ATOM     14  C   UNL     1       0.841  10.388  19.041  0.00  0.00    +0.000 C 
ATOM     15  O   UNL     1       1.647  11.250  18.711  0.00  0.00    +0.000 OA
BRANCH  14  17
ATOM     16  C   UNL     1      -1.197  11.485  18.212  0.00  0.00    +0.000 C 
ATOM     17  C   UNL     1      -0.623  10.691  19.133  0.00  0.00    +0.000 C 
BRANCH  16  21
ATOM     18  C   UNL     1      -5.464  11.675  17.793  0.00  0.00    +0.000 A 
ATOM     19  C   UNL     1      -4.843  12.039  18.988  0.00  0.00    +0.000 A 
ATOM     20  C   UNL     1      -3.452  11.977  19.121  0.00  0.00    +0.000 A 
ATOM     21  C   UNL     1      -2.659  11.549  18.051  0.00  0.00    +0.000 A 
ATOM     22  C   UNL     1      -3.282  11.181  16.835  0.00  0.00    +0.000 A 
ATOM     23  C   UNL     1      -4.682  11.243  16.722  0.00  0.00    +0.000 A 
BRANCH  18  25
ATOM     24  C   UNL     1      -7.425  12.470  18.887  0.00  0.00    +0.000 C 
ATOM     25  O   UNL     1      -6.830  11.779  17.795  0.00  0.00    +0.000 OA
ENDBRANCH  18  25
BRANCH  22  26
ATOM     26  O   UNL     1      -2.455  10.763  15.820  0.00  0.00    +0.000 OA
ATOM     27  C   UNL     1      -3.064  10.217  14.656  0.00  0.00    +0.000 C 
ENDBRANCH  22  26
ENDBRANCH  16  21
ENDBRANCH  14  17
ENDBRANCH   1  14
BRANCH   2  28
ATOM     28  O   UNL     1       0.355   8.752  21.634  0.00  0.00    +0.000 OA
ATOM     29  C   UNL     1       1.086   9.391  22.672  0.00  0.00    +0.000 C 
ENDBRANCH   2  28
BRANCH   4  30
ATOM     30  O   UNL     1       3.029   5.277  20.258  0.00  0.00    +0.000 OA
ATOM     31  C   UNL     1       2.235   4.330  20.962  0.00  0.00    +0.000 C 
ENDBRANCH   4  30
BRANCH   6  32
ATOM     32  O   UNL     1       2.396   9.064  17.235  0.00  0.00    +0.000 OA
ATOM     33  H   UNL     1       3.209   8.774  16.800  0.00  0.00    +0.000 HD
ENDBRANCH   6  32
TORSDOF 9
ENDMDL
MODEL 2
REMARK VINA RESULT:      -7.5      4.164      9.751
REMARK  Name = 
REMARK  14 active torsions:
REMARK  status: ('A' for Active; 'I' for Inactive)
REMARK    1  A    between atoms: C_1  and  O_2
REMARK    2  A    between atoms: O_2  and  C_3
REMARK    3  A    between atoms: C_6  and  C_7
REMARK    4  A    between atoms: C_8  and  C_9
REMARK    5  A    between atoms: C_9  and  C_11
REMARK    6  A    between atoms: C_12  and  O_13
REMARK    7  A    between atoms: O_13  and  C_14
REMARK    8  A    between atoms: C_16  and  O_17
REMARK    9  A    between atoms: O_17  and  C_18
REMARK   10  A    between atoms: C_19  and  C_20
REMARK   11  A    between atoms: N_23  and  C_24
REMARK   12  A    between atoms: C_27  and  O_28
REMARK   13  A    between atoms: C_29  and  O_30
REMARK   14  A    between atoms: O_30  and  C_31
REMARK                            x       y       z     vdW  Elec       q    Type
REMARK                         _______ _______ _______ _____ _____    ______ ____
ROOT
ATOM      1  C   UNL     1       0.368  10.469  21.282  0.00  0.00    +0.000 A 
ATOM      2  C   UNL     1       0.518  10.982  19.991  0.00  0.00    +0.000 A 
ATOM      3  C   UNL     1      -0.156  12.175  19.657  0.00  0.00    +0.000 A 
ATOM      4  C   UNL     1      -0.982  12.867  20.559  0.00  0.00    +0.000 A 
ATOM      5  C   UNL     1      -1.142  12.384  21.869  0.00  0.00    +0.000 A 
ATOM      6  C   UNL     1      -0.456  11.183  22.196  0.00  0.00    +0.000 A 
ENDROOT
BRANCH   5   7
ATOM      7  C   UNL     1      -1.942  13.140  22.920  0.00  0.00    +0.000 C 
ATOM      8  C   UNL     1      -3.379  13.499  22.504  0.00  0.00    +0.000 C 
ATOM      9  C   UNL     1      -4.078  14.292  23.604  0.00  0.00    +0.000 C 
ATOM     10  N   UNL     1      -3.295  15.483  23.970  0.00  0.00    +0.000 NA
ATOM     11  C   UNL     1      -4.030  16.268  24.964  0.00  0.00    +0.000 C 
ATOM     12  C   UNL     1      -1.977  15.115  24.501  0.00  0.00    +0.000 C 
ATOM     13  C   UNL     1      -1.162  14.351  23.462  0.00  0.00    +0.000 C 
ENDBRANCH   5   7
BRANCH   1  14
ATOM     14  C   UNL     1       1.151   9.301  21.813  0.00  0.00    +0.000 C 
ATOM     15  O   UNL     1       1.842   9.399  22.820  0.00  0.00    +0.000 OA
BRANCH  14  17
ATOM     16  C   UNL     1       2.062   7.512  20.394  0.00  0.00    +0.000 C 
ATOM     17  C   UNL     1       1.018   7.996  21.090  0.00  0.00    +0.000 C 
BRANCH  16  21
ATOM     18  C   UNL     1       2.202   3.407  19.150  0.00  0.00    +0.000 A 
ATOM     19  C   UNL     1       1.813   3.752  20.444  0.00  0.00    +0.000 A 
ATOM     20  C   UNL     1       1.767   5.090  20.847  0.00  0.00    +0.000 A 
ATOM     21  C   UNL     1       2.111   6.109  19.951  0.00  0.00    +0.000 A 
ATOM     22  C   UNL     1       2.504   5.767  18.636  0.00  0.00    +0.000 A 
ATOM     23  C   UNL     1       2.551   4.415  18.251  0.00  0.00    +0.000 A 
BRANCH  18  25
ATOM     24  C   UNL     1       3.452   1.479  18.522  0.00  0.00    +0.000 C 
ATOM     25  O   UNL     1       2.206   2.063  18.885  0.00  0.00    +0.000 OA
ENDBRANCH  18  25
BRANCH  22  26
ATOM     26  O   UNL     1       2.835   6.806  17.801  0.00  0.00    +0.000 OA
ATOM     27  C   UNL     1       4.176   6.871  17.328  0.00  0.00    +0.000 C 
ENDBRANCH  22  26
ENDBRANCH  16  21
ENDBRANCH  14  17
ENDBRANCH   1  14
BRANCH   2  28
ATOM     28  O   UNL     1       1.308  10.539  18.970  0.00  0.00    +0.000 OA
ATOM     29  C   UNL     1       0.710   9.764  17.940  0.00  0.00    +0.000 C 
ENDBRANCH   2  28
BRANCH   4  30
ATOM     30  O   UNL     1      -1.399  14.083  20.076  0.00  0.00    +0.000 OA
ATOM     31  C   UNL     1      -0.421  15.069  19.767  0.00  0.00    +0.000 C 
ENDBRANCH   4  30
BRANCH   6  32
ATOM     32  O   UNL     1      -0.489  10.699  23.483  0.00  0.00    +0.000 OA
ATOM     33  H   UNL     1      -1.354  10.807  23.901  0.00  0.00    +0.000 HD
ENDBRANCH   6  32
TORSDOF 9
ENDMDL
MODEL 3
REMARK VINA RESULT:      -7.4      1.080      1.868
REMARK  Name = 
REMARK  14 active torsions:
REMARK  status: ('A' for Active; 'I' for Inactive)
REMARK    1  A    between atoms: C_1  and  O_2
REMARK    2  A    between atoms: O_2  and  C_3
REMARK    3  A    between atoms: C_6  and  C_7
REMARK    4  A    between atoms: C_8  and  C_9
REMARK    5  A    between atoms: C_9  and  C_11
REMARK    6  A    between atoms: C_12  and  O_13
REMARK    7  A    between atoms: O_13  and  C_14
REMARK    8  A    between atoms: C_16  and  O_17
REMARK    9  A    between atoms: O_17  and  C_18
REMARK   10  A    between atoms: C_19  and  C_20
REMARK   11  A    between atoms: N_23  and  C_24
REMARK   12  A    between atoms: C_27  and  O_28
REMARK   13  A    between atoms: C_29  and  O_30
REMARK   14  A    between atoms: O_30  and  C_31
REMARK                            x       y       z     vdW  Elec       q    Type
REMARK                         _______ _______ _______ _____ _____    ______ ____
ROOT
ATOM      1  C   UNL     1       1.336   8.771  19.255  0.00  0.00    +0.000 A 
ATOM      2  C   UNL     1       1.159   8.122  20.480  0.00  0.00    +0.000 A 
ATOM      3  C   UNL     1       1.817   6.892  20.693  0.00  0.00    +0.000 A 
ATOM      4  C   UNL     1       2.633   6.282  19.725  0.00  0.00    +0.000 A 
ATOM      5  C   UNL     1       2.841   6.917  18.488  0.00  0.00    +0.000 A 
ATOM      6  C   UNL     1       2.177   8.156  18.286  0.00  0.00    +0.000 A 
ENDROOT
BRANCH   5   7
ATOM      7  C   UNL     1       3.792   6.358  17.440  0.00  0.00    +0.000 C 
ATOM      8  C   UNL     1       3.752   4.827  17.282  0.00  0.00    +0.000 C 
ATOM      9  C   UNL     1       4.769   4.364  16.245  0.00  0.00    +0.000 C 
ATOM     10  N   UNL     1       6.118   4.850  16.579  0.00  0.00    +0.000 NA
ATOM     11  C   UNL     1       7.083   4.319  15.614  0.00  0.00    +0.000 C 
ATOM     12  C   UNL     1       6.172   6.317  16.583  0.00  0.00    +0.000 C 
ATOM     13  C   UNL     1       5.222   6.897  17.627  0.00  0.00    +0.000 C 
ENDBRANCH   5   7
BRANCH   1  14
ATOM     14  C   UNL     1       0.823  10.153  18.961  0.00  0.00    +0.000 C 
ATOM     15  O   UNL     1       1.580  11.057  18.625  0.00  0.00    +0.000 OA
BRANCH  14  17
ATOM     16  C   UNL     1      -1.179  11.540  18.632  0.00  0.00    +0.000 C 
ATOM     17  C   UNL     1      -0.656  10.374  19.049  0.00  0.00    +0.000 C 
BRANCH  16  21
ATOM     18  C   UNL     1      -5.377  11.976  17.850  0.00  0.00    +0.000 A 
ATOM     19  C   UNL     1      -4.522  11.428  16.894  0.00  0.00    +0.000 A 
ATOM     20  C   UNL     1      -3.155  11.287  17.152  0.00  0.00    +0.000 A 
ATOM     21  C   UNL     1      -2.622  11.692  18.380  0.00  0.00    +0.000 A 
ATOM     22  C   UNL     1      -3.483  12.246  19.356  0.00  0.00    +0.000 A 
ATOM     23  C   UNL     1      -4.854  12.387  19.077  0.00  0.00    +0.000 A 
BRANCH  18  25
ATOM     24  C   UNL     1      -7.167  13.341  17.073  0.00  0.00    +0.000 C 
ATOM     25  O   UNL     1      -6.690  12.061  17.472  0.00  0.00    +0.000 OA
ENDBRANCH  18  25
BRANCH  22  26
ATOM     26  O   UNL     1      -2.906  12.631  20.542  0.00  0.00    +0.000 OA
ATOM     27  C   UNL     1      -3.726  12.633  21.705  0.00  0.00    +0.000 C 
ENDBRANCH  22  26
ENDBRANCH  16  21
ENDBRANCH  14  17
ENDBRANCH   1  14
BRANCH   2  28
ATOM     28  O   UNL     1       0.481   8.537  21.590  0.00  0.00    +0.000 OA
ATOM     29  C   UNL     1       1.195   9.256  22.587  0.00  0.00    +0.000 C 
ENDBRANCH   2  28
BRANCH   4  30
ATOM     30  O   UNL     1       3.300   5.182  20.206  0.00  0.00    +0.000 OA
ATOM     31  C   UNL     1       2.543   4.098  20.732  0.00  0.00    +0.000 C 
ENDBRANCH   4  30
BRANCH   6  32
ATOM     32  O   UNL     1       2.405   8.881  17.140  0.00  0.00    +0.000 OA
ATOM     33  H   UNL     1       1.840   8.608  16.406  0.00  0.00    +0.000 HD
ENDBRANCH   6  32
TORSDOF 9
ENDMDL
MODEL 4
REMARK VINA RESULT:      -7.2      0.611      1.066
REMARK  Name = 
REMARK  14 active torsions:
REMARK  status: ('A' for Active; 'I' for Inactive)
REMARK    1  A    between atoms: C_1  and  O_2
REMARK    2  A    between atoms: O_2  and  C_3
REMARK    3  A    between atoms: C_6  and  C_7
REMARK    4  A    between atoms: C_8  and  C_9
REMARK    5  A    between atoms: C_9  and  C_11
REMARK    6  A    between atoms: C_12  and  O_13
REMARK    7  A    between atoms: O_13  and  C_14
REMARK    8  A    between atoms: C_16  and  O_17
REMARK    9  A    between atoms: O_17  and  C_18
REMARK   10  A    between atoms: C_19  and  C_20
REMARK   11  A    between atoms: N_23  and  C_24
REMARK   12  A    between atoms: C_27  and  O_28
REMARK   13  A    between atoms: C_29  and  O_30
REMARK   14  A    between atoms: O_30  and  C_31
REMARK                            x       y       z     vdW  Elec       q    Type
REMARK                         _______ _______ _______ _____ _____    ______ ____
ROOT
ATOM      1  C   UNL     1       1.437   8.611  19.234  0.00  0.00    +0.000 A 
ATOM      2  C   UNL     1       1.007   8.077  20.452  0.00  0.00    +0.000 A 
ATOM      3  C   UNL     1       1.518   6.827  20.858  0.00  0.00    +0.000 A 
ATOM      4  C   UNL     1       2.433   6.086  20.091  0.00  0.00    +0.000 A 
ATOM      5  C   UNL     1       2.895   6.603  18.867  0.00  0.00    +0.000 A 
ATOM      6  C   UNL     1       2.376   7.864  18.469  0.00  0.00    +0.000 A 
ENDROOT
BRANCH   5   7
ATOM      7  C   UNL     1       3.959   5.898  18.040  0.00  0.00    +0.000 C 
ATOM      8  C   UNL     1       4.743   6.812  17.081  0.00  0.00    +0.000 C 
ATOM      9  C   UNL     1       5.749   6.004  16.267  0.00  0.00    +0.000 C 
ATOM     10  N   UNL     1       5.084   4.900  15.557  0.00  0.00    +0.000 NA
ATOM     11  C   UNL     1       6.058   4.197  14.719  0.00  0.00    +0.000 C 
ATOM     12  C   UNL     1       4.462   3.958  16.495  0.00  0.00    +0.000 C 
ATOM     13  C   UNL     1       3.395   4.649  17.338  0.00  0.00    +0.000 C 
ENDBRANCH   5   7
BRANCH   1  14
ATOM     14  C   UNL     1       1.095   9.996  18.762  0.00  0.00    +0.000 C 
ATOM     15  O   UNL     1       1.935  10.719  18.237  0.00  0.00    +0.000 OA
BRANCH  14  17
ATOM     16  C   UNL     1      -0.912  11.145  17.928  0.00  0.00    +0.000 C 
ATOM     17  C   UNL     1      -0.326  10.446  18.915  0.00  0.00    +0.000 C 
BRANCH  16  21
ATOM     18  C   UNL     1      -5.170  11.666  17.806  0.00  0.00    +0.000 A 
ATOM     19  C   UNL     1      -4.435  12.025  18.936  0.00  0.00    +0.000 A 
ATOM     20  C   UNL     1      -3.048  11.854  18.972  0.00  0.00    +0.000 A 
ATOM     21  C   UNL     1      -2.373  11.322  17.869  0.00  0.00    +0.000 A 
ATOM     22  C   UNL     1      -3.111  10.958  16.718  0.00  0.00    +0.000 A 
ATOM     23  C   UNL     1      -4.506  11.130  16.702  0.00  0.00    +0.000 A 
BRANCH  18  25
ATOM     24  C   UNL     1      -7.150  11.513  19.121  0.00  0.00    +0.000 C 
ATOM     25  O   UNL     1      -6.520  11.881  17.900  0.00  0.00    +0.000 OA
ENDBRANCH  18  25
BRANCH  22  26
ATOM     26  O   UNL     1      -2.398  10.436  15.667  0.00  0.00    +0.000 OA
ATOM     27  C   UNL     1      -3.120  10.065  14.498  0.00  0.00    +0.000 C 
ENDBRANCH  22  26
ENDBRANCH  16  21
ENDBRANCH  14  17
ENDBRANCH   1  14
BRANCH   2  28
ATOM     28  O   UNL     1       0.189   8.626  21.397  0.00  0.00    +0.000 OA
ATOM     29  C   UNL     1       0.784   9.330  22.478  0.00  0.00    +0.000 C 
ENDBRANCH   2  28
BRANCH   4  30
ATOM     30  O   UNL     1       2.919   4.987  20.753  0.00  0.00    +0.000 OA
ATOM     31  C   UNL     1       2.006   3.975  21.163  0.00  0.00    +0.000 C 
ENDBRANCH   4  30
BRANCH   6  32
ATOM     32  O   UNL     1       2.850   8.476  17.333  0.00  0.00    +0.000 OA
ATOM     33  H   UNL     1       3.804   8.628  17.359  0.00  0.00    +0.000 HD
ENDBRANCH   6  32
TORSDOF 9
ENDMDL
MODEL 5
REMARK VINA RESULT:      -7.1      3.821      9.521
REMARK  Name = 
REMARK  14 active torsions:
REMARK  status: ('A' for Active; 'I' for Inactive)
REMARK    1  A    between atoms: C_1  and  O_2
REMARK    2  A    between atoms: O_2  and  C_3
REMARK    3  A    between atoms: C_6  and  C_7
REMARK    4  A    between atoms: C_8  and  C_9
REMARK    5  A    between atoms: C_9  and  C_11
REMARK    6  A    between atoms: C_12  and  O_13
REMARK    7  A    between atoms: O_13  and  C_14
REMARK    8  A    between atoms: C_16  and  O_17
REMARK    9  A    between atoms: O_17  and  C_18
REMARK   10  A    between atoms: C_19  and  C_20
REMARK   11  A    between atoms: N_23  and  C_24
REMARK   12  A    between atoms: C_27  and  O_28
REMARK   13  A    between atoms: C_29  and  O_30
REMARK   14  A    between atoms: O_30  and  C_31
REMARK                            x       y       z     vdW  Elec       q    Type
REMARK                         _______ _______ _______ _____ _____    ______ ____
ROOT
ATOM      1  C   UNL     1       0.175  10.677  18.961  0.00  0.00    +0.000 A 
ATOM      2  C   UNL     1      -1.052  10.493  18.319  0.00  0.00    +0.000 A 
ATOM      3  C   UNL     1      -2.168  11.225  18.773  0.00  0.00    +0.000 A 
ATOM      4  C   UNL     1      -2.108  12.125  19.851  0.00  0.00    +0.000 A 
ATOM      5  C   UNL     1      -0.884  12.343  20.509  0.00  0.00    +0.000 A 
ATOM      6  C   UNL     1       0.234  11.602  20.041  0.00  0.00    +0.000 A 
ENDROOT
BRANCH   5   7
ATOM      7  C   UNL     1      -0.732  13.376  21.616  0.00  0.00    +0.000 C 
ATOM      8  C   UNL     1      -1.617  13.134  22.852  0.00  0.00    +0.000 C 
ATOM      9  C   UNL     1      -1.425  14.245  23.879  0.00  0.00    +0.000 C 
ATOM     10  N   UNL     1      -1.667  15.565  23.276  0.00  0.00    +0.000 NA
ATOM     11  C   UNL     1      -1.559  16.602  24.305  0.00  0.00    +0.000 C 
ATOM     12  C   UNL     1      -0.719  15.840  22.190  0.00  0.00    +0.000 C 
ATOM     13  C   UNL     1      -0.854  14.810  21.072  0.00  0.00    +0.000 C 
ENDBRANCH   5   7
BRANCH   1  14
ATOM     14  C   UNL     1       1.468  10.083  18.479  0.00  0.00    +0.000 C 
ATOM     15  O   UNL     1       2.323  10.770  17.932  0.00  0.00    +0.000 OA
BRANCH  14  17
ATOM     16  C   UNL     1       2.281   7.868  17.788  0.00  0.00    +0.000 C 
ATOM     17  C   UNL     1       1.694   8.624  18.733  0.00  0.00    +0.000 C 
BRANCH  16  21
ATOM     18  C   UNL     1       3.831   3.974  18.713  0.00  0.00    +0.000 A 
ATOM     19  C   UNL     1       2.505   4.304  18.994  0.00  0.00    +0.000 A 
ATOM     20  C   UNL     1       2.003   5.573  18.691  0.00  0.00    +0.000 A 
ATOM     21  C   UNL     1       2.826   6.535  18.096  0.00  0.00    +0.000 A 
ATOM     22  C   UNL     1       4.172   6.207  17.806  0.00  0.00    +0.000 A 
ATOM     23  C   UNL     1       4.662   4.928  18.124  0.00  0.00    +0.000 A 
BRANCH  18  25
ATOM     24  C   UNL     1       3.517   1.632  18.417  0.00  0.00    +0.000 C 
ATOM     25  O   UNL     1       4.198   2.701  19.062  0.00  0.00    +0.000 OA
ENDBRANCH  18  25
BRANCH  22  26
ATOM     26  O   UNL     1       4.936   7.191  17.227  0.00  0.00    +0.000 OA
ATOM     27  C   UNL     1       6.346   7.001  17.200  0.00  0.00    +0.000 C 
ENDBRANCH  22  26
ENDBRANCH  16  21
ENDBRANCH  14  17
ENDBRANCH   1  14
BRANCH   2  28
ATOM     28  O   UNL     1      -1.349   9.739  17.220  0.00  0.00    +0.000 OA
ATOM     29  C   UNL     1      -2.562  10.001  16.528  0.00  0.00    +0.000 C 
ENDBRANCH   2  28
BRANCH   4  30
ATOM     30  O   UNL     1      -3.265  12.845  20.011  0.00  0.00    +0.000 OA
ATOM     31  C   UNL     1      -4.475  12.329  19.468  0.00  0.00    +0.000 C 
ENDBRANCH   4  30
BRANCH   6  32
ATOM     32  O   UNL     1       1.482  11.829  20.572  0.00  0.00    +0.000 OA
ATOM     33  H   UNL     1       2.041  11.042  20.563  0.00  0.00    +0.000 HD
ENDBRANCH   6  32
TORSDOF 9
ENDMDL
MODEL 6
REMARK VINA RESULT:      -7.0      4.123      9.836
REMARK  Name = 
REMARK  14 active torsions:
REMARK  status: ('A' for Active; 'I' for Inactive)
REMARK    1  A    between atoms: C_1  and  O_2
REMARK    2  A    between atoms: O_2  and  C_3
REMARK    3  A    between atoms: C_6  and  C_7
REMARK    4  A    between atoms: C_8  and  C_9
REMARK    5  A    between atoms: C_9  and  C_11
REMARK    6  A    between atoms: C_12  and  O_13
REMARK    7  A    between atoms: O_13  and  C_14
REMARK    8  A    between atoms: C_16  and  O_17
REMARK    9  A    between atoms: O_17  and  C_18
REMARK   10  A    between atoms: C_19  and  C_20
REMARK   11  A    between atoms: N_23  and  C_24
REMARK   12  A    between atoms: C_27  and  O_28
REMARK   13  A    between atoms: C_29  and  O_30
REMARK   14  A    between atoms: O_30  and  C_31
REMARK                            x       y       z     vdW  Elec       q    Type
REMARK                         _______ _______ _______ _____ _____    ______ ____
ROOT
ATOM      1  C   UNL     1      -0.025  10.097  21.259  0.00  0.00    +0.000 A 
ATOM      2  C   UNL     1      -0.369  10.313  19.923  0.00  0.00    +0.000 A 
ATOM      3  C   UNL     1      -1.311  11.319  19.623  0.00  0.00    +0.000 A 
ATOM      4  C   UNL     1      -1.931  12.106  20.608  0.00  0.00    +0.000 A 
ATOM      5  C   UNL     1      -1.596  11.922  21.961  0.00  0.00    +0.000 A 
ATOM      6  C   UNL     1      -0.643  10.909  22.251  0.00  0.00    +0.000 A 
ENDROOT
BRANCH   5   7
ATOM      7  C   UNL     1      -2.156  12.808  23.063  0.00  0.00    +0.000 C 
ATOM      8  C   UNL     1      -3.690  12.939  23.070  0.00  0.00    +0.000 C 
ATOM      9  C   UNL     1      -4.147  13.881  24.179  0.00  0.00    +0.000 C 
ATOM     10  N   UNL     1      -3.482  15.189  24.064  0.00  0.00    +0.000 NA
ATOM     11  C   UNL     1      -4.003  16.096  25.088  0.00  0.00    +0.000 C 
ATOM     12  C   UNL     1      -2.026  15.063  24.203  0.00  0.00    +0.000 C 
ATOM     13  C   UNL     1      -1.446  14.173  23.108  0.00  0.00    +0.000 C 
ENDBRANCH   5   7
BRANCH   1  14
ATOM     14  C   UNL     1       1.076   9.172  21.700  0.00  0.00    +0.000 C 
ATOM     15  O   UNL     1       1.949   9.542  22.476  0.00  0.00    +0.000 OA
BRANCH  14  17
ATOM     16  C   UNL     1       1.916   7.377  20.246  0.00  0.00    +0.000 C 
ATOM     17  C   UNL     1       1.040   7.764  21.189  0.00  0.00    +0.000 C 
BRANCH  16  21
ATOM     18  C   UNL     1       2.579   3.217  19.424  0.00  0.00    +0.000 A 
ATOM     19  C   UNL     1       1.593   3.623  20.324  0.00  0.00    +0.000 A 
ATOM     20  C   UNL     1       1.379   4.979  20.589  0.00  0.00    +0.000 A 
ATOM     21  C   UNL     1       2.152   5.954  19.950  0.00  0.00    +0.000 A 
ATOM     22  C   UNL     1       3.152   5.550  19.034  0.00  0.00    +0.000 A 
ATOM     23  C   UNL     1       3.359   4.182  18.786  0.00  0.00    +0.000 A 
BRANCH  18  25
ATOM     24  C   UNL     1       3.596   1.404  18.262  0.00  0.00    +0.000 C 
ATOM     25  O   UNL     1       2.688   1.862  19.257  0.00  0.00    +0.000 OA
ENDBRANCH  18  25
BRANCH  22  26
ATOM     26  O   UNL     1       3.885   6.549  18.441  0.00  0.00    +0.000 OA
ATOM     27  C   UNL     1       4.463   6.277  17.169  0.00  0.00    +0.000 C 
ENDBRANCH  22  26
ENDBRANCH  16  21
ENDBRANCH  14  17
ENDBRANCH   1  14
BRANCH   2  28
ATOM     28  O   UNL     1       0.138   9.735  18.794  0.00  0.00    +0.000 OA
ATOM     29  C   UNL     1      -0.633   9.793  17.601  0.00  0.00    +0.000 C 
ENDBRANCH   2  28
BRANCH   4  30
ATOM     30  O   UNL     1      -2.683  13.127  20.081  0.00  0.00    +0.000 OA
ATOM     31  C   UNL     1      -3.967  12.827  19.546  0.00  0.00    +0.000 C 
ENDBRANCH   4  30
BRANCH   6  32
ATOM     32  O   UNL     1      -0.196  10.732  23.539  0.00  0.00    +0.000 OA
ATOM     33  H   UNL     1      -0.078  11.566  24.012  0.00  0.00    +0.000 HD
ENDBRANCH   6  32
TORSDOF 9
ENDMDL
MODEL 7
REMARK VINA RESULT:      -7.0      3.940      9.651
REMARK  Name = 
REMARK  14 active torsions:
REMARK  status: ('A' for Active; 'I' for Inactive)
REMARK    1  A    between atoms: C_1  and  O_2
REMARK    2  A    between atoms: O_2  and  C_3
REMARK    3  A    between atoms: C_6  and  C_7
REMARK    4  A    between atoms: C_8  and  C_9
REMARK    5  A    between atoms: C_9  and  C_11
REMARK    6  A    between atoms: C_12  and  O_13
REMARK    7  A    between atoms: O_13  and  C_14
REMARK    8  A    between atoms: C_16  and  O_17
REMARK    9  A    between atoms: O_17  and  C_18
REMARK   10  A    between atoms: C_19  and  C_20
REMARK   11  A    between atoms: N_23  and  C_24
REMARK   12  A    between atoms: C_27  and  O_28
REMARK   13  A    between atoms: C_29  and  O_30
REMARK   14  A    between atoms: O_30  and  C_31
REMARK                            x       y       z     vdW  Elec       q    Type
REMARK                         _______ _______ _______ _____ _____    ______ ____
ROOT
ATOM      1  C   UNL     1       0.277  10.573  21.081  0.00  0.00    +0.000 A 
ATOM      2  C   UNL     1       0.769  11.314  20.004  0.00  0.00    +0.000 A 
ATOM      3  C   UNL     1       0.094  12.494  19.632  0.00  0.00    +0.000 A 
ATOM      4  C   UNL     1      -1.061  12.956  20.287  0.00  0.00    +0.000 A 
ATOM      5  C   UNL     1      -1.573  12.240  21.384  0.00  0.00    +0.000 A 
ATOM      6  C   UNL     1      -0.882  11.054  21.752  0.00  0.00    +0.000 A 
ENDROOT
BRANCH   5   7
ATOM      7  C   UNL     1      -2.758  12.740  22.196  0.00  0.00    +0.000 C 
ATOM      8  C   UNL     1      -2.901  12.102  23.590  0.00  0.00    +0.000 C 
ATOM      9  C   UNL     1      -4.141  12.634  24.302  0.00  0.00    +0.000 C 
ATOM     10  N   UNL     1      -5.344  12.437  23.479  0.00  0.00    +0.000 NA
ATOM     11  C   UNL     1      -6.526  12.878  24.223  0.00  0.00    +0.000 C 
ATOM     12  C   UNL     1      -5.252  13.171  22.211  0.00  0.00    +0.000 C 
ATOM     13  C   UNL     1      -4.065  12.686  21.383  0.00  0.00    +0.000 C 
ENDBRANCH   5   7
BRANCH   1  14
ATOM     14  C   UNL     1       0.988   9.390  21.677  0.00  0.00    +0.000 C 
ATOM     15  O   UNL     1       1.566   9.468  22.755  0.00  0.00    +0.000 OA
BRANCH  14  17
ATOM     16  C   UNL     1       2.053   7.570  20.413  0.00  0.00    +0.000 C 
ATOM     17  C   UNL     1       0.926   8.097  20.923  0.00  0.00    +0.000 C 
BRANCH  16  21
ATOM     18  C   UNL     1       2.225   3.471  19.155  0.00  0.00    +0.000 A 
ATOM     19  C   UNL     1       1.635   3.825  20.368  0.00  0.00    +0.000 A 
ATOM     20  C   UNL     1       1.580   5.161  20.775  0.00  0.00    +0.000 A 
ATOM     21  C   UNL     1       2.116   6.168  19.965  0.00  0.00    +0.000 A 
ATOM     22  C   UNL     1       2.714   5.817  18.732  0.00  0.00    +0.000 A 
ATOM     23  C   UNL     1       2.767   4.467  18.343  0.00  0.00    +0.000 A 
BRANCH  18  25
ATOM     24  C   UNL     1       3.426   1.562  18.387  0.00  0.00    +0.000 C 
ATOM     25  O   UNL     1       2.217   2.129  18.876  0.00  0.00    +0.000 OA
ENDBRANCH  18  25
BRANCH  22  26
ATOM     26  O   UNL     1       3.229   6.845  17.981  0.00  0.00    +0.000 OA
ATOM     27  C   UNL     1       4.399   6.581  17.215  0.00  0.00    +0.000 C 
ENDBRANCH  22  26
ENDBRANCH  16  21
ENDBRANCH  14  17
ENDBRANCH   1  14
BRANCH   2  28
ATOM     28  O   UNL     1       1.897  11.115  19.260  0.00  0.00    +0.000 OA
ATOM     29  C   UNL     1       1.798  10.334  18.077  0.00  0.00    +0.000 C 
ENDBRANCH   2  28
BRANCH   4  30
ATOM     30  O   UNL     1      -1.450  14.203  19.867  0.00  0.00    +0.000 OA
ATOM     31  C   UNL     1      -0.703  15.335  20.297  0.00  0.00    +0.000 C 
ENDBRANCH   4  30
BRANCH   6  32
ATOM     32  O   UNL     1      -1.267  10.351  22.869  0.00  0.00    +0.000 OA
ATOM     33  H   UNL     1      -1.653   9.491  22.656  0.00  0.00    +0.000 HD
ENDBRANCH   6  32
TORSDOF 9
ENDMDL
MODEL 8
REMARK VINA RESULT:      -7.0      3.947      9.106
REMARK  Name = 
REMARK  14 active torsions:
REMARK  status: ('A' for Active; 'I' for Inactive)
REMARK    1  A    between atoms: C_1  and  O_2
REMARK    2  A    between atoms: O_2  and  C_3
REMARK    3  A    between atoms: C_6  and  C_7
REMARK    4  A    between atoms: C_8  and  C_9
REMARK    5  A    between atoms: C_9  and  C_11
REMARK    6  A    between atoms: C_12  and  O_13
REMARK    7  A    between atoms: O_13  and  C_14
REMARK    8  A    between atoms: C_16  and  O_17
REMARK    9  A    between atoms: O_17  and  C_18
REMARK   10  A    between atoms: C_19  and  C_20
REMARK   11  A    between atoms: N_23  and  C_24
REMARK   12  A    between atoms: C_27  and  O_28
REMARK   13  A    between atoms: C_29  and  O_30
REMARK   14  A    between atoms: O_30  and  C_31
REMARK                            x       y       z     vdW  Elec       q    Type
REMARK                         _______ _______ _______ _____ _____    ______ ____
ROOT
ATOM      1  C   UNL     1       0.522  10.938  19.502  0.00  0.00    +0.000 A 
ATOM      2  C   UNL     1       0.246  10.567  20.821  0.00  0.00    +0.000 A 
ATOM      3  C   UNL     1       0.153  11.578  21.800  0.00  0.00    +0.000 A 
ATOM      4  C   UNL     1       0.336  12.942  21.514  0.00  0.00    +0.000 A 
ATOM      5  C   UNL     1       0.601  13.347  20.194  0.00  0.00    +0.000 A 
ATOM      6  C   UNL     1       0.690  12.321  19.215  0.00  0.00    +0.000 A 
ENDROOT
BRANCH   5   7
ATOM      7  C   UNL     1       0.710  14.814  19.803  0.00  0.00    +0.000 C 
ATOM      8  C   UNL     1      -0.524  15.383  19.080  0.00  0.00    +0.000 C 
ATOM      9  C   UNL     1      -0.297  16.841  18.692  0.00  0.00    +0.000 C 
ATOM     10  N   UNL     1       0.928  16.985  17.889  0.00  0.00    +0.000 NA
ATOM     11  C   UNL     1       1.072  18.378  17.460  0.00  0.00    +0.000 C 
ATOM     12  C   UNL     1       2.115  16.572  18.646  0.00  0.00    +0.000 C 
ATOM     13  C   UNL     1       2.022  15.103  19.051  0.00  0.00    +0.000 C 
ENDBRANCH   5   7
BRANCH   1  14
ATOM     14  C   UNL     1       0.491   9.982  18.342  0.00  0.00    +0.000 C 
ATOM     15  O   UNL     1      -0.503   9.870  17.633  0.00  0.00    +0.000 OA
BRANCH  14  17
ATOM     16  C   UNL     1       2.000   8.087  18.757  0.00  0.00    +0.000 C 
ATOM     17  C   UNL     1       1.738   9.204  18.056  0.00  0.00    +0.000 C 
BRANCH  16  21
ATOM     18  C   UNL     1       4.951   5.277  17.408  0.00  0.00    +0.000 A 
ATOM     19  C   UNL     1       4.842   6.539  16.824  0.00  0.00    +0.000 A 
ATOM     20  C   UNL     1       3.880   7.453  17.266  0.00  0.00    +0.000 A 
ATOM     21  C   UNL     1       3.010   7.114  18.308  0.00  0.00    +0.000 A 
ATOM     22  C   UNL     1       3.116   5.837  18.907  0.00  0.00    +0.000 A 
ATOM     23  C   UNL     1       4.085   4.928  18.445  0.00  0.00    +0.000 A 
BRANCH  18  25
ATOM     24  C   UNL     1       7.252   4.663  17.375  0.00  0.00    +0.000 C 
ATOM     25  O   UNL     1       5.930   4.478  16.882  0.00  0.00    +0.000 OA
ENDBRANCH  18  25
BRANCH  22  26
ATOM     26  O   UNL     1       2.234   5.555  19.921  0.00  0.00    +0.000 OA
ATOM     27  C   UNL     1       2.050   4.189  20.276  0.00  0.00    +0.000 C 
ENDBRANCH  22  26
ENDBRANCH  16  21
ENDBRANCH  14  17
ENDBRANCH   1  14
BRANCH   2  28
ATOM     28  O   UNL     1      -0.036   9.334  21.332  0.00  0.00    +0.000 OA
ATOM     29  C   UNL     1      -0.342   9.229  22.716  0.00  0.00    +0.000 C 
ENDBRANCH   2  28
BRANCH   4  30
ATOM     30  O   UNL     1       0.037  13.756  22.578  0.00  0.00    +0.000 OA
ATOM     31  C   UNL     1      -1.246  13.648  23.184  0.00  0.00    +0.000 C 
ENDBRANCH   4  30
BRANCH   6  32
ATOM     32  O   UNL     1       0.854  12.646  17.889  0.00  0.00    +0.000 OA
ATOM     33  H   UNL     1       1.619  12.212  17.489  0.00  0.00    +0.000 HD
ENDBRANCH   6  32
TORSDOF 9
ENDMDL
MODEL 9
REMARK VINA RESULT:      -7.0      4.123      9.172
REMARK  Name = 
REMARK  14 active torsions:
REMARK  status: ('A' for Active; 'I' for Inactive)
REMARK    1  A    between atoms: C_1  and  O_2
REMARK    2  A    between atoms: O_2  and  C_3
REMARK    3  A    between atoms: C_6  and  C_7
REMARK    4  A    between atoms: C_8  and  C_9
REMARK    5  A    between atoms: C_9  and  C_11
REMARK    6  A    between atoms: C_12  and  O_13
REMARK    7  A    between atoms: O_13  and  C_14
REMARK    8  A    between atoms: C_16  and  O_17
REMARK    9  A    between atoms: O_17  and  C_18
REMARK   10  A    between atoms: C_19  and  C_20
REMARK   11  A    between atoms: N_23  and  C_24
REMARK   12  A    between atoms: C_27  and  O_28
REMARK   13  A    between atoms: C_29  and  O_30
REMARK   14  A    between atoms: O_30  and  C_31
REMARK                            x       y       z     vdW  Elec       q    Type
REMARK                         _______ _______ _______ _____ _____    ______ ____
ROOT
ATOM      1  C   UNL     1       0.873  10.515  19.313  0.00  0.00    +0.000 A 
ATOM      2  C   UNL     1       0.454  10.152  20.595  0.00  0.00    +0.000 A 
ATOM      3  C   UNL     1       0.379  11.150  21.589  0.00  0.00    +0.000 A 
ATOM      4  C   UNL     1       0.718  12.493  21.353  0.00  0.00    +0.000 A 
ATOM      5  C   UNL     1       1.131  12.893  20.070  0.00  0.00    +0.000 A 
ATOM      6  C   UNL     1       1.199  11.880  19.076  0.00  0.00    +0.000 A 
ENDROOT
BRANCH   5   7
ATOM      7  C   UNL     1       1.415  14.347  19.726  0.00  0.00    +0.000 C 
ATOM      8  C   UNL     1       2.377  15.063  20.692  0.00  0.00    +0.000 C 
ATOM      9  C   UNL     1       2.559  16.523  20.289  0.00  0.00    +0.000 C 
ATOM     10  N   UNL     1       1.260  17.208  20.194  0.00  0.00    +0.000 NA
ATOM     11  C   UNL     1       1.474  18.624  19.889  0.00  0.00    +0.000 C 
ATOM     12  C   UNL     1       0.409  16.600  19.164  0.00  0.00    +0.000 C 
ATOM     13  C   UNL     1       0.116  15.138  19.490  0.00  0.00    +0.000 C 
ENDBRANCH   5   7
BRANCH   1  14
ATOM     14  C   UNL     1       0.845   9.587  18.130  0.00  0.00    +0.000 C 
ATOM     15  O   UNL     1      -0.137   9.512  17.400  0.00  0.00    +0.000 OA
BRANCH  14  17
ATOM     16  C   UNL     1       2.201   7.550  18.355  0.00  0.00    +0.000 C 
ATOM     17  C   UNL     1       2.082   8.790  17.850  0.00  0.00    +0.000 C 
BRANCH  16  21
ATOM     18  C   UNL     1       5.174   4.837  16.865  0.00  0.00    +0.000 A 
ATOM     19  C   UNL     1       5.356   6.217  16.782  0.00  0.00    +0.000 A 
ATOM     20  C   UNL     1       4.386   7.099  17.269  0.00  0.00    +0.000 A 
ATOM     21  C   UNL     1       3.214   6.606  17.853  0.00  0.00    +0.000 A 
ATOM     22  C   UNL     1       3.023   5.207  17.943  0.00  0.00    +0.000 A 
ATOM     23  C   UNL     1       4.006   4.336  17.441  0.00  0.00    +0.000 A 
BRANCH  18  25
ATOM     24  C   UNL     1       6.964   4.668  15.303  0.00  0.00    +0.000 C 
ATOM     25  O   UNL     1       6.196   4.085  16.349  0.00  0.00    +0.000 OA
ENDBRANCH  18  25
BRANCH  22  26
ATOM     26  O   UNL     1       1.852   4.779  18.519  0.00  0.00    +0.000 OA
ATOM     27  C   UNL     1       1.940   4.094  19.763  0.00  0.00    +0.000 C 
ENDBRANCH  22  26
ENDBRANCH  16  21
ENDBRANCH  14  17
ENDBRANCH   1  14
BRANCH   2  28
ATOM     28  O   UNL     1       0.009   8.944  21.050  0.00  0.00    +0.000 OA
ATOM     29  C   UNL     1      -0.500   8.866  22.375  0.00  0.00    +0.000 C 
ENDBRANCH   2  28
BRANCH   4  30
ATOM     30  O   UNL     1       0.413  13.314  22.410  0.00  0.00    +0.000 OA
ATOM     31  C   UNL     1      -0.953  13.485  22.773  0.00  0.00    +0.000 C 
ENDBRANCH   4  30
BRANCH   6  32
ATOM     32  O   UNL     1       1.504  12.209  17.776  0.00  0.00    +0.000 OA
ATOM     33  H   UNL     1       0.969  12.940  17.440  0.00  0.00    +0.000 HD
ENDBRANCH   6  32
TORSDOF 9
ENDMDL
