MODEL 1
REMARK VINA RESULT:      -8.6      0.000      0.000
REMARK  Name = 
REMARK  12 active torsions:
REMARK  status: ('A' for Active; 'I' for Inactive)
REMARK    1  A    between atoms: C_1  and  C_2
REMARK    2  A    between atoms: C_6  and  C_7
REMARK    3  A    between atoms: C_10  and  O_11
REMARK    4  A    between atoms: O_11  and  C_12
REMARK    5  A    between atoms: C_12  and  C_13
REMARK    6  A    between atoms: C_14  and  C_15
REMARK    7  A    between atoms: C_14  and  C_16
REMARK    8  A    between atoms: C_18  and  O_19
REMARK    9  A    between atoms: C_21  and  C_22
REMARK   10  A    between atoms: C_25  and  O_26
REMARK   11  A    between atoms: O_26  and  C_27
REMARK   12  A    between atoms: C_27  and  C_28
REMARK                            x       y       z     vdW  Elec       q    Type
REMARK                         _______ _______ _______ _____ _____    ______ ____
ROOT
ATOM      1  C   UNL     1       1.353   2.935  18.560  0.00  0.00    +0.000 C 
ATOM      2  C   UNL     1       2.802   3.263  18.826  0.00  0.00    +0.000 C 
ATOM      3  O   UNL     1       3.671   2.394  18.805  0.00  0.00    +0.000 OA
ATOM      4  N   UNL     1       3.062   4.606  19.025  0.00  0.00    +0.000 N 
ATOM      5  N   UNL     1       2.051   5.522  19.153  0.00  0.00    +0.000 NA
ATOM      6  C   UNL     1       2.612   6.674  19.360  0.00  0.00    +0.000 C 
ATOM      7  C   UNL     1       4.117   6.663  19.360  0.00  0.00    +0.000 C 
ATOM      8  C   UNL     1       4.400   5.186  19.143  0.00  0.00    +0.000 C 
ENDROOT
BRANCH   6   9
ATOM      9  C   UNL     1       1.829   7.909  19.578  0.00  0.00    +0.000 A 
ATOM     10  C   UNL     1       1.240   8.125  20.835  0.00  0.00    +0.000 A 
ATOM     11  C   UNL     1       0.543   9.311  21.101  0.00  0.00    +0.000 A 
ATOM     12  C   UNL     1       0.442  10.290  20.109  0.00  0.00    +0.000 A 
ATOM     13  C   UNL     1       0.975  10.040  18.842  0.00  0.00    +0.000 A 
ATOM     14  C   UNL     1       1.683   8.876  18.584  0.00  0.00    +0.000 A 
BRANCH  14  15
ATOM     15  O   UNL     1       2.245   8.735  17.347  0.00  0.00    +0.000 OA
ATOM     16  H   UNL     1       1.686   9.164  16.678  0.00  0.00    +0.000 HD
ENDBRANCH  14  15
BRANCH  12  17
ATOM     17  O   UNL     1      -0.156  11.474  20.460  0.00  0.00    +0.000 OA
BRANCH  17  18
ATOM     18  C   UNL     1      -0.655  12.188  19.322  0.00  0.00    +0.000 C 
BRANCH  18  19
ATOM     19  C   UNL     1      -2.145  12.168  19.279  0.00  0.00    +0.000 C 
ATOM     20  C   UNL     1      -2.853  11.555  18.310  0.00  0.00    +0.000 C 
ATOM     21  C   UNL     1      -2.239  10.784  17.168  0.00  0.00    +0.000 C 
ATOM     22  C   UNL     1      -4.353  11.601  18.297  0.00  0.00    +0.000 C 
ENDBRANCH  18  19
ENDBRANCH  17  18
ENDBRANCH  12  17
ENDBRANCH   6   9
BRANCH   8  23
ATOM     23  C   UNL     1       5.259   5.026  17.907  0.00  0.00    +0.000 A 
ATOM     24  C   UNL     1       4.695   5.057  16.621  0.00  0.00    +0.000 A 
ATOM     25  C   UNL     1       5.500   4.856  15.497  0.00  0.00    +0.000 A 
ATOM     26  C   UNL     1       6.871   4.626  15.650  0.00  0.00    +0.000 A 
ATOM     27  C   UNL     1       7.423   4.549  16.925  0.00  0.00    +0.000 A 
ATOM     28  C   UNL     1       6.628   4.757  18.040  0.00  0.00    +0.000 A 
BRANCH  26  29
ATOM     29  O   UNL     1       7.608   4.497  14.502  0.00  0.00    +0.000 OA
BRANCH  29  30
ATOM     30  C   UNL     1       6.899   4.913  13.331  0.00  0.00    +0.000 C 
BRANCH  30  31
ATOM     31  C   UNL     1       6.561   3.717  12.492  0.00  0.00    +0.000 A 
ATOM     32  C   UNL     1       5.219   3.373  12.281  0.00  0.00    +0.000 A 
ATOM     33  C   UNL     1       4.886   2.279  11.487  0.00  0.00    +0.000 A 
ATOM     34  C   UNL     1       5.897   1.524  10.897  0.00  0.00    +0.000 A 
ATOM     35  C   UNL     1       7.235   1.862  11.102  0.00  0.00    +0.000 A 
ATOM     36  C   UNL     1       7.571   2.955  11.895  0.00  0.00    +0.000 A 
ENDBRANCH  30  31
ENDBRANCH  29  30
ENDBRANCH  26  29
ENDBRANCH   8  23
TORSDOF 9
ENDMDL
MODEL 2
REMARK VINA RESULT:      -8.2      0.972      1.679
REMARK  Name = 
REMARK  12 active torsions:
REMARK  status: ('A' for Active; 'I' for Inactive)
REMARK    1  A    between atoms: C_1  and  C_2
REMARK    2  A    between atoms: C_6  and  C_7
REMARK    3  A    between atoms: C_10  and  O_11
REMARK    4  A    between atoms: O_11  and  C_12
REMARK    5  A    between atoms: C_12  and  C_13
REMARK    6  A    between atoms: C_14  and  C_15
REMARK    7  A    between atoms: C_14  and  C_16
REMARK    8  A    between atoms: C_18  and  O_19
REMARK    9  A    between atoms: C_21  and  C_22
REMARK   10  A    between atoms: C_25  and  O_26
REMARK   11  A    between atoms: O_26  and  C_27
REMARK   12  A    between atoms: C_27  and  C_28
REMARK                            x       y       z     vdW  Elec       q    Type
REMARK                         _______ _______ _______ _____ _____    ______ ____
ROOT
ATOM      1  C   UNL     1       1.238   3.057  18.961  0.00  0.00    +0.000 C 
ATOM      2  C   UNL     1       2.707   3.358  19.126  0.00  0.00    +0.000 C 
ATOM      3  O   UNL     1       3.545   2.460  19.171  0.00  0.00    +0.000 OA
ATOM      4  N   UNL     1       3.021   4.704  19.155  0.00  0.00    +0.000 N 
ATOM      5  N   UNL     1       2.047   5.666  19.217  0.00  0.00    +0.000 NA
ATOM      6  C   UNL     1       2.655   6.812  19.264  0.00  0.00    +0.000 C 
ATOM      7  C   UNL     1       4.158   6.744  19.203  0.00  0.00    +0.000 C 
ATOM      8  C   UNL     1       4.381   5.242  19.149  0.00  0.00    +0.000 C 
ENDROOT
BRANCH   6   9
ATOM      9  C   UNL     1       1.925   8.094  19.368  0.00  0.00    +0.000 A 
ATOM     10  C   UNL     1       1.837   8.917  18.232  0.00  0.00    +0.000 A 
ATOM     11  C   UNL     1       1.102  10.109  18.272  0.00  0.00    +0.000 A 
ATOM     12  C   UNL     1       0.444  10.476  19.449  0.00  0.00    +0.000 A 
ATOM     13  C   UNL     1       0.590   9.685  20.591  0.00  0.00    +0.000 A 
ATOM     14  C   UNL     1       1.299   8.494  20.547  0.00  0.00    +0.000 A 
BRANCH  14  15
ATOM     15  O   UNL     1       1.333   7.733  21.680  0.00  0.00    +0.000 OA
ATOM     16  H   UNL     1       1.860   6.931  21.527  0.00  0.00    +0.000 HD
ENDBRANCH  14  15
BRANCH  12  17
ATOM     17  O   UNL     1      -0.349  11.595  19.398  0.00  0.00    +0.000 OA
BRANCH  17  18
ATOM     18  C   UNL     1      -1.699  11.286  19.029  0.00  0.00    +0.000 C 
BRANCH  18  19
ATOM     19  C   UNL     1      -1.815  11.025  17.565  0.00  0.00    +0.000 C 
ATOM     20  C   UNL     1      -2.934  10.555  16.980  0.00  0.00    +0.000 C 
ATOM     21  C   UNL     1      -4.219  10.266  17.715  0.00  0.00    +0.000 C 
ATOM     22  C   UNL     1      -2.981  10.273  15.507  0.00  0.00    +0.000 C 
ENDBRANCH  18  19
ENDBRANCH  17  18
ENDBRANCH  12  17
ENDBRANCH   6   9
BRANCH   8  23
ATOM     23  C   UNL     1       5.178   4.907  17.906  0.00  0.00    +0.000 A 
ATOM     24  C   UNL     1       6.576   4.784  17.951  0.00  0.00    +0.000 A 
ATOM     25  C   UNL     1       7.295   4.525  16.781  0.00  0.00    +0.000 A 
ATOM     26  C   UNL     1       6.623   4.386  15.563  0.00  0.00    +0.000 A 
ATOM     27  C   UNL     1       5.243   4.555  15.509  0.00  0.00    +0.000 A 
ATOM     28  C   UNL     1       4.527   4.803  16.669  0.00  0.00    +0.000 A 
BRANCH  26  29
ATOM     29  O   UNL     1       7.386   4.075  14.469  0.00  0.00    +0.000 OA
BRANCH  29  30
ATOM     30  C   UNL     1       6.892   4.654  13.258  0.00  0.00    +0.000 C 
BRANCH  30  31
ATOM     31  C   UNL     1       6.275   3.590  12.401  0.00  0.00    +0.000 A 
ATOM     32  C   UNL     1       4.911   3.654  12.086  0.00  0.00    +0.000 A 
ATOM     33  C   UNL     1       4.327   2.686  11.274  0.00  0.00    +0.000 A 
ATOM     34  C   UNL     1       5.107   1.648  10.770  0.00  0.00    +0.000 A 
ATOM     35  C   UNL     1       6.465   1.579  11.078  0.00  0.00    +0.000 A 
ATOM     36  C   UNL     1       7.052   2.545  11.890  0.00  0.00    +0.000 A 
ENDBRANCH  30  31
ENDBRANCH  29  30
ENDBRANCH  26  29
ENDBRANCH   8  23
TORSDOF 9
ENDMDL
MODEL 3
REMARK VINA RESULT:      -8.2      1.538      2.090
REMARK  Name = 
REMARK  12 active torsions:
REMARK  status: ('A' for Active; 'I' for Inactive)
REMARK    1  A    between atoms: C_1  and  C_2
REMARK    2  A    between atoms: C_6  and  C_7
REMARK    3  A    between atoms: C_10  and  O_11
REMARK    4  A    between atoms: O_11  and  C_12
REMARK    5  A    between atoms: C_12  and  C_13
REMARK    6  A    between atoms: C_14  and  C_15
REMARK    7  A    between atoms: C_14  and  C_16
REMARK    8  A    between atoms: C_18  and  O_19
REMARK    9  A    between atoms: C_21  and  C_22
REMARK   10  A    between atoms: C_25  and  O_26
REMARK   11  A    between atoms: O_26  and  C_27
REMARK   12  A    between atoms: C_27  and  C_28
REMARK                            x       y       z     vdW  Elec       q    Type
REMARK                         _______ _______ _______ _____ _____    ______ ____
ROOT
ATOM      1  C   UNL     1       1.252   2.892  18.206  0.00  0.00    +0.000 C 
ATOM      2  C   UNL     1       2.708   3.149  18.503  0.00  0.00    +0.000 C 
ATOM      3  O   UNL     1       3.547   2.254  18.423  0.00  0.00    +0.000 OA
ATOM      4  N   UNL     1       3.014   4.464  18.800  0.00  0.00    +0.000 N 
ATOM      5  N   UNL     1       2.033   5.402  18.989  0.00  0.00    +0.000 NA
ATOM      6  C   UNL     1       2.632   6.516  19.282  0.00  0.00    +0.000 C 
ATOM      7  C   UNL     1       4.136   6.453  19.289  0.00  0.00    +0.000 C 
ATOM      8  C   UNL     1       4.369   4.987  18.967  0.00  0.00    +0.000 C 
ENDROOT
BRANCH   6   9
ATOM      9  C   UNL     1       1.891   7.759  19.585  0.00  0.00    +0.000 A 
ATOM     10  C   UNL     1       1.403   7.957  20.888  0.00  0.00    +0.000 A 
ATOM     11  C   UNL     1       0.750   9.148  21.231  0.00  0.00    +0.000 A 
ATOM     12  C   UNL     1       0.591  10.150  20.270  0.00  0.00    +0.000 A 
ATOM     13  C   UNL     1       1.021   9.919  18.962  0.00  0.00    +0.000 A 
ATOM     14  C   UNL     1       1.687   8.750  18.625  0.00  0.00    +0.000 A 
BRANCH  14  15
ATOM     15  O   UNL     1       2.149   8.628  17.347  0.00  0.00    +0.000 OA
ATOM     16  H   UNL     1       1.451   8.268  16.774  0.00  0.00    +0.000 HD
ENDBRANCH  14  15
BRANCH  12  17
ATOM     17  O   UNL     1       0.043  11.336  20.690  0.00  0.00    +0.000 OA
BRANCH  17  18
ATOM     18  C   UNL     1       1.042  12.313  21.005  0.00  0.00    +0.000 C 
BRANCH  18  19
ATOM     19  C   UNL     1       0.470  13.690  21.014  0.00  0.00    +0.000 C 
ATOM     20  C   UNL     1       0.503  14.515  19.949  0.00  0.00    +0.000 C 
ATOM     21  C   UNL     1       1.085  14.148  18.606  0.00  0.00    +0.000 C 
ATOM     22  C   UNL     1      -0.055  15.907  20.027  0.00  0.00    +0.000 C 
ENDBRANCH  18  19
ENDBRANCH  17  18
ENDBRANCH  12  17
ENDBRANCH   6   9
BRANCH   8  23
ATOM     23  C   UNL     1       5.232   4.887  17.727  0.00  0.00    +0.000 A 
ATOM     24  C   UNL     1       6.543   4.386  17.793  0.00  0.00    +0.000 A 
ATOM     25  C   UNL     1       7.339   4.351  16.645  0.00  0.00    +0.000 A 
ATOM     26  C   UNL     1       6.831   4.813  15.427  0.00  0.00    +0.000 A 
ATOM     27  C   UNL     1       5.550   5.353  15.370  0.00  0.00    +0.000 A 
ATOM     28  C   UNL     1       4.756   5.381  16.505  0.00  0.00    +0.000 A 
BRANCH  26  29
ATOM     29  O   UNL     1       7.646   4.693  14.332  0.00  0.00    +0.000 OA
BRANCH  29  30
ATOM     30  C   UNL     1       6.997   5.049  13.108  0.00  0.00    +0.000 C 
BRANCH  30  31
ATOM     31  C   UNL     1       6.620   3.809  12.355  0.00  0.00    +0.000 A 
ATOM     32  C   UNL     1       7.621   3.004  11.794  0.00  0.00    +0.000 A 
ATOM     33  C   UNL     1       7.290   1.838  11.110  0.00  0.00    +0.000 A 
ATOM     34  C   UNL     1       5.952   1.468  10.986  0.00  0.00    +0.000 A 
ATOM     35  C   UNL     1       4.951   2.263  11.543  0.00  0.00    +0.000 A 
ATOM     36  C   UNL     1       5.279   3.430  12.228  0.00  0.00    +0.000 A 
ENDBRANCH  30  31
ENDBRANCH  29  30
ENDBRANCH  26  29
ENDBRANCH   8  23
TORSDOF 9
ENDMDL
MODEL 4
REMARK VINA RESULT:      -8.1      0.635      1.144
REMARK  Name = 
REMARK  12 active torsions:
REMARK  status: ('A' for Active; 'I' for Inactive)
REMARK    1  A    between atoms: C_1  and  C_2
REMARK    2  A    between atoms: C_6  and  C_7
REMARK    3  A    between atoms: C_10  and  O_11
REMARK    4  A    between atoms: O_11  and  C_12
REMARK    5  A    between atoms: C_12  and  C_13
REMARK    6  A    between atoms: C_14  and  C_15
REMARK    7  A    between atoms: C_14  and  C_16
REMARK    8  A    between atoms: C_18  and  O_19
REMARK    9  A    between atoms: C_21  and  C_22
REMARK   10  A    between atoms: C_25  and  O_26
REMARK   11  A    between atoms: O_26  and  C_27
REMARK   12  A    between atoms: C_27  and  C_28
REMARK                            x       y       z     vdW  Elec       q    Type
REMARK                         _______ _______ _______ _____ _____    ______ ____
ROOT
ATOM      1  C   UNL     1       1.589   2.887  19.438  0.00  0.00    +0.000 C 
ATOM      2  C   UNL     1       3.026   3.342  19.497  0.00  0.00    +0.000 C 
ATOM      3  O   UNL     1       3.954   2.536  19.543  0.00  0.00    +0.000 OA
ATOM      4  N   UNL     1       3.201   4.711  19.430  0.00  0.00    +0.000 N 
ATOM      5  N   UNL     1       2.138   5.574  19.495  0.00  0.00    +0.000 NA
ATOM      6  C   UNL     1       2.627   6.775  19.439  0.00  0.00    +0.000 C 
ATOM      7  C   UNL     1       4.123   6.853  19.292  0.00  0.00    +0.000 C 
ATOM      8  C   UNL     1       4.496   5.381  19.312  0.00  0.00    +0.000 C 
ENDROOT
BRANCH   6   9
ATOM      9  C   UNL     1       1.775   7.982  19.513  0.00  0.00    +0.000 A 
ATOM     10  C   UNL     1       1.101   8.263  20.713  0.00  0.00    +0.000 A 
ATOM     11  C   UNL     1       0.333   9.428  20.843  0.00  0.00    +0.000 A 
ATOM     12  C   UNL     1       0.248  10.322  19.772  0.00  0.00    +0.000 A 
ATOM     13  C   UNL     1       0.868  10.003  18.562  0.00  0.00    +0.000 A 
ATOM     14  C   UNL     1       1.645   8.861  18.439  0.00  0.00    +0.000 A 
BRANCH  14  15
ATOM     15  O   UNL     1       2.287   8.655  17.251  0.00  0.00    +0.000 OA
ATOM     16  H   UNL     1       3.228   8.470  17.410  0.00  0.00    +0.000 HD
ENDBRANCH  14  15
BRANCH  12  17
ATOM     17  O   UNL     1      -0.426  11.497  19.993  0.00  0.00    +0.000 OA
BRANCH  17  18
ATOM     18  C   UNL     1      -1.801  11.416  19.598  0.00  0.00    +0.000 C 
BRANCH  18  19
ATOM     19  C   UNL     1      -1.960  11.656  18.135  0.00  0.00    +0.000 C 
ATOM     20  C   UNL     1      -2.598  10.805  17.308  0.00  0.00    +0.000 C 
ATOM     21  C   UNL     1      -3.264   9.526  17.751  0.00  0.00    +0.000 C 
ATOM     22  C   UNL     1      -2.694  11.080  15.835  0.00  0.00    +0.000 C 
ENDBRANCH  18  19
ENDBRANCH  17  18
ENDBRANCH  12  17
ENDBRANCH   6   9
BRANCH   8  23
ATOM     23  C   UNL     1       5.255   5.049  18.044  0.00  0.00    +0.000 A 
ATOM     24  C   UNL     1       4.582   4.836  16.829  0.00  0.00    +0.000 A 
ATOM     25  C   UNL     1       5.299   4.481  15.684  0.00  0.00    +0.000 A 
ATOM     26  C   UNL     1       6.688   4.339  15.743  0.00  0.00    +0.000 A 
ATOM     27  C   UNL     1       7.351   4.504  16.956  0.00  0.00    +0.000 A 
ATOM     28  C   UNL     1       6.644   4.865  18.091  0.00  0.00    +0.000 A 
BRANCH  26  29
ATOM     29  O   UNL     1       7.331   4.047  14.569  0.00  0.00    +0.000 OA
BRANCH  29  30
ATOM     30  C   UNL     1       6.727   4.667  13.431  0.00  0.00    +0.000 C 
BRANCH  30  31
ATOM     31  C   UNL     1       6.232   3.616  12.483  0.00  0.00    +0.000 A 
ATOM     32  C   UNL     1       7.125   2.666  11.969  0.00  0.00    +0.000 A 
ATOM     33  C   UNL     1       6.677   1.671  11.106  0.00  0.00    +0.000 A 
ATOM     34  C   UNL     1       5.331   1.619  10.753  0.00  0.00    +0.000 A 
ATOM     35  C   UNL     1       4.436   2.560  11.262  0.00  0.00    +0.000 A 
ATOM     36  C   UNL     1       4.880   3.557  12.126  0.00  0.00    +0.000 A 
ENDBRANCH  30  31
ENDBRANCH  29  30
ENDBRANCH  26  29
ENDBRANCH   8  23
TORSDOF 9
ENDMDL
MODEL 5
REMARK VINA RESULT:      -8.1      1.675      2.410
REMARK  Name = 
REMARK  12 active torsions:
REMARK  status: ('A' for Active; 'I' for Inactive)
REMARK    1  A    between atoms: C_1  and  C_2
REMARK    2  A    between atoms: C_6  and  C_7
REMARK    3  A    between atoms: C_10  and  O_11
REMARK    4  A    between atoms: O_11  and  C_12
REMARK    5  A    between atoms: C_12  and  C_13
REMARK    6  A    between atoms: C_14  and  C_15
REMARK    7  A    between atoms: C_14  and  C_16
REMARK    8  A    between atoms: C_18  and  O_19
REMARK    9  A    between atoms: C_21  and  C_22
REMARK   10  A    between atoms: C_25  and  O_26
REMARK   11  A    between atoms: O_26  and  C_27
REMARK   12  A    between atoms: C_27  and  C_28
REMARK                            x       y       z     vdW  Elec       q    Type
REMARK                         _______ _______ _______ _____ _____    ______ ____
ROOT
ATOM      1  C   UNL     1       1.258   3.381  17.563  0.00  0.00    +0.000 C 
ATOM      2  C   UNL     1       2.707   3.577  17.933  0.00  0.00    +0.000 C 
ATOM      3  O   UNL     1       3.520   2.658  17.856  0.00  0.00    +0.000 OA
ATOM      4  N   UNL     1       3.041   4.869  18.295  0.00  0.00    +0.000 N 
ATOM      5  N   UNL     1       2.083   5.832  18.478  0.00  0.00    +0.000 NA
ATOM      6  C   UNL     1       2.703   6.913  18.840  0.00  0.00    +0.000 C 
ATOM      7  C   UNL     1       4.202   6.800  18.912  0.00  0.00    +0.000 C 
ATOM      8  C   UNL     1       4.403   5.340  18.543  0.00  0.00    +0.000 C 
ENDROOT
BRANCH   6   9
ATOM      9  C   UNL     1       1.989   8.168  19.159  0.00  0.00    +0.000 A 
ATOM     10  C   UNL     1       1.714   9.074  18.120  0.00  0.00    +0.000 A 
ATOM     11  C   UNL     1       0.986  10.245  18.370  0.00  0.00    +0.000 A 
ATOM     12  C   UNL     1       0.521  10.507  19.662  0.00  0.00    +0.000 A 
ATOM     13  C   UNL     1       0.854   9.634  20.700  0.00  0.00    +0.000 A 
ATOM     14  C   UNL     1       1.556   8.464  20.451  0.00  0.00    +0.000 A 
BRANCH  14  15
ATOM     15  O   UNL     1       1.775   7.619  21.501  0.00  0.00    +0.000 OA
ATOM     16  H   UNL     1       1.051   6.975  21.565  0.00  0.00    +0.000 HD
ENDBRANCH  14  15
BRANCH  12  17
ATOM     17  O   UNL     1      -0.278  11.610  19.825  0.00  0.00    +0.000 OA
BRANCH  17  18
ATOM     18  C   UNL     1      -1.063  11.539  21.021  0.00  0.00    +0.000 C 
BRANCH  18  19
ATOM     19  C   UNL     1      -0.797  12.704  21.913  0.00  0.00    +0.000 C 
ATOM     20  C   UNL     1      -1.583  13.035  22.957  0.00  0.00    +0.000 C 
ATOM     21  C   UNL     1      -2.804  12.259  23.381  0.00  0.00    +0.000 C 
ATOM     22  C   UNL     1      -1.288  14.243  23.798  0.00  0.00    +0.000 C 
ENDBRANCH  18  19
ENDBRANCH  17  18
ENDBRANCH  12  17
ENDBRANCH   6   9
BRANCH   8  23
ATOM     23  C   UNL     1       5.318   5.258  17.339  0.00  0.00    +0.000 A 
ATOM     24  C   UNL     1       4.968   5.858  16.118  0.00  0.00    +0.000 A 
ATOM     25  C   UNL     1       5.804   5.726  15.007  0.00  0.00    +0.000 A 
ATOM     26  C   UNL     1       6.993   4.998  15.107  0.00  0.00    +0.000 A 
ATOM     27  C   UNL     1       7.318   4.364  16.303  0.00  0.00    +0.000 A 
ATOM     28  C   UNL     1       6.495   4.500  17.409  0.00  0.00    +0.000 A 
BRANCH  26  29
ATOM     29  O   UNL     1       7.791   4.960  13.995  0.00  0.00    +0.000 OA
BRANCH  29  30
ATOM     30  C   UNL     1       7.068   5.169  12.779  0.00  0.00    +0.000 C 
BRANCH  30  31
ATOM     31  C   UNL     1       6.696   3.847  12.177  0.00  0.00    +0.000 A 
ATOM     32  C   UNL     1       7.697   3.001  11.682  0.00  0.00    +0.000 A 
ATOM     33  C   UNL     1       7.371   1.761  11.140  0.00  0.00    +0.000 A 
ATOM     34  C   UNL     1       6.037   1.360  11.092  0.00  0.00    +0.000 A 
ATOM     35  C   UNL     1       5.036   2.196  11.584  0.00  0.00    +0.000 A 
ATOM     36  C   UNL     1       5.359   3.437  12.127  0.00  0.00    +0.000 A 
ENDBRANCH  30  31
ENDBRANCH  29  30
ENDBRANCH  26  29
ENDBRANCH   8  23
TORSDOF 9
ENDMDL
MODEL 6
REMARK VINA RESULT:      -8.0      3.740     10.224
REMARK  Name = 
REMARK  12 active torsions:
REMARK  status: ('A' for Active; 'I' for Inactive)
REMARK    1  A    between atoms: C_1  and  C_2
REMARK    2  A    between atoms: C_6  and  C_7
REMARK    3  A    between atoms: C_10  and  O_11
REMARK    4  A    between atoms: O_11  and  C_12
REMARK    5  A    between atoms: C_12  and  C_13
REMARK    6  A    between atoms: C_14  and  C_15
REMARK    7  A    between atoms: C_14  and  C_16
REMARK    8  A    between atoms: C_18  and  O_19
REMARK    9  A    between atoms: C_21  and  C_22
REMARK   10  A    between atoms: C_25  and  O_26
REMARK   11  A    between atoms: O_26  and  C_27
REMARK   12  A    between atoms: C_27  and  C_28
REMARK                            x       y       z     vdW  Elec       q    Type
REMARK                         _______ _______ _______ _____ _____    ______ ____
ROOT
ATOM      1  C   UNL     1       0.879   8.768  22.259  0.00  0.00    +0.000 C 
ATOM      2  C   UNL     1       0.316   9.498  21.065  0.00  0.00    +0.000 C 
ATOM      3  O   UNL     1      -0.555  10.357  21.190  0.00  0.00    +0.000 OA
ATOM      4  N   UNL     1       0.902   9.168  19.858  0.00  0.00    +0.000 N 
ATOM      5  N   UNL     1       1.786   8.126  19.751  0.00  0.00    +0.000 NA
ATOM      6  C   UNL     1       2.128   8.052  18.501  0.00  0.00    +0.000 C 
ATOM      7  C   UNL     1       1.514   9.094  17.605  0.00  0.00    +0.000 C 
ATOM      8  C   UNL     1       0.639   9.849  18.590  0.00  0.00    +0.000 C 
ENDROOT
BRANCH   6   9
ATOM      9  C   UNL     1       3.056   7.019  17.993  0.00  0.00    +0.000 A 
ATOM     10  C   UNL     1       4.165   7.421  17.229  0.00  0.00    +0.000 A 
ATOM     11  C   UNL     1       5.100   6.479  16.781  0.00  0.00    +0.000 A 
ATOM     12  C   UNL     1       4.934   5.130  17.108  0.00  0.00    +0.000 A 
ATOM     13  C   UNL     1       3.796   4.732  17.812  0.00  0.00    +0.000 A 
ATOM     14  C   UNL     1       2.880   5.665  18.274  0.00  0.00    +0.000 A 
BRANCH  14  15
ATOM     15  O   UNL     1       1.834   5.211  19.025  0.00  0.00    +0.000 OA
ATOM     16  H   UNL     1       1.045   5.106  18.468  0.00  0.00    +0.000 HD
ENDBRANCH  14  15
BRANCH  12  17
ATOM     17  O   UNL     1       5.937   4.271  16.737  0.00  0.00    +0.000 OA
BRANCH  17  18
ATOM     18  C   UNL     1       6.527   4.634  15.483  0.00  0.00    +0.000 C 
BRANCH  18  19
ATOM     19  C   UNL     1       5.920   3.869  14.357  0.00  0.00    +0.000 C 
ATOM     20  C   UNL     1       6.376   3.924  13.090  0.00  0.00    +0.000 C 
ATOM     21  C   UNL     1       7.574   4.731  12.652  0.00  0.00    +0.000 C 
ATOM     22  C   UNL     1       5.701   3.162  11.987  0.00  0.00    +0.000 C 
ENDBRANCH  18  19
ENDBRANCH  17  18
ENDBRANCH  12  17
ENDBRANCH   6   9
BRANCH   8  23
ATOM     23  C   UNL     1       1.031  11.312  18.576  0.00  0.00    +0.000 A 
ATOM     24  C   UNL     1       0.061  12.325  18.649  0.00  0.00    +0.000 A 
ATOM     25  C   UNL     1       0.442  13.667  18.582  0.00  0.00    +0.000 A 
ATOM     26  C   UNL     1       1.792  14.005  18.446  0.00  0.00    +0.000 A 
ATOM     27  C   UNL     1       2.750  13.003  18.328  0.00  0.00    +0.000 A 
ATOM     28  C   UNL     1       2.375  11.671  18.402  0.00  0.00    +0.000 A 
BRANCH  26  29
ATOM     29  O   UNL     1       2.098  15.341  18.448  0.00  0.00    +0.000 OA
BRANCH  29  30
ATOM     30  C   UNL     1       3.112  15.685  17.500  0.00  0.00    +0.000 C 
BRANCH  30  31
ATOM     31  C   UNL     1       4.414  15.905  18.208  0.00  0.00    +0.000 A 
ATOM     32  C   UNL     1       4.480  16.802  19.283  0.00  0.00    +0.000 A 
ATOM     33  C   UNL     1       5.676  17.002  19.965  0.00  0.00    +0.000 A 
ATOM     34  C   UNL     1       6.817  16.303  19.575  0.00  0.00    +0.000 A 
ATOM     35  C   UNL     1       6.759  15.408  18.507  0.00  0.00    +0.000 A 
ATOM     36  C   UNL     1       5.564  15.206  17.823  0.00  0.00    +0.000 A 
ENDBRANCH  30  31
ENDBRANCH  29  30
ENDBRANCH  26  29
ENDBRANCH   8  23
TORSDOF 9
ENDMDL
MODEL 7
REMARK VINA RESULT:      -8.0      1.398      2.095
REMARK  Name = 
REMARK  12 active torsions:
REMARK  status: ('A' for Active; 'I' for Inactive)
REMARK    1  A    between atoms: C_1  and  C_2
REMARK    2  A    between atoms: C_6  and  C_7
REMARK    3  A    between atoms: C_10  and  O_11
REMARK    4  A    between atoms: O_11  and  C_12
REMARK    5  A    between atoms: C_12  and  C_13
REMARK    6  A    between atoms: C_14  and  C_15
REMARK    7  A    between atoms: C_14  and  C_16
REMARK    8  A    between atoms: C_18  and  O_19
REMARK    9  A    between atoms: C_21  and  C_22
REMARK   10  A    between atoms: C_25  and  O_26
REMARK   11  A    between atoms: O_26  and  C_27
REMARK   12  A    between atoms: C_27  and  C_28
REMARK                            x       y       z     vdW  Elec       q    Type
REMARK                         _______ _______ _______ _____ _____    ______ ____
ROOT
ATOM      1  C   UNL     1       1.606   3.071  19.020  0.00  0.00    +0.000 C 
ATOM      2  C   UNL     1       3.030   3.559  19.127  0.00  0.00    +0.000 C 
ATOM      3  O   UNL     1       3.976   2.774  19.161  0.00  0.00    +0.000 OA
ATOM      4  N   UNL     1       3.172   4.933  19.117  0.00  0.00    +0.000 N 
ATOM      5  N   UNL     1       2.087   5.767  19.193  0.00  0.00    +0.000 NA
ATOM      6  C   UNL     1       2.546   6.981  19.194  0.00  0.00    +0.000 C 
ATOM      7  C   UNL     1       4.042   7.101  19.081  0.00  0.00    +0.000 C 
ATOM      8  C   UNL     1       4.452   5.638  19.051  0.00  0.00    +0.000 C 
ENDROOT
BRANCH   6   9
ATOM      9  C   UNL     1       1.663   8.163  19.297  0.00  0.00    +0.000 A 
ATOM     10  C   UNL     1       1.248   8.803  18.117  0.00  0.00    +0.000 A 
ATOM     11  C   UNL     1       0.363   9.888  18.169  0.00  0.00    +0.000 A 
ATOM     12  C   UNL     1      -0.118  10.329  19.405  0.00  0.00    +0.000 A 
ATOM     13  C   UNL     1       0.350   9.728  20.576  0.00  0.00    +0.000 A 
ATOM     14  C   UNL     1       1.209   8.641  20.525  0.00  0.00    +0.000 A 
BRANCH  14  15
ATOM     15  O   UNL     1       1.561   8.054  21.707  0.00  0.00    +0.000 OA
ATOM     16  H   UNL     1       2.529   7.982  21.767  0.00  0.00    +0.000 HD
ENDBRANCH  14  15
BRANCH  12  17
ATOM     17  O   UNL     1      -1.065  11.321  19.387  0.00  0.00    +0.000 OA
BRANCH  17  18
ATOM     18  C   UNL     1      -0.749  12.388  20.290  0.00  0.00    +0.000 C 
BRANCH  18  19
ATOM     19  C   UNL     1      -1.975  12.920  20.951  0.00  0.00    +0.000 C 
ATOM     20  C   UNL     1      -2.342  12.597  22.207  0.00  0.00    +0.000 C 
ATOM     21  C   UNL     1      -1.551  11.692  23.118  0.00  0.00    +0.000 C 
ATOM     22  C   UNL     1      -3.609  13.133  22.808  0.00  0.00    +0.000 C 
ENDBRANCH  18  19
ENDBRANCH  17  18
ENDBRANCH  12  17
ENDBRANCH   6   9
BRANCH   8  23
ATOM     23  C   UNL     1       5.243   5.375  17.787  0.00  0.00    +0.000 A 
ATOM     24  C   UNL     1       6.450   4.656  17.822  0.00  0.00    +0.000 A 
ATOM     25  C   UNL     1       7.189   4.470  16.651  0.00  0.00    +0.000 A 
ATOM     26  C   UNL     1       6.728   4.996  15.441  0.00  0.00    +0.000 A 
ATOM     27  C   UNL     1       5.557   5.748  15.413  0.00  0.00    +0.000 A 
ATOM     28  C   UNL     1       4.818   5.927  16.571  0.00  0.00    +0.000 A 
BRANCH  26  29
ATOM     29  O   UNL     1       7.473   4.724  14.324  0.00  0.00    +0.000 OA
BRANCH  29  30
ATOM     30  C   UNL     1       6.781   5.009  13.105  0.00  0.00    +0.000 C 
BRANCH  30  31
ATOM     31  C   UNL     1       6.568   3.740  12.335  0.00  0.00    +0.000 A 
ATOM     32  C   UNL     1       5.266   3.271  12.113  0.00  0.00    +0.000 A 
ATOM     33  C   UNL     1       5.049   2.107  11.382  0.00  0.00    +0.000 A 
ATOM     34  C   UNL     1       6.136   1.405  10.865  0.00  0.00    +0.000 A 
ATOM     35  C   UNL     1       7.434   1.867  11.081  0.00  0.00    +0.000 A 
ATOM     36  C   UNL     1       7.655   3.031  11.812  0.00  0.00    +0.000 A 
ENDBRANCH  30  31
ENDBRANCH  29  30
ENDBRANCH  26  29
ENDBRANCH   8  23
TORSDOF 9
ENDMDL
MODEL 8
REMARK VINA RESULT:      -7.9      0.844      1.211
REMARK  Name = 
REMARK  12 active torsions:
REMARK  status: ('A' for Active; 'I' for Inactive)
REMARK    1  A    between atoms: C_1  and  C_2
REMARK    2  A    between atoms: C_6  and  C_7
REMARK    3  A    between atoms: C_10  and  O_11
REMARK    4  A    between atoms: O_11  and  C_12
REMARK    5  A    between atoms: C_12  and  C_13
REMARK    6  A    between atoms: C_14  and  C_15
REMARK    7  A    between atoms: C_14  and  C_16
REMARK    8  A    between atoms: C_18  and  O_19
REMARK    9  A    between atoms: C_21  and  C_22
REMARK   10  A    between atoms: C_25  and  O_26
REMARK   11  A    between atoms: O_26  and  C_27
REMARK   12  A    between atoms: C_27  and  C_28
REMARK                            x       y       z     vdW  Elec       q    Type
REMARK                         _______ _______ _______ _____ _____    ______ ____
ROOT
ATOM      1  C   UNL     1       1.313   3.087  20.037  0.00  0.00    +0.000 C 
ATOM      2  C   UNL     1       2.763   3.503  20.000  0.00  0.00    +0.000 C 
ATOM      3  O   UNL     1       3.670   2.680  20.110  0.00  0.00    +0.000 OA
ATOM      4  N   UNL     1       2.972   4.850  19.770  0.00  0.00    +0.000 N 
ATOM      5  N   UNL     1       1.935   5.746  19.768  0.00  0.00    +0.000 NA
ATOM      6  C   UNL     1       2.453   6.918  19.560  0.00  0.00    +0.000 C 
ATOM      7  C   UNL     1       3.945   6.933  19.359  0.00  0.00    +0.000 C 
ATOM      8  C   UNL     1       4.280   5.462  19.536  0.00  0.00    +0.000 C 
ENDROOT
BRANCH   6   9
ATOM      9  C   UNL     1       1.637   8.150  19.520  0.00  0.00    +0.000 A 
ATOM     10  C   UNL     1       0.918   8.524  20.668  0.00  0.00    +0.000 A 
ATOM     11  C   UNL     1       0.182   9.716  20.691  0.00  0.00    +0.000 A 
ATOM     12  C   UNL     1       0.172  10.544  19.565  0.00  0.00    +0.000 A 
ATOM     13  C   UNL     1       0.836  10.133  18.407  0.00  0.00    +0.000 A 
ATOM     14  C   UNL     1       1.582   8.964  18.390  0.00  0.00    +0.000 A 
BRANCH  14  15
ATOM     15  O   UNL     1       2.270   8.667  17.248  0.00  0.00    +0.000 OA
ATOM     16  H   UNL     1       1.896   9.157  16.497  0.00  0.00    +0.000 HD
ENDBRANCH  14  15
BRANCH  12  17
ATOM     17  O   UNL     1      -0.474  11.748  19.683  0.00  0.00    +0.000 OA
BRANCH  17  18
ATOM     18  C   UNL     1      -1.883  11.590  19.889  0.00  0.00    +0.000 C 
BRANCH  18  19
ATOM     19  C   UNL     1      -2.654  11.955  18.667  0.00  0.00    +0.000 C 
ATOM     20  C   UNL     1      -3.129  11.050  17.789  0.00  0.00    +0.000 C 
ATOM     21  C   UNL     1      -2.977   9.556  17.943  0.00  0.00    +0.000 C 
ATOM     22  C   UNL     1      -3.866  11.477  16.553  0.00  0.00    +0.000 C 
ENDBRANCH  18  19
ENDBRANCH  17  18
ENDBRANCH  12  17
ENDBRANCH   6   9
BRANCH   8  23
ATOM     23  C   UNL     1       4.986   4.965  18.292  0.00  0.00    +0.000 A 
ATOM     24  C   UNL     1       6.382   4.812  18.262  0.00  0.00    +0.000 A 
ATOM     25  C   UNL     1       7.017   4.401  17.087  0.00  0.00    +0.000 A 
ATOM     26  C   UNL     1       6.264   4.139  15.939  0.00  0.00    +0.000 A 
ATOM     27  C   UNL     1       4.886   4.335  15.954  0.00  0.00    +0.000 A 
ATOM     28  C   UNL     1       4.253   4.734  17.120  0.00  0.00    +0.000 A 
BRANCH  26  29
ATOM     29  O   UNL     1       6.947   3.683  14.843  0.00  0.00    +0.000 OA
BRANCH  29  30
ATOM     30  C   UNL     1       6.667   4.432  13.657  0.00  0.00    +0.000 C 
BRANCH  30  31
ATOM     31  C   UNL     1       6.021   3.544  12.637  0.00  0.00    +0.000 A 
ATOM     32  C   UNL     1       4.694   3.778  12.250  0.00  0.00    +0.000 A 
ATOM     33  C   UNL     1       4.086   2.976  11.288  0.00  0.00    +0.000 A 
ATOM     34  C   UNL     1       4.805   1.935  10.705  0.00  0.00    +0.000 A 
ATOM     35  C   UNL     1       6.126   1.698  11.083  0.00  0.00    +0.000 A 
ATOM     36  C   UNL     1       6.737   2.498  12.045  0.00  0.00    +0.000 A 
ENDBRANCH  30  31
ENDBRANCH  29  30
ENDBRANCH  26  29
ENDBRANCH   8  23
TORSDOF 9
ENDMDL
MODEL 9
REMARK VINA RESULT:      -7.9      0.678      1.286
REMARK  Name = 
REMARK  12 active torsions:
REMARK  status: ('A' for Active; 'I' for Inactive)
REMARK    1  A    between atoms: C_1  and  C_2
REMARK    2  A    between atoms: C_6  and  C_7
REMARK    3  A    between atoms: C_10  and  O_11
REMARK    4  A    between atoms: O_11  and  C_12
REMARK    5  A    between atoms: C_12  and  C_13
REMARK    6  A    between atoms: C_14  and  C_15
REMARK    7  A    between atoms: C_14  and  C_16
REMARK    8  A    between atoms: C_18  and  O_19
REMARK    9  A    between atoms: C_21  and  C_22
REMARK   10  A    between atoms: C_25  and  O_26
REMARK   11  A    between atoms: O_26  and  C_27
REMARK   12  A    between atoms: C_27  and  C_28
REMARK                            x       y       z     vdW  Elec       q    Type
REMARK                         _______ _______ _______ _____ _____    ______ ____
ROOT
ATOM      1  C   UNL     1       2.109   2.644  19.426  0.00  0.00    +0.000 C 
ATOM      2  C   UNL     1       3.506   3.213  19.441  0.00  0.00    +0.000 C 
ATOM      3  O   UNL     1       4.496   2.484  19.421  0.00  0.00    +0.000 OA
ATOM      4  N   UNL     1       3.568   4.593  19.412  0.00  0.00    +0.000 N 
ATOM      5  N   UNL     1       2.444   5.365  19.550  0.00  0.00    +0.000 NA
ATOM      6  C   UNL     1       2.833   6.603  19.515  0.00  0.00    +0.000 C 
ATOM      7  C   UNL     1       4.310   6.806  19.308  0.00  0.00    +0.000 C 
ATOM      8  C   UNL     1       4.799   5.369  19.263  0.00  0.00    +0.000 C 
ENDROOT
BRANCH   6   9
ATOM      9  C   UNL     1       1.891   7.734  19.664  0.00  0.00    +0.000 A 
ATOM     10  C   UNL     1       1.197   7.881  20.877  0.00  0.00    +0.000 A 
ATOM     11  C   UNL     1       0.343   8.973  21.080  0.00  0.00    +0.000 A 
ATOM     12  C   UNL     1       0.190   9.928  20.071  0.00  0.00    +0.000 A 
ATOM     13  C   UNL     1       0.833   9.739  18.846  0.00  0.00    +0.000 A 
ATOM     14  C   UNL     1       1.695   8.670  18.650  0.00  0.00    +0.000 A 
BRANCH  14  15
ATOM     15  O   UNL     1       2.352   8.594  17.455  0.00  0.00    +0.000 OA
ATOM     16  H   UNL     1       1.724   8.381  16.745  0.00  0.00    +0.000 HD
ENDBRANCH  14  15
BRANCH  12  17
ATOM     17  O   UNL     1      -0.571  11.031  20.366  0.00  0.00    +0.000 OA
BRANCH  17  18
ATOM     18  C   UNL     1      -0.972  11.743  19.190  0.00  0.00    +0.000 C 
BRANCH  18  19
ATOM     19  C   UNL     1      -2.457  11.795  19.068  0.00  0.00    +0.000 C 
ATOM     20  C   UNL     1      -3.238  12.584  19.832  0.00  0.00    +0.000 C 
ATOM     21  C   UNL     1      -2.718  13.538  20.879  0.00  0.00    +0.000 C 
ATOM     22  C   UNL     1      -4.733  12.567  19.693  0.00  0.00    +0.000 C 
ENDBRANCH  18  19
ENDBRANCH  17  18
ENDBRANCH  12  17
ENDBRANCH   6   9
BRANCH   8  23
ATOM     23  C   UNL     1       5.526   5.138  17.954  0.00  0.00    +0.000 A 
ATOM     24  C   UNL     1       6.871   4.736  17.931  0.00  0.00    +0.000 A 
ATOM     25  C   UNL     1       7.535   4.579  16.712  0.00  0.00    +0.000 A 
ATOM     26  C   UNL     1       6.861   4.819  15.511  0.00  0.00    +0.000 A 
ATOM     27  C   UNL     1       5.542   5.263  15.534  0.00  0.00    +0.000 A 
ATOM     28  C   UNL     1       4.879   5.411  16.741  0.00  0.00    +0.000 A 
BRANCH  26  29
ATOM     29  O   UNL     1       7.557   4.588  14.354  0.00  0.00    +0.000 OA
BRANCH  29  30
ATOM     30  C   UNL     1       6.821   4.935  13.179  0.00  0.00    +0.000 C 
BRANCH  30  31
ATOM     31  C   UNL     1       6.516   3.699  12.387  0.00  0.00    +0.000 A 
ATOM     32  C   UNL     1       5.183   3.334  12.152  0.00  0.00    +0.000 A 
ATOM     33  C   UNL     1       4.883   2.201  11.401  0.00  0.00    +0.000 A 
ATOM     34  C   UNL     1       5.916   1.427  10.878  0.00  0.00    +0.000 A 
ATOM     35  C   UNL     1       7.244   1.785  11.107  0.00  0.00    +0.000 A 
ATOM     36  C   UNL     1       7.549   2.917  11.857  0.00  0.00    +0.000 A 
ENDBRANCH  30  31
ENDBRANCH  29  30
ENDBRANCH  26  29
ENDBRANCH   8  23
TORSDOF 9
ENDMDL
