MODEL 1
REMARK VINA RESULT:      -8.5      0.000      0.000
REMARK  Name = 
REMARK  11 active torsions:
REMARK  status: ('A' for Active; 'I' for Inactive)
REMARK    1  A    between atoms: C_1  and  C_2
REMARK    2  A    between atoms: C_2  and  C_3
REMARK    3  A    between atoms: C_2  and  C_13
REMARK    4  A    between atoms: C_2  and  N_23
REMARK    5  A    between atoms: C_3  and  O_4
REMARK    6  A    between atoms: O_4  and  C_5
REMARK    7  A    between atoms: C_5  and  C_7
REMARK    8  A    between atoms: C_13  and  O_14
REMARK    9  A    between atoms: O_14  and  C_15
REMARK   10  A    between atoms: C_15  and  C_17
REMARK   11  A    between atoms: C_25  and  C_26
REMARK                            x       y       z     vdW  Elec       q    Type
REMARK                         _______ _______ _______ _____ _____    ______ ____
ROOT
ATOM      1  C   UNL     1       5.647   5.998  18.573  0.00  0.00    +0.000 C 
ATOM      2  C   UNL     1       4.785   5.094  17.674  0.00  0.00    +0.000 C 
ENDROOT
BRANCH   2   3
ATOM      3  N   UNL     1       5.248   5.186  16.236  0.00  0.00    +0.000 N 
ATOM      4  O   UNL     1       5.064   6.305  15.644  0.00  0.00    +0.000 OA
ATOM      5  C   UNL     1       5.786   4.183  15.568  0.00  0.00    +0.000 C 
BRANCH   5   6
ATOM      6  C   UNL     1       6.339   4.313  14.209  0.00  0.00    +0.000 A 
ATOM      7  C   UNL     1       7.422   5.150  13.926  0.00  0.00    +0.000 A 
ATOM      8  C   UNL     1       7.916   5.243  12.627  0.00  0.00    +0.000 A 
ATOM      9  C   UNL     1       7.345   4.479  11.611  0.00  0.00    +0.000 A 
ATOM     10  C   UNL     1       6.290   3.612  11.899  0.00  0.00    +0.000 A 
ATOM     11  C   UNL     1       5.791   3.518  13.200  0.00  0.00    +0.000 A 
ENDBRANCH   5   6
ENDBRANCH   2   3
BRANCH   2  12
ATOM     12  C   UNL     1       4.924   3.628  18.093  0.00  0.00    +0.000 C 
BRANCH  12  13
ATOM     13  O   UNL     1       5.284   3.483  19.480  0.00  0.00    +0.000 OA
BRANCH  13  14
ATOM     14  C   UNL     1       4.543   2.587  20.183  0.00  0.00    +0.000 C 
ATOM     15  O   UNL     1       5.001   1.658  20.839  0.00  0.00    +0.000 OA
BRANCH  14  16
ATOM     16  C   UNL     1       3.084   2.850  20.086  0.00  0.00    +0.000 A 
ATOM     17  C   UNL     1       2.341   2.044  19.210  0.00  0.00    +0.000 A 
ATOM     18  C   UNL     1       0.972   2.259  19.037  0.00  0.00    +0.000 A 
ATOM     19  C   UNL     1       0.337   3.277  19.740  0.00  0.00    +0.000 A 
ATOM     20  C   UNL     1       1.064   4.075  20.624  0.00  0.00    +0.000 A 
ATOM     21  C   UNL     1       2.437   3.864  20.802  0.00  0.00    +0.000 A 
ENDBRANCH  14  16
ENDBRANCH  13  14
ENDBRANCH  12  13
ENDBRANCH   2  12
BRANCH   2  22
ATOM     22  C   UNL     1       3.321   5.588  17.706  0.00  0.00    +0.000 C 
BRANCH  22  23
ATOM     23  O   UNL     1       3.231   6.686  18.640  0.00  0.00    +0.000 OA
BRANCH  23  24
ATOM     24  C   UNL     1       2.644   7.815  18.168  0.00  0.00    +0.000 C 
ATOM     25  O   UNL     1       2.825   8.312  17.069  0.00  0.00    +0.000 OA
BRANCH  24  26
ATOM     26  C   UNL     1       1.785   8.425  19.222  0.00  0.00    +0.000 A 
ATOM     27  C   UNL     1       1.722   7.794  20.472  0.00  0.00    +0.000 A 
ATOM     28  C   UNL     1       0.890   8.294  21.476  0.00  0.00    +0.000 A 
ATOM     29  C   UNL     1       0.111   9.425  21.237  0.00  0.00    +0.000 A 
ATOM     30  C   UNL     1       0.163  10.059  19.996  0.00  0.00    +0.000 A 
ATOM     31  C   UNL     1       0.998   9.563  18.990  0.00  0.00    +0.000 A 
ENDBRANCH  24  26
ENDBRANCH  23  24
ENDBRANCH  22  23
ENDBRANCH   2  22
TORSDOF 10
ENDMDL
MODEL 2
REMARK VINA RESULT:      -8.5      1.169      6.864
REMARK  Name = 
REMARK  11 active torsions:
REMARK  status: ('A' for Active; 'I' for Inactive)
REMARK    1  A    between atoms: C_1  and  C_2
REMARK    2  A    between atoms: C_2  and  C_3
REMARK    3  A    between atoms: C_2  and  C_13
REMARK    4  A    between atoms: C_2  and  N_23
REMARK    5  A    between atoms: C_3  and  O_4
REMARK    6  A    between atoms: O_4  and  C_5
REMARK    7  A    between atoms: C_5  and  C_7
REMARK    8  A    between atoms: C_13  and  O_14
REMARK    9  A    between atoms: O_14  and  C_15
REMARK   10  A    between atoms: C_15  and  C_17
REMARK   11  A    between atoms: C_25  and  C_26
REMARK                            x       y       z     vdW  Elec       q    Type
REMARK                         _______ _______ _______ _____ _____    ______ ____
ROOT
ATOM      1  C   UNL     1       3.914   4.359  16.960  0.00  0.00    +0.000 C 
ATOM      2  C   UNL     1       4.324   5.432  17.984  0.00  0.00    +0.000 C 
ENDROOT
BRANCH   2   3
ATOM      3  N   UNL     1       3.130   6.280  18.367  0.00  0.00    +0.000 N 
ATOM      4  O   UNL     1       2.079   5.655  18.742  0.00  0.00    +0.000 OA
ATOM      5  C   UNL     1       3.108   7.598  18.300  0.00  0.00    +0.000 C 
BRANCH   5   6
ATOM      6  C   UNL     1       1.986   8.419  18.783  0.00  0.00    +0.000 A 
ATOM      7  C   UNL     1       1.620   8.457  20.132  0.00  0.00    +0.000 A 
ATOM      8  C   UNL     1       0.553   9.249  20.548  0.00  0.00    +0.000 A 
ATOM      9  C   UNL     1      -0.137  10.027  19.620  0.00  0.00    +0.000 A 
ATOM     10  C   UNL     1       0.252  10.024  18.280  0.00  0.00    +0.000 A 
ATOM     11  C   UNL     1       1.320   9.228  17.859  0.00  0.00    +0.000 A 
ENDBRANCH   5   6
ENDBRANCH   2   3
BRANCH   2  12
ATOM     12  C   UNL     1       4.839   4.781  19.270  0.00  0.00    +0.000 C 
BRANCH  12  13
ATOM     13  O   UNL     1       5.199   3.400  19.082  0.00  0.00    +0.000 OA
BRANCH  13  14
ATOM     14  C   UNL     1       4.619   2.524  19.942  0.00  0.00    +0.000 C 
ATOM     15  O   UNL     1       5.226   1.750  20.674  0.00  0.00    +0.000 OA
BRANCH  14  16
ATOM     16  C   UNL     1       3.134   2.597  19.918  0.00  0.00    +0.000 A 
ATOM     17  C   UNL     1       2.494   3.089  21.066  0.00  0.00    +0.000 A 
ATOM     18  C   UNL     1       1.101   3.148  21.130  0.00  0.00    +0.000 A 
ATOM     19  C   UNL     1       0.339   2.719  20.049  0.00  0.00    +0.000 A 
ATOM     20  C   UNL     1       0.966   2.241  18.897  0.00  0.00    +0.000 A 
ATOM     21  C   UNL     1       2.363   2.180  18.827  0.00  0.00    +0.000 A 
ENDBRANCH  14  16
ENDBRANCH  13  14
ENDBRANCH  12  13
ENDBRANCH   2  12
BRANCH   2  22
ATOM     22  C   UNL     1       5.359   6.383  17.340  0.00  0.00    +0.000 C 
BRANCH  22  23
ATOM     23  O   UNL     1       5.562   5.975  15.970  0.00  0.00    +0.000 OA
BRANCH  23  24
ATOM     24  C   UNL     1       6.737   5.347  15.709  0.00  0.00    +0.000 C 
ATOM     25  O   UNL     1       7.678   5.239  16.478  0.00  0.00    +0.000 OA
BRANCH  24  26
ATOM     26  C   UNL     1       6.758   4.861  14.301  0.00  0.00    +0.000 A 
ATOM     27  C   UNL     1       5.851   3.856  13.934  0.00  0.00    +0.000 A 
ATOM     28  C   UNL     1       5.866   3.328  12.642  0.00  0.00    +0.000 A 
ATOM     29  C   UNL     1       6.790   3.794  11.708  0.00  0.00    +0.000 A 
ATOM     30  C   UNL     1       7.699   4.791  12.063  0.00  0.00    +0.000 A 
ATOM     31  C   UNL     1       7.683   5.325  13.355  0.00  0.00    +0.000 A 
ENDBRANCH  24  26
ENDBRANCH  23  24
ENDBRANCH  22  23
ENDBRANCH   2  22
TORSDOF 10
ENDMDL
MODEL 3
REMARK VINA RESULT:      -8.3      1.225      6.821
REMARK  Name = 
REMARK  11 active torsions:
REMARK  status: ('A' for Active; 'I' for Inactive)
REMARK    1  A    between atoms: C_1  and  C_2
REMARK    2  A    between atoms: C_2  and  C_3
REMARK    3  A    between atoms: C_2  and  C_13
REMARK    4  A    between atoms: C_2  and  N_23
REMARK    5  A    between atoms: C_3  and  O_4
REMARK    6  A    between atoms: O_4  and  C_5
REMARK    7  A    between atoms: C_5  and  C_7
REMARK    8  A    between atoms: C_13  and  O_14
REMARK    9  A    between atoms: O_14  and  C_15
REMARK   10  A    between atoms: C_15  and  C_17
REMARK   11  A    between atoms: C_25  and  C_26
REMARK                            x       y       z     vdW  Elec       q    Type
REMARK                         _______ _______ _______ _____ _____    ______ ____
ROOT
ATOM      1  C   UNL     1       4.231   3.945  16.609  0.00  0.00    +0.000 C 
ATOM      2  C   UNL     1       5.174   4.849  17.421  0.00  0.00    +0.000 C 
ENDROOT
BRANCH   2   3
ATOM      3  N   UNL     1       4.439   6.082  17.902  0.00  0.00    +0.000 N 
ATOM      4  O   UNL     1       5.135   7.144  18.052  0.00  0.00    +0.000 OA
ATOM      5  C   UNL     1       3.154   6.105  18.200  0.00  0.00    +0.000 C 
BRANCH   5   6
ATOM      6  C   UNL     1       2.422   7.332  18.555  0.00  0.00    +0.000 A 
ATOM      7  C   UNL     1       1.994   8.247  17.589  0.00  0.00    +0.000 A 
ATOM      8  C   UNL     1       1.302   9.395  17.966  0.00  0.00    +0.000 A 
ATOM      9  C   UNL     1       1.014   9.621  19.311  0.00  0.00    +0.000 A 
ATOM     10  C   UNL     1       1.403   8.689  20.274  0.00  0.00    +0.000 A 
ATOM     11  C   UNL     1       2.099   7.538  19.899  0.00  0.00    +0.000 A 
ENDBRANCH   5   6
ENDBRANCH   2   3
BRANCH   2  12
ATOM     12  C   UNL     1       5.681   4.119  18.667  0.00  0.00    +0.000 C 
BRANCH  12  13
ATOM     13  O   UNL     1       5.175   2.774  18.762  0.00  0.00    +0.000 OA
BRANCH  13  14
ATOM     14  C   UNL     1       4.550   2.466  19.927  0.00  0.00    +0.000 C 
ATOM     15  O   UNL     1       5.087   1.941  20.895  0.00  0.00    +0.000 OA
BRANCH  14  16
ATOM     16  C   UNL     1       3.112   2.844  19.922  0.00  0.00    +0.000 A 
ATOM     17  C   UNL     1       2.707   3.849  20.813  0.00  0.00    +0.000 A 
ATOM     18  C   UNL     1       1.365   4.228  20.893  0.00  0.00    +0.000 A 
ATOM     19  C   UNL     1       0.422   3.606  20.082  0.00  0.00    +0.000 A 
ATOM     20  C   UNL     1       0.817   2.614  19.182  0.00  0.00    +0.000 A 
ATOM     21  C   UNL     1       2.161   2.231  19.099  0.00  0.00    +0.000 A 
ENDBRANCH  14  16
ENDBRANCH  13  14
ENDBRANCH  12  13
ENDBRANCH   2  12
BRANCH   2  22
ATOM     22  C   UNL     1       6.322   5.341  16.509  0.00  0.00    +0.000 C 
BRANCH  22  23
ATOM     23  O   UNL     1       5.872   5.276  15.138  0.00  0.00    +0.000 OA
BRANCH  23  24
ATOM     24  C   UNL     1       6.830   4.999  14.217  0.00  0.00    +0.000 C 
ATOM     25  O   UNL     1       7.949   5.485  14.176  0.00  0.00    +0.000 OA
BRANCH  24  26
ATOM     26  C   UNL     1       6.298   4.058  13.191  0.00  0.00    +0.000 A 
ATOM     27  C   UNL     1       7.211   3.253  12.495  0.00  0.00    +0.000 A 
ATOM     28  C   UNL     1       6.770   2.394  11.487  0.00  0.00    +0.000 A 
ATOM     29  C   UNL     1       5.415   2.336  11.163  0.00  0.00    +0.000 A 
ATOM     30  C   UNL     1       4.499   3.134  11.846  0.00  0.00    +0.000 A 
ATOM     31  C   UNL     1       4.937   3.992  12.860  0.00  0.00    +0.000 A 
ENDBRANCH  24  26
ENDBRANCH  23  24
ENDBRANCH  22  23
ENDBRANCH   2  22
TORSDOF 10
ENDMDL
MODEL 4
REMARK VINA RESULT:      -8.3      0.945      1.975
REMARK  Name = 
REMARK  11 active torsions:
REMARK  status: ('A' for Active; 'I' for Inactive)
REMARK    1  A    between atoms: C_1  and  C_2
REMARK    2  A    between atoms: C_2  and  C_3
REMARK    3  A    between atoms: C_2  and  C_13
REMARK    4  A    between atoms: C_2  and  N_23
REMARK    5  A    between atoms: C_3  and  O_4
REMARK    6  A    between atoms: O_4  and  C_5
REMARK    7  A    between atoms: C_5  and  C_7
REMARK    8  A    between atoms: C_13  and  O_14
REMARK    9  A    between atoms: O_14  and  C_15
REMARK   10  A    between atoms: C_15  and  C_17
REMARK   11  A    between atoms: C_25  and  C_26
REMARK                            x       y       z     vdW  Elec       q    Type
REMARK                         _______ _______ _______ _____ _____    ______ ____
ROOT
ATOM      1  C   UNL     1       7.542   5.360  18.885  0.00  0.00    +0.000 C 
ATOM      2  C   UNL     1       6.237   5.260  18.076  0.00  0.00    +0.000 C 
ENDROOT
BRANCH   2   3
ATOM      3  N   UNL     1       6.534   5.277  16.592  0.00  0.00    +0.000 N 
ATOM      4  O   UNL     1       7.271   6.231  16.165  0.00  0.00    +0.000 OA
ATOM      5  C   UNL     1       6.053   4.398  15.733  0.00  0.00    +0.000 C 
BRANCH   5   6
ATOM      6  C   UNL     1       6.440   4.352  14.312  0.00  0.00    +0.000 A 
ATOM      7  C   UNL     1       5.767   3.550  13.386  0.00  0.00    +0.000 A 
ATOM      8  C   UNL     1       6.163   3.537  12.051  0.00  0.00    +0.000 A 
ATOM      9  C   UNL     1       7.217   4.346  11.632  0.00  0.00    +0.000 A 
ATOM     10  C   UNL     1       7.864   5.179  12.546  0.00  0.00    +0.000 A 
ATOM     11  C   UNL     1       7.471   5.192  13.886  0.00  0.00    +0.000 A 
ENDBRANCH   5   6
ENDBRANCH   2   3
BRANCH   2  12
ATOM     12  C   UNL     1       5.520   3.940  18.371  0.00  0.00    +0.000 C 
BRANCH  12  13
ATOM     13  O   UNL     1       5.376   3.694  19.783  0.00  0.00    +0.000 OA
BRANCH  13  14
ATOM     14  C   UNL     1       4.680   2.576  20.112  0.00  0.00    +0.000 C 
ATOM     15  O   UNL     1       5.176   1.541  20.543  0.00  0.00    +0.000 OA
BRANCH  14  16
ATOM     16  C   UNL     1       3.217   2.729  19.900  0.00  0.00    +0.000 A 
ATOM     17  C   UNL     1       2.539   3.643  20.721  0.00  0.00    +0.000 A 
ATOM     18  C   UNL     1       1.158   3.810  20.607  0.00  0.00    +0.000 A 
ATOM     19  C   UNL     1       0.446   3.068  19.671  0.00  0.00    +0.000 A 
ATOM     20  C   UNL     1       1.112   2.166  18.840  0.00  0.00    +0.000 A 
ATOM     21  C   UNL     1       2.498   1.995  18.950  0.00  0.00    +0.000 A 
ENDBRANCH  14  16
ENDBRANCH  13  14
ENDBRANCH  12  13
ENDBRANCH   2  12
BRANCH   2  22
ATOM     22  C   UNL     1       5.357   6.496  18.370  0.00  0.00    +0.000 C 
BRANCH  22  23
ATOM     23  O   UNL     1       4.318   6.564  17.369  0.00  0.00    +0.000 OA
BRANCH  23  24
ATOM     24  C   UNL     1       3.081   6.182  17.778  0.00  0.00    +0.000 C 
ATOM     25  O   UNL     1       2.559   5.099  17.570  0.00  0.00    +0.000 OA
BRANCH  24  26
ATOM     26  C   UNL     1       2.396   7.314  18.465  0.00  0.00    +0.000 A 
ATOM     27  C   UNL     1       2.112   8.466  17.719  0.00  0.00    +0.000 A 
ATOM     28  C   UNL     1       1.520   9.574  18.329  0.00  0.00    +0.000 A 
ATOM     29  C   UNL     1       1.214   9.542  19.688  0.00  0.00    +0.000 A 
ATOM     30  C   UNL     1       1.495   8.402  20.440  0.00  0.00    +0.000 A 
ATOM     31  C   UNL     1       2.083   7.289  19.832  0.00  0.00    +0.000 A 
ENDBRANCH  24  26
ENDBRANCH  23  24
ENDBRANCH  22  23
ENDBRANCH   2  22
TORSDOF 10
ENDMDL
MODEL 5
REMARK VINA RESULT:      -8.3      1.641      6.988
REMARK  Name = 
REMARK  11 active torsions:
REMARK  status: ('A' for Active; 'I' for Inactive)
REMARK    1  A    between atoms: C_1  and  C_2
REMARK    2  A    between atoms: C_2  and  C_3
REMARK    3  A    between atoms: C_2  and  C_13
REMARK    4  A    between atoms: C_2  and  N_23
REMARK    5  A    between atoms: C_3  and  O_4
REMARK    6  A    between atoms: O_4  and  C_5
REMARK    7  A    between atoms: C_5  and  C_7
REMARK    8  A    between atoms: C_13  and  O_14
REMARK    9  A    between atoms: O_14  and  C_15
REMARK   10  A    between atoms: C_15  and  C_17
REMARK   11  A    between atoms: C_25  and  C_26
REMARK                            x       y       z     vdW  Elec       q    Type
REMARK                         _______ _______ _______ _____ _____    ______ ____
ROOT
ATOM      1  C   UNL     1       6.953   4.575  17.851  0.00  0.00    +0.000 C 
ATOM      2  C   UNL     1       5.712   5.061  17.081  0.00  0.00    +0.000 C 
ENDROOT
BRANCH   2   3
ATOM      3  N   UNL     1       4.764   5.784  18.014  0.00  0.00    +0.000 N 
ATOM      4  O   UNL     1       5.058   5.767  19.258  0.00  0.00    +0.000 OA
ATOM      5  C   UNL     1       3.657   6.385  17.620  0.00  0.00    +0.000 C 
BRANCH   5   6
ATOM      6  C   UNL     1       2.802   7.184  18.514  0.00  0.00    +0.000 A 
ATOM      7  C   UNL     1       2.327   8.448  18.153  0.00  0.00    +0.000 A 
ATOM      8  C   UNL     1       1.519   9.171  19.027  0.00  0.00    +0.000 A 
ATOM      9  C   UNL     1       1.161   8.620  20.257  0.00  0.00    +0.000 A 
ATOM     10  C   UNL     1       1.600   7.342  20.603  0.00  0.00    +0.000 A 
ATOM     11  C   UNL     1       2.413   6.616  19.729  0.00  0.00    +0.000 A 
ENDBRANCH   5   6
ENDBRANCH   2   3
BRANCH   2  12
ATOM     12  C   UNL     1       6.111   6.059  15.991  0.00  0.00    +0.000 C 
BRANCH  12  13
ATOM     13  O   UNL     1       5.779   5.593  14.670  0.00  0.00    +0.000 OA
BRANCH  13  14
ATOM     14  C   UNL     1       6.812   5.073  13.958  0.00  0.00    +0.000 C 
ATOM     15  O   UNL     1       7.986   5.404  14.081  0.00  0.00    +0.000 OA
BRANCH  14  16
ATOM     16  C   UNL     1       6.376   4.031  12.993  0.00  0.00    +0.000 A 
ATOM     17  C   UNL     1       7.378   3.323  12.312  0.00  0.00    +0.000 A 
ATOM     18  C   UNL     1       7.043   2.357  11.361  0.00  0.00    +0.000 A 
ATOM     19  C   UNL     1       5.706   2.090  11.087  0.00  0.00    +0.000 A 
ATOM     20  C   UNL     1       4.701   2.779  11.769  0.00  0.00    +0.000 A 
ATOM     21  C   UNL     1       5.032   3.748  12.724  0.00  0.00    +0.000 A 
ENDBRANCH  14  16
ENDBRANCH  13  14
ENDBRANCH  12  13
ENDBRANCH   2  12
BRANCH   2  22
ATOM     22  C   UNL     1       4.946   3.840  16.523  0.00  0.00    +0.000 C 
BRANCH  22  23
ATOM     23  O   UNL     1       4.392   3.104  17.635  0.00  0.00    +0.000 OA
BRANCH  23  24
ATOM     24  C   UNL     1       3.041   2.967  17.637  0.00  0.00    +0.000 C 
ATOM     25  O   UNL     1       2.320   2.954  16.652  0.00  0.00    +0.000 OA
BRANCH  24  26
ATOM     26  C   UNL     1       2.534   2.908  19.036  0.00  0.00    +0.000 A 
ATOM     27  C   UNL     1       1.173   3.166  19.258  0.00  0.00    +0.000 A 
ATOM     28  C   UNL     1       0.659   3.177  20.556  0.00  0.00    +0.000 A 
ATOM     29  C   UNL     1       1.499   2.936  21.642  0.00  0.00    +0.000 A 
ATOM     30  C   UNL     1       2.854   2.683  21.433  0.00  0.00    +0.000 A 
ATOM     31  C   UNL     1       3.372   2.667  20.135  0.00  0.00    +0.000 A 
ENDBRANCH  24  26
ENDBRANCH  23  24
ENDBRANCH  22  23
ENDBRANCH   2  22
TORSDOF 10
ENDMDL
MODEL 6
REMARK VINA RESULT:      -8.3      0.270      1.257
REMARK  Name = 
REMARK  11 active torsions:
REMARK  status: ('A' for Active; 'I' for Inactive)
REMARK    1  A    between atoms: C_1  and  C_2
REMARK    2  A    between atoms: C_2  and  C_3
REMARK    3  A    between atoms: C_2  and  C_13
REMARK    4  A    between atoms: C_2  and  N_23
REMARK    5  A    between atoms: C_3  and  O_4
REMARK    6  A    between atoms: O_4  and  C_5
REMARK    7  A    between atoms: C_5  and  C_7
REMARK    8  A    between atoms: C_13  and  O_14
REMARK    9  A    between atoms: O_14  and  C_15
REMARK   10  A    between atoms: C_15  and  C_17
REMARK   11  A    between atoms: C_25  and  C_26
REMARK                            x       y       z     vdW  Elec       q    Type
REMARK                         _______ _______ _______ _____ _____    ______ ____
ROOT
ATOM      1  C   UNL     1       6.016   6.278  18.405  0.00  0.00    +0.000 C 
ATOM      2  C   UNL     1       5.179   5.244  17.631  0.00  0.00    +0.000 C 
ENDROOT
BRANCH   2   3
ATOM      3  N   UNL     1       5.554   5.253  16.165  0.00  0.00    +0.000 N 
ATOM      4  O   UNL     1       5.513   6.384  15.569  0.00  0.00    +0.000 OA
ATOM      5  C   UNL     1       5.877   4.174  15.478  0.00  0.00    +0.000 C 
BRANCH   5   6
ATOM      6  C   UNL     1       6.352   4.206  14.085  0.00  0.00    +0.000 A 
ATOM      7  C   UNL     1       5.780   3.411  13.087  0.00  0.00    +0.000 A 
ATOM      8  C   UNL     1       6.258   3.473  11.780  0.00  0.00    +0.000 A 
ATOM      9  C   UNL     1       7.292   4.351  11.461  0.00  0.00    +0.000 A 
ATOM     10  C   UNL     1       7.836   5.177  12.445  0.00  0.00    +0.000 A 
ATOM     11  C   UNL     1       7.361   5.115  13.757  0.00  0.00    +0.000 A 
ENDBRANCH   5   6
ENDBRANCH   2   3
BRANCH   2  12
ATOM     12  C   UNL     1       5.456   3.831  18.152  0.00  0.00    +0.000 C 
BRANCH  12  13
ATOM     13  O   UNL     1       5.313   3.732  19.581  0.00  0.00    +0.000 OA
BRANCH  13  14
ATOM     14  C   UNL     1       4.602   2.663  20.024  0.00  0.00    +0.000 C 
ATOM     15  O   UNL     1       5.087   1.653  20.521  0.00  0.00    +0.000 OA
BRANCH  14  16
ATOM     16  C   UNL     1       3.136   2.839  19.849  0.00  0.00    +0.000 A 
ATOM     17  C   UNL     1       2.517   3.860  20.587  0.00  0.00    +0.000 A 
ATOM     18  C   UNL     1       1.137   4.057  20.504  0.00  0.00    +0.000 A 
ATOM     19  C   UNL     1       0.369   3.240  19.682  0.00  0.00    +0.000 A 
ATOM     20  C   UNL     1       0.977   2.232  18.933  0.00  0.00    +0.000 A 
ATOM     21  C   UNL     1       2.360   2.029  19.012  0.00  0.00    +0.000 A 
ENDBRANCH  14  16
ENDBRANCH  13  14
ENDBRANCH  12  13
ENDBRANCH   2  12
BRANCH   2  22
ATOM     22  C   UNL     1       3.685   5.629  17.714  0.00  0.00    +0.000 C 
BRANCH  22  23
ATOM     23  O   UNL     1       3.561   6.789  18.566  0.00  0.00    +0.000 OA
BRANCH  23  24
ATOM     24  C   UNL     1       2.821   7.811  18.066  0.00  0.00    +0.000 C 
ATOM     25  O   UNL     1       2.900   8.269  16.938  0.00  0.00    +0.000 OA
BRANCH  24  26
ATOM     26  C   UNL     1       1.928   8.364  19.124  0.00  0.00    +0.000 A 
ATOM     27  C   UNL     1       1.838   7.673  20.341  0.00  0.00    +0.000 A 
ATOM     28  C   UNL     1       0.975   8.119  21.344  0.00  0.00    +0.000 A 
ATOM     29  C   UNL     1       0.193   9.254  21.137  0.00  0.00    +0.000 A 
ATOM     30  C   UNL     1       0.271   9.946  19.929  0.00  0.00    +0.000 A 
ATOM     31  C   UNL     1       1.137   9.505  18.924  0.00  0.00    +0.000 A 
ENDBRANCH  24  26
ENDBRANCH  23  24
ENDBRANCH  22  23
ENDBRANCH   2  22
TORSDOF 10
ENDMDL
MODEL 7
REMARK VINA RESULT:      -8.2      1.152      6.906
REMARK  Name = 
REMARK  11 active torsions:
REMARK  status: ('A' for Active; 'I' for Inactive)
REMARK    1  A    between atoms: C_1  and  C_2
REMARK    2  A    between atoms: C_2  and  C_3
REMARK    3  A    between atoms: C_2  and  C_13
REMARK    4  A    between atoms: C_2  and  N_23
REMARK    5  A    between atoms: C_3  and  O_4
REMARK    6  A    between atoms: O_4  and  C_5
REMARK    7  A    between atoms: C_5  and  C_7
REMARK    8  A    between atoms: C_13  and  O_14
REMARK    9  A    between atoms: O_14  and  C_15
REMARK   10  A    between atoms: C_15  and  C_17
REMARK   11  A    between atoms: C_25  and  C_26
REMARK                            x       y       z     vdW  Elec       q    Type
REMARK                         _______ _______ _______ _____ _____    ______ ____
ROOT
ATOM      1  C   UNL     1       4.035   4.685  16.982  0.00  0.00    +0.000 C 
ATOM      2  C   UNL     1       4.674   5.616  18.027  0.00  0.00    +0.000 C 
ENDROOT
BRANCH   2   3
ATOM      3  N   UNL     1       3.804   6.835  18.249  0.00  0.00    +0.000 N 
ATOM      4  O   UNL     1       4.130   7.896  17.614  0.00  0.00    +0.000 OA
ATOM      5  C   UNL     1       2.774   6.866  19.072  0.00  0.00    +0.000 C 
BRANCH   5   6
ATOM      6  C   UNL     1       1.864   8.018  19.195  0.00  0.00    +0.000 A 
ATOM      7  C   UNL     1       1.406   8.724  18.079  0.00  0.00    +0.000 A 
ATOM      8  C   UNL     1       0.545   9.807  18.239  0.00  0.00    +0.000 A 
ATOM      9  C   UNL     1       0.117  10.171  19.514  0.00  0.00    +0.000 A 
ATOM     10  C   UNL     1       0.539   9.442  20.626  0.00  0.00    +0.000 A 
ATOM     11  C   UNL     1       1.405   8.357  20.470  0.00  0.00    +0.000 A 
ENDBRANCH   5   6
ENDBRANCH   2   3
BRANCH   2  12
ATOM     12  C   UNL     1       4.798   4.906  19.377  0.00  0.00    +0.000 C 
BRANCH  12  13
ATOM     13  O   UNL     1       5.293   3.560  19.249  0.00  0.00    +0.000 OA
BRANCH  13  14
ATOM     14  C   UNL     1       4.618   2.621  19.961  0.00  0.00    +0.000 C 
ATOM     15  O   UNL     1       5.140   1.758  20.657  0.00  0.00    +0.000 OA
BRANCH  14  16
ATOM     16  C   UNL     1       3.143   2.744  19.818  0.00  0.00    +0.000 A 
ATOM     17  C   UNL     1       2.464   3.509  20.778  0.00  0.00    +0.000 A 
ATOM     18  C   UNL     1       1.075   3.636  20.731  0.00  0.00    +0.000 A 
ATOM     19  C   UNL     1       0.356   3.003  19.723  0.00  0.00    +0.000 A 
ATOM     20  C   UNL     1       1.023   2.251  18.755  0.00  0.00    +0.000 A 
ATOM     21  C   UNL     1       2.416   2.120  18.797  0.00  0.00    +0.000 A 
ENDBRANCH  14  16
ENDBRANCH  13  14
ENDBRANCH  12  13
ENDBRANCH   2  12
BRANCH   2  22
ATOM     22  C   UNL     1       6.032   6.127  17.493  0.00  0.00    +0.000 C 
BRANCH  22  23
ATOM     23  O   UNL     1       6.100   5.844  16.078  0.00  0.00    +0.000 OA
BRANCH  23  24
ATOM     24  C   UNL     1       7.047   4.947  15.702  0.00  0.00    +0.000 C 
ATOM     25  O   UNL     1       7.934   4.500  16.410  0.00  0.00    +0.000 OA
BRANCH  24  26
ATOM     26  C   UNL     1       6.903   4.628  14.253  0.00  0.00    +0.000 A 
ATOM     27  C   UNL     1       5.929   3.693  13.875  0.00  0.00    +0.000 A 
ATOM     28  C   UNL     1       5.791   3.319  12.536  0.00  0.00    +0.000 A 
ATOM     29  C   UNL     1       6.628   3.871  11.568  0.00  0.00    +0.000 A 
ATOM     30  C   UNL     1       7.603   4.798  11.933  0.00  0.00    +0.000 A 
ATOM     31  C   UNL     1       7.741   5.179  13.272  0.00  0.00    +0.000 A 
ENDBRANCH  24  26
ENDBRANCH  23  24
ENDBRANCH  22  23
ENDBRANCH   2  22
TORSDOF 10
ENDMDL
MODEL 8
REMARK VINA RESULT:      -8.1      1.191      6.861
REMARK  Name = 
REMARK  11 active torsions:
REMARK  status: ('A' for Active; 'I' for Inactive)
REMARK    1  A    between atoms: C_1  and  C_2
REMARK    2  A    between atoms: C_2  and  C_3
REMARK    3  A    between atoms: C_2  and  C_13
REMARK    4  A    between atoms: C_2  and  N_23
REMARK    5  A    between atoms: C_3  and  O_4
REMARK    6  A    between atoms: O_4  and  C_5
REMARK    7  A    between atoms: C_5  and  C_7
REMARK    8  A    between atoms: C_13  and  O_14
REMARK    9  A    between atoms: O_14  and  C_15
REMARK   10  A    between atoms: C_15  and  C_17
REMARK   11  A    between atoms: C_25  and  C_26
REMARK                            x       y       z     vdW  Elec       q    Type
REMARK                         _______ _______ _______ _____ _____    ______ ____
ROOT
ATOM      1  C   UNL     1       4.146   4.394  16.966  0.00  0.00    +0.000 C 
ATOM      2  C   UNL     1       4.916   5.206  18.023  0.00  0.00    +0.000 C 
ENDROOT
BRANCH   2   3
ATOM      3  N   UNL     1       3.963   6.069  18.822  0.00  0.00    +0.000 N 
ATOM      4  O   UNL     1       4.092   6.040  20.094  0.00  0.00    +0.000 OA
ATOM      5  C   UNL     1       3.007   6.803  18.286  0.00  0.00    +0.000 C 
BRANCH   5   6
ATOM      6  C   UNL     1       2.160   7.728  19.059  0.00  0.00    +0.000 A 
ATOM      7  C   UNL     1       1.696   8.932  18.523  0.00  0.00    +0.000 A 
ATOM      8  C   UNL     1       0.896   9.779  19.287  0.00  0.00    +0.000 A 
ATOM      9  C   UNL     1       0.536   9.411  20.582  0.00  0.00    +0.000 A 
ATOM     10  C   UNL     1       0.964   8.190  21.105  0.00  0.00    +0.000 A 
ATOM     11  C   UNL     1       1.768   7.341  20.342  0.00  0.00    +0.000 A 
ENDBRANCH   5   6
ENDBRANCH   2   3
BRANCH   2  12
ATOM     12  C   UNL     1       5.612   4.273  19.017  0.00  0.00    +0.000 C 
BRANCH  12  13
ATOM     13  O   UNL     1       5.156   2.912  18.908  0.00  0.00    +0.000 OA
BRANCH  13  14
ATOM     14  C   UNL     1       4.514   2.423  20.000  0.00  0.00    +0.000 C 
ATOM     15  O   UNL     1       5.057   1.839  20.931  0.00  0.00    +0.000 OA
BRANCH  14  16
ATOM     16  C   UNL     1       3.049   2.673  19.963  0.00  0.00    +0.000 A 
ATOM     17  C   UNL     1       2.315   2.056  18.938  0.00  0.00    +0.000 A 
ATOM     18  C   UNL     1       0.943   2.278  18.817  0.00  0.00    +0.000 A 
ATOM     19  C   UNL     1       0.294   3.115  19.718  0.00  0.00    +0.000 A 
ATOM     20  C   UNL     1       1.012   3.723  20.749  0.00  0.00    +0.000 A 
ATOM     21  C   UNL     1       2.390   3.504  20.876  0.00  0.00    +0.000 A 
ENDBRANCH  14  16
ENDBRANCH  13  14
ENDBRANCH  12  13
ENDBRANCH   2  12
BRANCH   2  22
ATOM     22  C   UNL     1       5.899   6.164  17.313  0.00  0.00    +0.000 C 
BRANCH  22  23
ATOM     23  O   UNL     1       5.958   5.804  15.916  0.00  0.00    +0.000 OA
BRANCH  23  24
ATOM     24  C   UNL     1       6.972   4.974  15.563  0.00  0.00    +0.000 C 
ATOM     25  O   UNL     1       7.882   4.605  16.287  0.00  0.00    +0.000 OA
BRANCH  24  26
ATOM     26  C   UNL     1       6.869   4.624  14.118  0.00  0.00    +0.000 A 
ATOM     27  C   UNL     1       5.911   3.675  13.734  0.00  0.00    +0.000 A 
ATOM     28  C   UNL     1       5.811   3.272  12.401  0.00  0.00    +0.000 A 
ATOM     29  C   UNL     1       6.669   3.809  11.443  0.00  0.00    +0.000 A 
ATOM     30  C   UNL     1       7.628   4.750  11.815  0.00  0.00    +0.000 A 
ATOM     31  C   UNL     1       7.728   5.160  13.148  0.00  0.00    +0.000 A 
ENDBRANCH  24  26
ENDBRANCH  23  24
ENDBRANCH  22  23
ENDBRANCH   2  22
TORSDOF 10
ENDMDL
MODEL 9
REMARK VINA RESULT:      -8.0      1.669      6.959
REMARK  Name = 
REMARK  11 active torsions:
REMARK  status: ('A' for Active; 'I' for Inactive)
REMARK    1  A    between atoms: C_1  and  C_2
REMARK    2  A    between atoms: C_2  and  C_3
REMARK    3  A    between atoms: C_2  and  C_13
REMARK    4  A    between atoms: C_2  and  N_23
REMARK    5  A    between atoms: C_3  and  O_4
REMARK    6  A    between atoms: O_4  and  C_5
REMARK    7  A    between atoms: C_5  and  C_7
REMARK    8  A    between atoms: C_13  and  O_14
REMARK    9  A    between atoms: O_14  and  C_15
REMARK   10  A    between atoms: C_15  and  C_17
REMARK   11  A    between atoms: C_25  and  C_26
REMARK                            x       y       z     vdW  Elec       q    Type
REMARK                         _______ _______ _______ _____ _____    ______ ____
ROOT
ATOM      1  C   UNL     1       6.415   4.385  18.200  0.00  0.00    +0.000 C 
ATOM      2  C   UNL     1       5.661   5.071  17.048  0.00  0.00    +0.000 C 
ENDROOT
BRANCH   2   3
ATOM      3  N   UNL     1       4.830   6.222  17.574  0.00  0.00    +0.000 N 
ATOM      4  O   UNL     1       5.384   7.375  17.579  0.00  0.00    +0.000 OA
ATOM      5  C   UNL     1       3.606   6.092  18.049  0.00  0.00    +0.000 C 
BRANCH   5   6
ATOM      6  C   UNL     1       2.763   7.231  18.450  0.00  0.00    +0.000 A 
ATOM      7  C   UNL     1       2.253   7.357  19.745  0.00  0.00    +0.000 A 
ATOM      8  C   UNL     1       1.460   8.452  20.084  0.00  0.00    +0.000 A 
ATOM      9  C   UNL     1       1.196   9.437  19.135  0.00  0.00    +0.000 A 
ATOM     10  C   UNL     1       1.738   9.335  17.853  0.00  0.00    +0.000 A 
ATOM     11  C   UNL     1       2.531   8.238  17.510  0.00  0.00    +0.000 A 
ENDBRANCH   5   6
ENDBRANCH   2   3
BRANCH   2  12
ATOM     12  C   UNL     1       6.645   5.659  16.035  0.00  0.00    +0.000 C 
BRANCH  12  13
ATOM     13  O   UNL     1       6.170   5.555  14.679  0.00  0.00    +0.000 OA
BRANCH  13  14
ATOM     14  C   UNL     1       7.091   5.150  13.768  0.00  0.00    +0.000 C 
ATOM     15  O   UNL     1       8.236   5.582  13.686  0.00  0.00    +0.000 OA
BRANCH  14  16
ATOM     16  C   UNL     1       6.570   4.098  12.856  0.00  0.00    +0.000 A 
ATOM     17  C   UNL     1       5.177   3.957  12.764  0.00  0.00    +0.000 A 
ATOM     18  C   UNL     1       4.616   2.964  11.959  0.00  0.00    +0.000 A 
ATOM     19  C   UNL     1       5.443   2.109  11.238  0.00  0.00    +0.000 A 
ATOM     20  C   UNL     1       6.829   2.250  11.311  0.00  0.00    +0.000 A 
ATOM     21  C   UNL     1       7.397   3.244  12.118  0.00  0.00    +0.000 A 
ENDBRANCH  14  16
ENDBRANCH  13  14
ENDBRANCH  12  13
ENDBRANCH   2  12
BRANCH   2  22
ATOM     22  C   UNL     1       4.677   4.064  16.410  0.00  0.00    +0.000 C 
BRANCH  22  23
ATOM     23  O   UNL     1       4.260   3.128  17.428  0.00  0.00    +0.000 OA
BRANCH  23  24
ATOM     24  C   UNL     1       2.920   2.955  17.557  0.00  0.00    +0.000 C 
ATOM     25  O   UNL     1       2.109   2.933  16.646  0.00  0.00    +0.000 OA
BRANCH  24  26
ATOM     26  C   UNL     1       2.550   2.868  18.998  0.00  0.00    +0.000 A 
ATOM     27  C   UNL     1       1.211   3.084  19.351  0.00  0.00    +0.000 A 
ATOM     28  C   UNL     1       0.823   3.067  20.693  0.00  0.00    +0.000 A 
ATOM     29  C   UNL     1       1.770   2.841  21.690  0.00  0.00    +0.000 A 
ATOM     30  C   UNL     1       3.105   2.629  21.350  0.00  0.00    +0.000 A 
ATOM     31  C   UNL     1       3.497   2.640  20.008  0.00  0.00    +0.000 A 
ENDBRANCH  24  26
ENDBRANCH  23  24
ENDBRANCH  22  23
ENDBRANCH   2  22
TORSDOF 10
ENDMDL
