MODEL 1
REMARK VINA RESULT:      -7.3      0.000      0.000
REMARK  Name = 
REMARK  6 active torsions:
REMARK  status: ('A' for Active; 'I' for Inactive)
REMARK    1  A    between atoms: C_1  and  C_2
REMARK    2  A    between atoms: N_4  and  C_5
REMARK    3  A    between atoms: C_8  and  S_9
REMARK    4  A    between atoms: S_9  and  N_12
REMARK    5  A    between atoms: C_15  and  O_16
REMARK    6  A    between atoms: O_16  and  C_17
REMARK                            x       y       z     vdW  Elec       q    Type
REMARK                         _______ _______ _______ _____ _____    ______ ____
ROOT
ATOM      1  N   UNL     1       3.910   5.297  18.895  0.00  0.00    +0.000 NA
ATOM      2  C   UNL     1       3.183   5.124  20.167  0.00  0.00    +0.000 C 
ATOM      3  C   UNL     1       1.712   5.470  20.008  0.00  0.00    +0.000 C 
ATOM      4  C   UNL     1       1.527   6.899  19.505  0.00  0.00    +0.000 C 
ATOM      5  C   UNL     1       2.222   7.009  18.148  0.00  0.00    +0.000 C 
ATOM      6  C   UNL     1       3.685   6.576  18.176  0.00  0.00    +0.000 C 
ENDROOT
BRANCH   1   7
ATOM      7  S   UNL     1       5.548   4.788  18.928  0.00  0.00    +0.000 S 
ATOM      8  O   UNL     1       5.550   3.342  19.053  0.00  0.00    +0.000 OA
ATOM      9  O   UNL     1       6.274   5.610  19.879  0.00  0.00    +0.000 OA
BRANCH   7  17
ATOM     10  C   UNL     1       7.783   7.199  17.975  0.00  0.00    +0.000 C 
ATOM     11  C   UNL     1       7.229   6.127  17.110  0.00  0.00    +0.000 A 
ATOM     12  N   UNL     1       7.627   6.072  15.829  0.00  0.00    +0.000 NA
ATOM     13  N   UNL     1       6.940   5.034  15.307  0.00  0.00    +0.000 N 
ATOM     14  C   UNL     1       7.098   4.737  13.904  0.00  0.00    +0.000 C 
ATOM     15  C   UNL     1       6.162   4.401  16.233  0.00  0.00    +0.000 A 
ATOM     16 CL   UNL     1       5.244   3.043  15.781  0.00  0.00    +0.000 Cl
ATOM     17  C   UNL     1       6.305   5.083  17.415  0.00  0.00    +0.000 A 
ENDBRANCH   7  17
ENDBRANCH   1   7
BRANCH   4  18
ATOM     18  O   UNL     1       2.094   7.868  20.404  0.00  0.00    +0.000 OA
BRANCH  18  19
ATOM     19  C   UNL     1       1.242   8.812  20.917  0.00  0.00    +0.000 A 
ATOM     20  C   UNL     1       0.574   9.785  20.169  0.00  0.00    +0.000 A 
ATOM     21  C   UNL     1      -0.298  10.687  20.786  0.00  0.00    +0.000 A 
ATOM     22  C   UNL     1      -0.494  10.628  22.161  0.00  0.00    +0.000 A 
ATOM     23 CL   UNL     1      -1.548  11.757  22.915  0.00  0.00    +0.000 Cl
ATOM     24  C   UNL     1       0.160   9.663  22.921  0.00  0.00    +0.000 A 
ATOM     25  C   UNL     1       1.018   8.749  22.297  0.00  0.00    +0.000 A 
ENDBRANCH  18  19
ENDBRANCH   4  18
TORSDOF 4
ENDMDL
MODEL 2
REMARK VINA RESULT:      -6.6      2.716      3.983
REMARK  Name = 
REMARK  6 active torsions:
REMARK  status: ('A' for Active; 'I' for Inactive)
REMARK    1  A    between atoms: C_1  and  C_2
REMARK    2  A    between atoms: N_4  and  C_5
REMARK    3  A    between atoms: C_8  and  S_9
REMARK    4  A    between atoms: S_9  and  N_12
REMARK    5  A    between atoms: C_15  and  O_16
REMARK    6  A    between atoms: O_16  and  C_17
REMARK                            x       y       z     vdW  Elec       q    Type
REMARK                         _______ _______ _______ _____ _____    ______ ____
ROOT
ATOM      1  N   UNL     1       2.276   7.265  19.103  0.00  0.00    +0.000 NA
ATOM      2  C   UNL     1       2.048   7.935  17.808  0.00  0.00    +0.000 C 
ATOM      3  C   UNL     1       2.164   9.443  17.945  0.00  0.00    +0.000 C 
ATOM      4  C   UNL     1       1.183   9.987  18.981  0.00  0.00    +0.000 C 
ATOM      5  C   UNL     1       1.510   9.331  20.322  0.00  0.00    +0.000 C 
ATOM      6  C   UNL     1       1.529   7.807  20.266  0.00  0.00    +0.000 C 
ENDROOT
BRANCH   1   7
ATOM      7  S   UNL     1       2.316   5.552  19.029  0.00  0.00    +0.000 S 
ATOM      8  O   UNL     1       1.662   5.156  17.795  0.00  0.00    +0.000 OA
ATOM      9  O   UNL     1       1.870   5.019  20.303  0.00  0.00    +0.000 OA
BRANCH   7  17
ATOM     10  C   UNL     1       3.823   2.683  20.133  0.00  0.00    +0.000 C 
ATOM     11  C   UNL     1       4.471   3.770  19.356  0.00  0.00    +0.000 A 
ATOM     12  N   UNL     1       5.769   3.642  19.040  0.00  0.00    +0.000 NA
ATOM     13  N   UNL     1       6.069   4.777  18.377  0.00  0.00    +0.000 N 
ATOM     14  C   UNL     1       7.430   4.985  17.942  0.00  0.00    +0.000 C 
ATOM     15  C   UNL     1       4.987   5.595  18.220  0.00  0.00    +0.000 A 
ATOM     16 CL   UNL     1       5.150   7.063  17.377  0.00  0.00    +0.000 Cl
ATOM     17  C   UNL     1       3.930   4.990  18.851  0.00  0.00    +0.000 A 
ENDBRANCH   7  17
ENDBRANCH   1   7
BRANCH   4  18
ATOM     18  O   UNL     1      -0.183   9.698  18.637  0.00  0.00    +0.000 OA
BRANCH  18  19
ATOM     19  C   UNL     1      -1.134  10.587  19.069  0.00  0.00    +0.000 A 
ATOM     20  C   UNL     1      -1.023  11.396  20.203  0.00  0.00    +0.000 A 
ATOM     21  C   UNL     1      -2.040  12.293  20.543  0.00  0.00    +0.000 A 
ATOM     22  C   UNL     1      -3.183  12.373  19.756  0.00  0.00    +0.000 A 
ATOM     23 CL   UNL     1      -4.440  13.460  20.196  0.00  0.00    +0.000 Cl
ATOM     24  C   UNL     1      -3.309  11.577  18.621  0.00  0.00    +0.000 A 
ATOM     25  C   UNL     1      -2.279  10.694  18.272  0.00  0.00    +0.000 A 
ENDBRANCH  18  19
ENDBRANCH   4  18
TORSDOF 4
ENDMDL
MODEL 3
REMARK VINA RESULT:      -6.5      3.209      6.913
REMARK  Name = 
REMARK  6 active torsions:
REMARK  status: ('A' for Active; 'I' for Inactive)
REMARK    1  A    between atoms: C_1  and  C_2
REMARK    2  A    between atoms: N_4  and  C_5
REMARK    3  A    between atoms: C_8  and  S_9
REMARK    4  A    between atoms: S_9  and  N_12
REMARK    5  A    between atoms: C_15  and  O_16
REMARK    6  A    between atoms: O_16  and  C_17
REMARK                            x       y       z     vdW  Elec       q    Type
REMARK                         _______ _______ _______ _____ _____    ______ ____
ROOT
ATOM      1  N   UNL     1       4.497   3.614  17.638  0.00  0.00    +0.000 NA
ATOM      2  C   UNL     1       4.686   4.067  16.246  0.00  0.00    +0.000 C 
ATOM      3  C   UNL     1       6.158   4.086  15.873  0.00  0.00    +0.000 C 
ATOM      4  C   UNL     1       6.961   4.981  16.814  0.00  0.00    +0.000 C 
ATOM      5  C   UNL     1       6.806   4.426  18.230  0.00  0.00    +0.000 C 
ATOM      6  C   UNL     1       5.352   4.262  18.664  0.00  0.00    +0.000 C 
ENDROOT
BRANCH   1   7
ATOM      7  S   UNL     1       2.861   3.412  18.112  0.00  0.00    +0.000 S 
ATOM      8  O   UNL     1       2.789   2.204  18.914  0.00  0.00    +0.000 OA
ATOM      9  O   UNL     1       2.013   3.573  16.945  0.00  0.00    +0.000 OA
BRANCH   7  17
ATOM     10  C   UNL     1       1.350   3.269  21.181  0.00  0.00    +0.000 C 
ATOM     11  C   UNL     1       1.748   4.502  20.456  0.00  0.00    +0.000 A 
ATOM     12  N   UNL     1       1.507   5.689  21.037  0.00  0.00    +0.000 NA
ATOM     13  N   UNL     1       1.942   6.598  20.140  0.00  0.00    +0.000 N 
ATOM     14  C   UNL     1       1.772   8.000  20.439  0.00  0.00    +0.000 C 
ATOM     15  C   UNL     1       2.498   6.020  19.035  0.00  0.00    +0.000 A 
ATOM     16 CL   UNL     1       3.140   6.999  17.801  0.00  0.00    +0.000 Cl
ATOM     17  C   UNL     1       2.382   4.662  19.187  0.00  0.00    +0.000 A 
ENDBRANCH   7  17
ENDBRANCH   1   7
BRANCH   4  18
ATOM     18  O   UNL     1       6.501   6.343  16.790  0.00  0.00    +0.000 OA
BRANCH  18  19
ATOM     19  C   UNL     1       7.240   7.261  17.492  0.00  0.00    +0.000 A 
ATOM     20  C   UNL     1       8.079   6.965  18.569  0.00  0.00    +0.000 A 
ATOM     21  C   UNL     1       8.813   7.972  19.200  0.00  0.00    +0.000 A 
ATOM     22  C   UNL     1       8.699   9.288  18.766  0.00  0.00    +0.000 A 
ATOM     23 CL   UNL     1       9.586  10.524  19.565  0.00  0.00    +0.000 Cl
ATOM     24  C   UNL     1       7.871   9.600  17.692  0.00  0.00    +0.000 A 
ATOM     25  C   UNL     1       7.151   8.586  17.049  0.00  0.00    +0.000 A 
ENDBRANCH  18  19
ENDBRANCH   4  18
TORSDOF 4
ENDMDL
MODEL 4
REMARK VINA RESULT:      -6.5      3.401      6.896
REMARK  Name = 
REMARK  6 active torsions:
REMARK  status: ('A' for Active; 'I' for Inactive)
REMARK    1  A    between atoms: C_1  and  C_2
REMARK    2  A    between atoms: N_4  and  C_5
REMARK    3  A    between atoms: C_8  and  S_9
REMARK    4  A    between atoms: S_9  and  N_12
REMARK    5  A    between atoms: C_15  and  O_16
REMARK    6  A    between atoms: O_16  and  C_17
REMARK                            x       y       z     vdW  Elec       q    Type
REMARK                         _______ _______ _______ _____ _____    ______ ____
ROOT
ATOM      1  N   UNL     1       5.613   4.793  18.046  0.00  0.00    +0.000 NA
ATOM      2  C   UNL     1       5.783   5.486  16.755  0.00  0.00    +0.000 C 
ATOM      3  C   UNL     1       7.240   5.844  16.514  0.00  0.00    +0.000 C 
ATOM      4  C   UNL     1       7.793   6.716  17.638  0.00  0.00    +0.000 C 
ATOM      5  C   UNL     1       7.675   5.927  18.942  0.00  0.00    +0.000 C 
ATOM      6  C   UNL     1       6.263   5.423  19.223  0.00  0.00    +0.000 C 
ENDROOT
BRANCH   1   7
ATOM      7  S   UNL     1       4.027   4.211  18.346  0.00  0.00    +0.000 S 
ATOM      8  O   UNL     1       4.143   3.097  19.270  0.00  0.00    +0.000 OA
ATOM      9  O   UNL     1       3.342   4.047  17.078  0.00  0.00    +0.000 OA
BRANCH   7  17
ATOM     10  C   UNL     1       2.191   3.939  21.222  0.00  0.00    +0.000 C 
ATOM     11  C   UNL     1       2.362   5.166  20.404  0.00  0.00    +0.000 A 
ATOM     12  N   UNL     1       1.753   6.292  20.809  0.00  0.00    +0.000 NA
ATOM     13  N   UNL     1       2.065   7.203  19.865  0.00  0.00    +0.000 N 
ATOM     14  C   UNL     1       1.508   8.530  19.973  0.00  0.00    +0.000 C 
ATOM     15  C   UNL     1       2.896   6.700  18.905  0.00  0.00    +0.000 A 
ATOM     16 CL   UNL     1       3.436   7.703  17.642  0.00  0.00    +0.000 Cl
ATOM     17  C   UNL     1       3.105   5.378  19.204  0.00  0.00    +0.000 A 
ENDBRANCH   7  17
ENDBRANCH   1   7
BRANCH   4  18
ATOM     18  O   UNL     1       7.071   7.952  17.770  0.00  0.00    +0.000 OA
BRANCH  18  19
ATOM     19  C   UNL     1       7.812   9.085  17.991  0.00  0.00    +0.000 A 
ATOM     20  C   UNL     1       7.637  10.304  17.330  0.00  0.00    +0.000 A 
ATOM     21  C   UNL     1       8.429  11.410  17.650  0.00  0.00    +0.000 A 
ATOM     22  C   UNL     1       9.413  11.298  18.626  0.00  0.00    +0.000 A 
ATOM     23 CL   UNL     1      10.399  12.656  18.995  0.00  0.00    +0.000 Cl
ATOM     24  C   UNL     1       9.599  10.093  19.296  0.00  0.00    +0.000 A 
ATOM     25  C   UNL     1       8.791   8.991  18.987  0.00  0.00    +0.000 A 
ENDBRANCH  18  19
ENDBRANCH   4  18
TORSDOF 4
ENDMDL
MODEL 5
REMARK VINA RESULT:      -6.5      6.348     10.875
REMARK  Name = 
REMARK  6 active torsions:
REMARK  status: ('A' for Active; 'I' for Inactive)
REMARK    1  A    between atoms: C_1  and  C_2
REMARK    2  A    between atoms: N_4  and  C_5
REMARK    3  A    between atoms: C_8  and  S_9
REMARK    4  A    between atoms: S_9  and  N_12
REMARK    5  A    between atoms: C_15  and  O_16
REMARK    6  A    between atoms: O_16  and  C_17
REMARK                            x       y       z     vdW  Elec       q    Type
REMARK                         _______ _______ _______ _____ _____    ______ ____
ROOT
ATOM      1  N   UNL     1      -0.712  14.106  20.899  0.00  0.00    +0.000 NA
ATOM      2  C   UNL     1       0.652  13.553  20.997  0.00  0.00    +0.000 C 
ATOM      3  C   UNL     1       1.171  13.131  19.633  0.00  0.00    +0.000 C 
ATOM      4  C   UNL     1       0.250  12.104  18.980  0.00  0.00    +0.000 C 
ATOM      5  C   UNL     1      -1.128  12.748  18.820  0.00  0.00    +0.000 C 
ATOM      6  C   UNL     1      -1.693  13.307  20.122  0.00  0.00    +0.000 C 
ENDROOT
BRANCH   1   7
ATOM      7  S   UNL     1      -1.333  14.752  22.362  0.00  0.00    +0.000 S 
ATOM      8  O   UNL     1      -1.954  16.025  22.044  0.00  0.00    +0.000 OA
ATOM      9  O   UNL     1      -0.305  14.669  23.383  0.00  0.00    +0.000 OA
BRANCH   7  17
ATOM     10  C   UNL     1      -1.453  11.430  23.178  0.00  0.00    +0.000 C 
ATOM     11  C   UNL     1      -2.579  12.394  23.261  0.00  0.00    +0.000 A 
ATOM     12  N   UNL     1      -3.769  11.949  23.696  0.00  0.00    +0.000 NA
ATOM     13  N   UNL     1      -4.577  13.027  23.631  0.00  0.00    +0.000 N 
ATOM     14  C   UNL     1      -5.968  12.870  23.982  0.00  0.00    +0.000 C 
ATOM     15  C   UNL     1      -3.921  14.150  23.217  0.00  0.00    +0.000 A 
ATOM     16 CL   UNL     1      -4.758  15.626  23.103  0.00  0.00    +0.000 Cl
ATOM     17  C   UNL     1      -2.625  13.786  22.951  0.00  0.00    +0.000 A 
ENDBRANCH   7  17
ENDBRANCH   1   7
BRANCH   4  18
ATOM     18  O   UNL     1       0.122  10.910  19.771  0.00  0.00    +0.000 OA
BRANCH  18  19
ATOM     19  C   UNL     1       0.862   9.823  19.380  0.00  0.00    +0.000 A 
ATOM     20  C   UNL     1       1.375   9.619  18.096  0.00  0.00    +0.000 A 
ATOM     21  C   UNL     1       2.143   8.488  17.806  0.00  0.00    +0.000 A 
ATOM     22  C   UNL     1       2.390   7.546  18.798  0.00  0.00    +0.000 A 
ATOM     23 CL   UNL     1       3.314   6.145  18.426  0.00  0.00    +0.000 Cl
ATOM     24  C   UNL     1       1.890   7.736  20.083  0.00  0.00    +0.000 A 
ATOM     25  C   UNL     1       1.136   8.880  20.376  0.00  0.00    +0.000 A 
ENDBRANCH  18  19
ENDBRANCH   4  18
TORSDOF 4
ENDMDL
MODEL 6
REMARK VINA RESULT:      -6.4      7.162     12.165
REMARK  Name = 
REMARK  6 active torsions:
REMARK  status: ('A' for Active; 'I' for Inactive)
REMARK    1  A    between atoms: C_1  and  C_2
REMARK    2  A    between atoms: N_4  and  C_5
REMARK    3  A    between atoms: C_8  and  S_9
REMARK    4  A    between atoms: S_9  and  N_12
REMARK    5  A    between atoms: C_15  and  O_16
REMARK    6  A    between atoms: O_16  and  C_17
REMARK                            x       y       z     vdW  Elec       q    Type
REMARK                         _______ _______ _______ _____ _____    ______ ____
ROOT
ATOM      1  N   UNL     1      -2.891  12.854  22.194  0.00  0.00    +0.000 NA
ATOM      2  C   UNL     1      -1.774  12.179  22.880  0.00  0.00    +0.000 C 
ATOM      3  C   UNL     1      -0.454  12.456  22.181  0.00  0.00    +0.000 C 
ATOM      4  C   UNL     1      -0.495  12.018  20.719  0.00  0.00    +0.000 C 
ATOM      5  C   UNL     1      -1.609  12.803  20.027  0.00  0.00    +0.000 C 
ATOM      6  C   UNL     1      -2.962  12.680  20.721  0.00  0.00    +0.000 C 
ENDROOT
BRANCH   1   7
ATOM      7  S   UNL     1      -4.406  12.730  22.990  0.00  0.00    +0.000 S 
ATOM      8  O   UNL     1      -4.194  11.964  24.205  0.00  0.00    +0.000 OA
ATOM      9  O   UNL     1      -5.408  12.318  22.025  0.00  0.00    +0.000 OA
BRANCH   7  17
ATOM     10  C   UNL     1      -7.551  13.958  23.554  0.00  0.00    +0.000 C 
ATOM     11  C   UNL     1      -6.275  14.693  23.747  0.00  0.00    +0.000 A 
ATOM     12  N   UNL     1      -6.329  15.961  24.186  0.00  0.00    +0.000 NA
ATOM     13  N   UNL     1      -5.041  16.359  24.230  0.00  0.00    +0.000 N 
ATOM     14  C   UNL     1      -4.750  17.720  24.613  0.00  0.00    +0.000 C 
ATOM     15  C   UNL     1      -4.173  15.364  23.881  0.00  0.00    +0.000 A 
ATOM     16 CL   UNL     1      -2.498  15.656  23.907  0.00  0.00    +0.000 Cl
ATOM     17  C   UNL     1      -4.927  14.269  23.546  0.00  0.00    +0.000 A 
ENDBRANCH   7  17
ENDBRANCH   1   7
BRANCH   4  18
ATOM     18  O   UNL     1      -0.758  10.610  20.583  0.00  0.00    +0.000 OA
BRANCH  18  19
ATOM     19  C   UNL     1       0.159   9.872  19.878  0.00  0.00    +0.000 A 
ATOM     20  C   UNL     1       0.461  10.045  18.524  0.00  0.00    +0.000 A 
ATOM     21  C   UNL     1       1.435   9.257  17.904  0.00  0.00    +0.000 A 
ATOM     22  C   UNL     1       2.102   8.280  18.634  0.00  0.00    +0.000 A 
ATOM     23 CL   UNL     1       3.280   7.299  17.857  0.00  0.00    +0.000 Cl
ATOM     24  C   UNL     1       1.816   8.097  19.983  0.00  0.00    +0.000 A 
ATOM     25  C   UNL     1       0.854   8.901  20.607  0.00  0.00    +0.000 A 
ENDBRANCH  18  19
ENDBRANCH   4  18
TORSDOF 4
ENDMDL
MODEL 7
REMARK VINA RESULT:      -6.4      3.202      6.817
REMARK  Name = 
REMARK  6 active torsions:
REMARK  status: ('A' for Active; 'I' for Inactive)
REMARK    1  A    between atoms: C_1  and  C_2
REMARK    2  A    between atoms: N_4  and  C_5
REMARK    3  A    between atoms: C_8  and  S_9
REMARK    4  A    between atoms: S_9  and  N_12
REMARK    5  A    between atoms: C_15  and  O_16
REMARK    6  A    between atoms: O_16  and  C_17
REMARK                            x       y       z     vdW  Elec       q    Type
REMARK                         _______ _______ _______ _____ _____    ______ ____
ROOT
ATOM      1  N   UNL     1       4.931   3.835  17.260  0.00  0.00    +0.000 NA
ATOM      2  C   UNL     1       4.859   4.631  16.020  0.00  0.00    +0.000 C 
ATOM      3  C   UNL     1       6.248   4.964  15.503  0.00  0.00    +0.000 C 
ATOM      4  C   UNL     1       7.066   5.719  16.547  0.00  0.00    +0.000 C 
ATOM      5  C   UNL     1       7.187   4.824  17.781  0.00  0.00    +0.000 C 
ATOM      6  C   UNL     1       5.843   4.341  18.316  0.00  0.00    +0.000 C 
ENDROOT
BRANCH   1   7
ATOM      7  S   UNL     1       3.418   3.278  17.846  0.00  0.00    +0.000 S 
ATOM      8  O   UNL     1       3.666   2.061  18.597  0.00  0.00    +0.000 OA
ATOM      9  O   UNL     1       2.462   3.288  16.753  0.00  0.00    +0.000 OA
BRANCH   7  17
ATOM     10  C   UNL     1       1.910   2.702  20.865  0.00  0.00    +0.000 C 
ATOM     11  C   UNL     1       2.158   4.030  20.248  0.00  0.00    +0.000 A 
ATOM     12  N   UNL     1       1.766   5.127  20.916  0.00  0.00    +0.000 NA
ATOM     13  N   UNL     1       2.093   6.152  20.103  0.00  0.00    +0.000 N 
ATOM     14  C   UNL     1       1.747   7.494  20.508  0.00  0.00    +0.000 C 
ATOM     15  C   UNL     1       2.725   5.739  18.965  0.00  0.00    +0.000 A 
ATOM     16 CL   UNL     1       3.252   6.885  17.825  0.00  0.00    +0.000 Cl
ATOM     17  C   UNL     1       2.778   4.369  19.008  0.00  0.00    +0.000 A 
ENDBRANCH   7  17
ENDBRANCH   1   7
BRANCH   4  18
ATOM     18  O   UNL     1       6.448   6.961  16.925  0.00  0.00    +0.000 OA
BRANCH  18  19
ATOM     19  C   UNL     1       7.255   7.904  17.510  0.00  0.00    +0.000 A 
ATOM     20  C   UNL     1       7.233   9.271  17.221  0.00  0.00    +0.000 A 
ATOM     21  C   UNL     1       8.079  10.156  17.896  0.00  0.00    +0.000 A 
ATOM     22  C   UNL     1       8.963   9.674  18.854  0.00  0.00    +0.000 A 
ATOM     23 CL   UNL     1      10.018  10.766  19.660  0.00  0.00    +0.000 Cl
ATOM     24  C   UNL     1       8.995   8.316  19.156  0.00  0.00    +0.000 A 
ATOM     25  C   UNL     1       8.133   7.434  18.493  0.00  0.00    +0.000 A 
ENDBRANCH  18  19
ENDBRANCH   4  18
TORSDOF 4
ENDMDL
MODEL 8
REMARK VINA RESULT:      -6.3      1.889      2.425
REMARK  Name = 
REMARK  6 active torsions:
REMARK  status: ('A' for Active; 'I' for Inactive)
REMARK    1  A    between atoms: C_1  and  C_2
REMARK    2  A    between atoms: N_4  and  C_5
REMARK    3  A    between atoms: C_8  and  S_9
REMARK    4  A    between atoms: S_9  and  N_12
REMARK    5  A    between atoms: C_15  and  O_16
REMARK    6  A    between atoms: O_16  and  C_17
REMARK                            x       y       z     vdW  Elec       q    Type
REMARK                         _______ _______ _______ _____ _____    ______ ____
ROOT
ATOM      1  N   UNL     1       3.689   4.486  18.639  0.00  0.00    +0.000 NA
ATOM      2  C   UNL     1       3.773   4.682  20.099  0.00  0.00    +0.000 C 
ATOM      3  C   UNL     1       2.389   4.791  20.716  0.00  0.00    +0.000 C 
ATOM      4  C   UNL     1       1.589   5.932  20.093  0.00  0.00    +0.000 C 
ATOM      5  C   UNL     1       1.454   5.644  18.598  0.00  0.00    +0.000 C 
ATOM      6  C   UNL     1       2.790   5.408  17.901  0.00  0.00    +0.000 C 
ENDROOT
BRANCH   1   7
ATOM      7  S   UNL     1       5.193   4.199  17.864  0.00  0.00    +0.000 S 
ATOM      8  O   UNL     1       4.906   3.781  16.505  0.00  0.00    +0.000 OA
ATOM      9  O   UNL     1       6.015   3.375  18.731  0.00  0.00    +0.000 OA
BRANCH   7  17
ATOM     10  C   UNL     1       5.042   6.607  15.436  0.00  0.00    +0.000 C 
ATOM     11  C   UNL     1       5.938   6.611  16.620  0.00  0.00    +0.000 A 
ATOM     12  N   UNL     1       6.778   7.647  16.781  0.00  0.00    +0.000 NA
ATOM     13  N   UNL     1       7.465   7.353  17.904  0.00  0.00    +0.000 N 
ATOM     14  C   UNL     1       8.509   8.254  18.332  0.00  0.00    +0.000 C 
ATOM     15  C   UNL     1       7.048   6.189  18.485  0.00  0.00    +0.000 A 
ATOM     16 CL   UNL     1       7.767   5.661  19.933  0.00  0.00    +0.000 Cl
ATOM     17  C   UNL     1       6.069   5.665  17.680  0.00  0.00    +0.000 A 
ENDBRANCH   7  17
ENDBRANCH   1   7
BRANCH   4  18
ATOM     18  O   UNL     1       2.232   7.205  20.271  0.00  0.00    +0.000 OA
BRANCH  18  19
ATOM     19  C   UNL     1       1.423   8.313  20.295  0.00  0.00    +0.000 A 
ATOM     20  C   UNL     1       1.289   9.234  19.253  0.00  0.00    +0.000 A 
ATOM     21  C   UNL     1       0.413  10.317  19.366  0.00  0.00    +0.000 A 
ATOM     22  C   UNL     1      -0.324  10.493  20.531  0.00  0.00    +0.000 A 
ATOM     23 CL   UNL     1      -1.380  11.842  20.672  0.00  0.00    +0.000 Cl
ATOM     24  C   UNL     1      -0.205   9.583  21.578  0.00  0.00    +0.000 A 
ATOM     25  C   UNL     1       0.659   8.487  21.454  0.00  0.00    +0.000 A 
ENDBRANCH  18  19
ENDBRANCH   4  18
TORSDOF 4
ENDMDL
MODEL 9
REMARK VINA RESULT:      -6.3      4.958      9.129
REMARK  Name = 
REMARK  6 active torsions:
REMARK  status: ('A' for Active; 'I' for Inactive)
REMARK    1  A    between atoms: C_1  and  C_2
REMARK    2  A    between atoms: N_4  and  C_5
REMARK    3  A    between atoms: C_8  and  S_9
REMARK    4  A    between atoms: S_9  and  N_12
REMARK    5  A    between atoms: C_15  and  O_16
REMARK    6  A    between atoms: O_16  and  C_17
REMARK                            x       y       z     vdW  Elec       q    Type
REMARK                         _______ _______ _______ _____ _____    ______ ____
ROOT
ATOM      1  N   UNL     1      -0.221  10.679  20.785  0.00  0.00    +0.000 NA
ATOM      2  C   UNL     1      -0.637   9.395  20.189  0.00  0.00    +0.000 C 
ATOM      3  C   UNL     1      -0.391   8.243  21.148  0.00  0.00    +0.000 C 
ATOM      4  C   UNL     1       1.077   8.163  21.559  0.00  0.00    +0.000 C 
ATOM      5  C   UNL     1       1.441   9.479  22.246  0.00  0.00    +0.000 C 
ATOM      6  C   UNL     1       1.127  10.712  21.405  0.00  0.00    +0.000 C 
ENDROOT
BRANCH   1   7
ATOM      7  S   UNL     1      -0.596  12.063  19.843  0.00  0.00    +0.000 S 
ATOM      8  O   UNL     1       0.125  11.942  18.589  0.00  0.00    +0.000 OA
ATOM      9  O   UNL     1      -0.441  13.246  20.670  0.00  0.00    +0.000 OA
BRANCH   7  17
ATOM     10  C   UNL     1      -3.374  13.247  21.455  0.00  0.00    +0.000 C 
ATOM     11  C   UNL     1      -3.349  12.573  20.132  0.00  0.00    +0.000 A 
ATOM     12  N   UNL     1      -4.511  12.399  19.482  0.00  0.00    +0.000 NA
ATOM     13  N   UNL     1      -4.172  11.745  18.352  0.00  0.00    +0.000 N 
ATOM     14  C   UNL     1      -5.219  11.348  17.442  0.00  0.00    +0.000 C 
ATOM     15  C   UNL     1      -2.825  11.547  18.245  0.00  0.00    +0.000 A 
ATOM     16 CL   UNL     1      -2.190  10.770  16.872  0.00  0.00    +0.000 Cl
ATOM     17  C   UNL     1      -2.250  12.054  19.383  0.00  0.00    +0.000 A 
ENDBRANCH   7  17
ENDBRANCH   1   7
BRANCH   4  18
ATOM     18  O   UNL     1       1.946   7.966  20.430  0.00  0.00    +0.000 OA
BRANCH  18  19
ATOM     19  C   UNL     1       2.020   6.696  19.916  0.00  0.00    +0.000 A 
ATOM     20  C   UNL     1       1.741   5.524  20.624  0.00  0.00    +0.000 A 
ATOM     21  C   UNL     1       1.819   4.277  19.999  0.00  0.00    +0.000 A 
ATOM     22  C   UNL     1       2.192   4.194  18.663  0.00  0.00    +0.000 A 
ATOM     23 CL   UNL     1       2.310   2.654  17.909  0.00  0.00    +0.000 Cl
ATOM     24  C   UNL     1       2.470   5.352  17.942  0.00  0.00    +0.000 A 
ATOM     25  C   UNL     1       2.373   6.602  18.566  0.00  0.00    +0.000 A 
ENDBRANCH  18  19
ENDBRANCH   4  18
TORSDOF 4
ENDMDL
