MODEL 1
REMARK VINA RESULT:      -8.7      0.000      0.000
REMARK  Name = 
REMARK  8 active torsions:
REMARK  status: ('A' for Active; 'I' for Inactive)
REMARK    1  A    between atoms: C_1  and  C_2
REMARK    2  A    between atoms: C_2  and  C_3
REMARK    3  A    between atoms: C_5  and  C_6
REMARK    4  A    between atoms: C_10  and  O_11
REMARK    5  A    between atoms: O_11  and  C_12
REMARK    6  A    between atoms: C_16  and  C_17
REMARK    7  A    between atoms: N_19  and  C_20
REMARK    8  A    between atoms: C_25  and  C_26
REMARK                            x       y       z     vdW  Elec       q    Type
REMARK                         _______ _______ _______ _____ _____    ______ ____
ROOT
ATOM      1  C   UNL     1       1.141   9.795  19.509  0.00  0.00    +0.000 A 
ATOM      2  S   UNL     1       1.798   9.249  18.034  0.00  0.00    +0.000 S 
ATOM      3  C   UNL     1       2.154   7.691  18.667  0.00  0.00    +0.000 A 
ATOM      4  C   UNL     1       2.784   6.617  17.996  0.00  0.00    +0.000 A 
ATOM      5  C   UNL     1       2.995   5.416  18.681  0.00  0.00    +0.000 A 
ATOM      6  C   UNL     1       2.645   5.309  20.021  0.00  0.00    +0.000 A 
ATOM      7  C   UNL     1       1.986   6.358  20.665  0.00  0.00    +0.000 A 
ATOM      8  C   UNL     1       1.733   7.580  19.995  0.00  0.00    +0.000 A 
ATOM      9  C   UNL     1       1.108   8.797  20.473  0.00  0.00    +0.000 A 
ATOM     10  C   UNL     1       0.541   8.949  21.854  0.00  0.00    +0.000 C 
ENDROOT
BRANCH   1  13
ATOM     11  C   UNL     1      -0.624  12.815  20.086  0.00  0.00    +0.000 A 
ATOM     12  N   UNL     1      -0.652  11.546  19.764  0.00  0.00    +0.000 NA
ATOM     13  C   UNL     1       0.683  11.211  19.735  0.00  0.00    +0.000 A 
ATOM     14  N   UNL     1       1.508  12.240  19.986  0.00  0.00    +0.000 NA
ATOM     15  O   UNL     1       0.638  13.310  20.220  0.00  0.00    +0.000 OA
BRANCH  11  17
ATOM     16  C   UNL     1      -3.068  12.952  20.395  0.00  0.00    +0.000 C 
ATOM     17  C   UNL     1      -1.755  13.719  20.384  0.00  0.00    +0.000 C 
ENDBRANCH  11  17
ENDBRANCH   1  13
BRANCH   5  18
ATOM     18  O   UNL     1       3.605   4.400  17.970  0.00  0.00    +0.000 OA
BRANCH  18  19
ATOM     19  C   UNL     1       4.929   4.534  17.607  0.00  0.00    +0.000 A 
ATOM     20  C   UNL     1       5.973   4.654  18.525  0.00  0.00    +0.000 A 
ATOM     21  C   UNL     1       7.257   4.839  18.046  0.00  0.00    +0.000 A 
ATOM     22  N   UNL     1       7.570   4.854  16.735  0.00  0.00    +0.000 NA
ATOM     23  C   UNL     1       6.539   4.661  15.861  0.00  0.00    +0.000 A 
ATOM     24  C   UNL     1       5.216   4.499  16.246  0.00  0.00    +0.000 A 
BRANCH  23  25
ATOM     25  C   UNL     1       6.914   4.634  14.408  0.00  0.00    +0.000 C 
ATOM     26  O   UNL     1       7.739   5.414  13.942  0.00  0.00    +0.000 OA
ATOM     27  N   UNL     1       6.251   3.671  13.673  0.00  0.00    +0.000 N 
ATOM     28  C   UNL     1       6.449   3.462  12.264  0.00  0.00    +0.000 C 
ATOM     29  H   UNL     1       5.592   3.094  14.190  0.00  0.00    +0.000 HD
ENDBRANCH  23  25
ENDBRANCH  18  19
ENDBRANCH   5  18
TORSDOF 5
ENDMDL
MODEL 2
REMARK VINA RESULT:      -8.6      1.000      1.328
REMARK  Name = 
REMARK  8 active torsions:
REMARK  status: ('A' for Active; 'I' for Inactive)
REMARK    1  A    between atoms: C_1  and  C_2
REMARK    2  A    between atoms: C_2  and  C_3
REMARK    3  A    between atoms: C_5  and  C_6
REMARK    4  A    between atoms: C_10  and  O_11
REMARK    5  A    between atoms: O_11  and  C_12
REMARK    6  A    between atoms: C_16  and  C_17
REMARK    7  A    between atoms: N_19  and  C_20
REMARK    8  A    between atoms: C_25  and  C_26
REMARK                            x       y       z     vdW  Elec       q    Type
REMARK                         _______ _______ _______ _____ _____    ______ ____
ROOT
ATOM      1  C   UNL     1       1.212   9.783  19.331  0.00  0.00    +0.000 A 
ATOM      2  S   UNL     1       1.931   9.186  17.905  0.00  0.00    +0.000 S 
ATOM      3  C   UNL     1       2.249   7.649  18.603  0.00  0.00    +0.000 A 
ATOM      4  C   UNL     1       2.902   6.550  17.995  0.00  0.00    +0.000 A 
ATOM      5  C   UNL     1       3.075   5.371  18.727  0.00  0.00    +0.000 A 
ATOM      6  C   UNL     1       2.665   5.309  20.053  0.00  0.00    +0.000 A 
ATOM      7  C   UNL     1       1.984   6.381  20.633  0.00  0.00    +0.000 A 
ATOM      8  C   UNL     1       1.770   7.582  19.913  0.00  0.00    +0.000 A 
ATOM      9  C   UNL     1       1.131   8.817  20.324  0.00  0.00    +0.000 A 
ATOM     10  C   UNL     1       0.504   9.016  21.673  0.00  0.00    +0.000 C 
ENDROOT
BRANCH   1  13
ATOM     11  C   UNL     1       0.844  13.255  19.943  0.00  0.00    +0.000 A 
ATOM     12  N   UNL     1       1.541  12.158  20.102  0.00  0.00    +0.000 NA
ATOM     13  C   UNL     1       0.754  11.208  19.491  0.00  0.00    +0.000 A 
ATOM     14  N   UNL     1      -0.404  11.687  19.012  0.00  0.00    +0.000 NA
ATOM     15  O   UNL     1      -0.347  13.052  19.313  0.00  0.00    +0.000 OA
BRANCH  11  17
ATOM     16  C   UNL     1       1.353  14.809  21.792  0.00  0.00    +0.000 C 
ATOM     17  C   UNL     1       1.215  14.645  20.286  0.00  0.00    +0.000 C 
ENDBRANCH  11  17
ENDBRANCH   1  13
BRANCH   5  18
ATOM     18  O   UNL     1       3.710   4.329  18.076  0.00  0.00    +0.000 OA
BRANCH  18  19
ATOM     19  C   UNL     1       5.020   4.487  17.675  0.00  0.00    +0.000 A 
ATOM     20  C   UNL     1       6.088   4.626  18.563  0.00  0.00    +0.000 A 
ATOM     21  C   UNL     1       7.354   4.834  18.046  0.00  0.00    +0.000 A 
ATOM     22  N   UNL     1       7.629   4.852  16.727  0.00  0.00    +0.000 NA
ATOM     23  C   UNL     1       6.577   4.638  15.883  0.00  0.00    +0.000 A 
ATOM     24  C   UNL     1       5.268   4.454  16.306  0.00  0.00    +0.000 A 
BRANCH  23  25
ATOM     25  C   UNL     1       6.910   4.615  14.420  0.00  0.00    +0.000 C 
ATOM     26  O   UNL     1       7.710   5.407  13.930  0.00  0.00    +0.000 OA
ATOM     27  N   UNL     1       6.239   3.643  13.705  0.00  0.00    +0.000 N 
ATOM     28  C   UNL     1       6.400   3.436  12.291  0.00  0.00    +0.000 C 
ATOM     29  H   UNL     1       5.604   3.057  14.241  0.00  0.00    +0.000 HD
ENDBRANCH  23  25
ENDBRANCH  18  19
ENDBRANCH   5  18
TORSDOF 5
ENDMDL
MODEL 3
REMARK VINA RESULT:      -8.5      1.686      2.188
REMARK  Name = 
REMARK  8 active torsions:
REMARK  status: ('A' for Active; 'I' for Inactive)
REMARK    1  A    between atoms: C_1  and  C_2
REMARK    2  A    between atoms: C_2  and  C_3
REMARK    3  A    between atoms: C_5  and  C_6
REMARK    4  A    between atoms: C_10  and  O_11
REMARK    5  A    between atoms: O_11  and  C_12
REMARK    6  A    between atoms: C_16  and  C_17
REMARK    7  A    between atoms: N_19  and  C_20
REMARK    8  A    between atoms: C_25  and  C_26
REMARK                            x       y       z     vdW  Elec       q    Type
REMARK                         _______ _______ _______ _____ _____    ______ ____
ROOT
ATOM      1  C   UNL     1       0.504   9.948  20.938  0.00  0.00    +0.000 A 
ATOM      2  S   UNL     1       0.938   8.397  21.495  0.00  0.00    +0.000 S 
ATOM      3  C   UNL     1       1.718   7.988  20.019  0.00  0.00    +0.000 A 
ATOM      4  C   UNL     1       2.340   6.761  19.690  0.00  0.00    +0.000 A 
ATOM      5  C   UNL     1       2.924   6.610  18.428  0.00  0.00    +0.000 A 
ATOM      6  C   UNL     1       2.835   7.634  17.494  0.00  0.00    +0.000 A 
ATOM      7  C   UNL     1       2.257   8.858  17.840  0.00  0.00    +0.000 A 
ATOM      8  C   UNL     1       1.678   9.054  19.117  0.00  0.00    +0.000 A 
ATOM      9  C   UNL     1       1.001  10.211  19.669  0.00  0.00    +0.000 A 
ATOM     10  C   UNL     1       0.835  11.505  18.927  0.00  0.00    +0.000 C 
ENDROOT
BRANCH   1  13
ATOM     11  C   UNL     1      -1.954  12.177  22.187  0.00  0.00    +0.000 A 
ATOM     12  N   UNL     1      -1.429  11.547  21.166  0.00  0.00    +0.000 NA
ATOM     13  C   UNL     1      -0.352  10.900  21.729  0.00  0.00    +0.000 A 
ATOM     14  N   UNL     1      -0.190  11.153  23.037  0.00  0.00    +0.000 NA
ATOM     15  O   UNL     1      -1.256  12.004  23.344  0.00  0.00    +0.000 OA
BRANCH  11  17
ATOM     16  C   UNL     1      -3.906  12.755  23.581  0.00  0.00    +0.000 C 
ATOM     17  C   UNL     1      -3.206  12.960  22.246  0.00  0.00    +0.000 C 
ENDBRANCH  11  17
ENDBRANCH   1  13
BRANCH   5  18
ATOM     18  O   UNL     1       3.525   5.393  18.169  0.00  0.00    +0.000 OA
BRANCH  18  19
ATOM     19  C   UNL     1       4.861   5.361  17.826  0.00  0.00    +0.000 A 
ATOM     20  C   UNL     1       5.898   5.521  18.746  0.00  0.00    +0.000 A 
ATOM     21  C   UNL     1       7.200   5.527  18.280  0.00  0.00    +0.000 A 
ATOM     22  N   UNL     1       7.532   5.329  16.988  0.00  0.00    +0.000 NA
ATOM     23  C   UNL     1       6.501   5.102  16.123  0.00  0.00    +0.000 A 
ATOM     24  C   UNL     1       5.163   5.109  16.491  0.00  0.00    +0.000 A 
BRANCH  23  25
ATOM     25  C   UNL     1       6.893   4.837  14.699  0.00  0.00    +0.000 C 
ATOM     26  O   UNL     1       7.867   5.381  14.188  0.00  0.00    +0.000 OA
ATOM     27  N   UNL     1       6.065   3.948  14.042  0.00  0.00    +0.000 N 
ATOM     28  C   UNL     1       6.246   3.546  12.674  0.00  0.00    +0.000 C 
ATOM     29  H   UNL     1       5.293   3.575  14.589  0.00  0.00    +0.000 HD
ENDBRANCH  23  25
ENDBRANCH  18  19
ENDBRANCH   5  18
TORSDOF 5
ENDMDL
MODEL 4
REMARK VINA RESULT:      -8.1      1.774      2.327
REMARK  Name = 
REMARK  8 active torsions:
REMARK  status: ('A' for Active; 'I' for Inactive)
REMARK    1  A    between atoms: C_1  and  C_2
REMARK    2  A    between atoms: C_2  and  C_3
REMARK    3  A    between atoms: C_5  and  C_6
REMARK    4  A    between atoms: C_10  and  O_11
REMARK    5  A    between atoms: O_11  and  C_12
REMARK    6  A    between atoms: C_16  and  C_17
REMARK    7  A    between atoms: N_19  and  C_20
REMARK    8  A    between atoms: C_25  and  C_26
REMARK                            x       y       z     vdW  Elec       q    Type
REMARK                         _______ _______ _______ _____ _____    ______ ____
ROOT
ATOM      1  C   UNL     1       0.611  10.025  21.087  0.00  0.00    +0.000 A 
ATOM      2  S   UNL     1       1.172   8.532  21.687  0.00  0.00    +0.000 S 
ATOM      3  C   UNL     1       1.775   8.041  20.155  0.00  0.00    +0.000 A 
ATOM      4  C   UNL     1       2.396   6.812  19.832  0.00  0.00    +0.000 A 
ATOM      5  C   UNL     1       2.822   6.588  18.518  0.00  0.00    +0.000 A 
ATOM      6  C   UNL     1       2.576   7.539  17.536  0.00  0.00    +0.000 A 
ATOM      7  C   UNL     1       2.001   8.766  17.870  0.00  0.00    +0.000 A 
ATOM      8  C   UNL     1       1.580   9.038  19.195  0.00  0.00    +0.000 A 
ATOM      9  C   UNL     1       0.934  10.210  19.750  0.00  0.00    +0.000 A 
ATOM     10  C   UNL     1       0.626  11.442  18.950  0.00  0.00    +0.000 C 
ENDROOT
BRANCH   1  13
ATOM     11  C   UNL     1      -0.949  12.847  22.559  0.00  0.00    +0.000 A 
ATOM     12  N   UNL     1      -0.041  12.367  21.749  0.00  0.00    +0.000 NA
ATOM     13  C   UNL     1      -0.174  11.006  21.916  0.00  0.00    +0.000 A 
ATOM     14  N   UNL     1      -1.097  10.658  22.825  0.00  0.00    +0.000 NA
ATOM     15  O   UNL     1      -1.615  11.884  23.256  0.00  0.00    +0.000 OA
BRANCH  11  17
ATOM     16  C   UNL     1      -0.175  15.144  23.024  0.00  0.00    +0.000 C 
ATOM     17  C   UNL     1      -1.374  14.251  22.745  0.00  0.00    +0.000 C 
ENDBRANCH  11  17
ENDBRANCH   1  13
BRANCH   5  18
ATOM     18  O   UNL     1       3.432   5.373  18.267  0.00  0.00    +0.000 OA
BRANCH  18  19
ATOM     19  C   UNL     1       4.773   5.348  17.942  0.00  0.00    +0.000 A 
ATOM     20  C   UNL     1       5.796   5.499  18.878  0.00  0.00    +0.000 A 
ATOM     21  C   UNL     1       7.105   5.512  18.430  0.00  0.00    +0.000 A 
ATOM     22  N   UNL     1       7.455   5.329  17.141  0.00  0.00    +0.000 NA
ATOM     23  C   UNL     1       6.436   5.109  16.259  0.00  0.00    +0.000 A 
ATOM     24  C   UNL     1       5.093   5.110  16.609  0.00  0.00    +0.000 A 
BRANCH  23  25
ATOM     25  C   UNL     1       6.848   4.861  14.838  0.00  0.00    +0.000 C 
ATOM     26  O   UNL     1       7.820   5.421  14.342  0.00  0.00    +0.000 OA
ATOM     27  N   UNL     1       6.039   3.966  14.165  0.00  0.00    +0.000 N 
ATOM     28  C   UNL     1       6.242   3.577  12.796  0.00  0.00    +0.000 C 
ATOM     29  H   UNL     1       5.266   3.578  14.701  0.00  0.00    +0.000 HD
ENDBRANCH  23  25
ENDBRANCH  18  19
ENDBRANCH   5  18
TORSDOF 5
ENDMDL
MODEL 5
REMARK VINA RESULT:      -8.1      1.904      2.378
REMARK  Name = 
REMARK  8 active torsions:
REMARK  status: ('A' for Active; 'I' for Inactive)
REMARK    1  A    between atoms: C_1  and  C_2
REMARK    2  A    between atoms: C_2  and  C_3
REMARK    3  A    between atoms: C_5  and  C_6
REMARK    4  A    between atoms: C_10  and  O_11
REMARK    5  A    between atoms: O_11  and  C_12
REMARK    6  A    between atoms: C_16  and  C_17
REMARK    7  A    between atoms: N_19  and  C_20
REMARK    8  A    between atoms: C_25  and  C_26
REMARK                            x       y       z     vdW  Elec       q    Type
REMARK                         _______ _______ _______ _____ _____    ______ ____
ROOT
ATOM      1  C   UNL     1       0.578  10.248  20.924  0.00  0.00    +0.000 A 
ATOM      2  S   UNL     1       1.066   8.761  21.599  0.00  0.00    +0.000 S 
ATOM      3  C   UNL     1       1.740   8.208  20.118  0.00  0.00    +0.000 A 
ATOM      4  C   UNL     1       2.346   6.955  19.868  0.00  0.00    +0.000 A 
ATOM      5  C   UNL     1       2.838   6.680  18.588  0.00  0.00    +0.000 A 
ATOM      6  C   UNL     1       2.671   7.605  17.565  0.00  0.00    +0.000 A 
ATOM      7  C   UNL     1       2.110   8.856  17.829  0.00  0.00    +0.000 A 
ATOM      8  C   UNL     1       1.624   9.179  19.120  0.00  0.00    +0.000 A 
ATOM      9  C   UNL     1       0.978  10.384  19.602  0.00  0.00    +0.000 A 
ATOM     10  C   UNL     1       0.747  11.597  18.749  0.00  0.00    +0.000 C 
ENDROOT
BRANCH   1  13
ATOM     11  C   UNL     1      -1.796  12.087  22.807  0.00  0.00    +0.000 A 
ATOM     12  N   UNL     1      -1.500  11.008  22.128  0.00  0.00    +0.000 NA
ATOM     13  C   UNL     1      -0.226  11.273  21.677  0.00  0.00    +0.000 A 
ATOM     14  N   UNL     1       0.232  12.486  22.026  0.00  0.00    +0.000 NA
ATOM     15  O   UNL     1      -0.813  13.030  22.780  0.00  0.00    +0.000 OA
BRANCH  11  17
ATOM     16  C   UNL     1      -3.096  13.845  23.953  0.00  0.00    +0.000 C 
ATOM     17  C   UNL     1      -2.993  12.362  23.632  0.00  0.00    +0.000 C 
ENDBRANCH  11  17
ENDBRANCH   1  13
BRANCH   5  18
ATOM     18  O   UNL     1       3.429   5.444  18.407  0.00  0.00    +0.000 OA
BRANCH  18  19
ATOM     19  C   UNL     1       4.739   5.381  17.978  0.00  0.00    +0.000 A 
ATOM     20  C   UNL     1       5.837   5.510  18.830  0.00  0.00    +0.000 A 
ATOM     21  C   UNL     1       7.106   5.486  18.279  0.00  0.00    +0.000 A 
ATOM     22  N   UNL     1       7.349   5.285  16.969  0.00  0.00    +0.000 NA
ATOM     23  C   UNL     1       6.258   5.088  16.171  0.00  0.00    +0.000 A 
ATOM     24  C   UNL     1       4.948   5.127  16.626  0.00  0.00    +0.000 A 
BRANCH  23  25
ATOM     25  C   UNL     1       6.550   4.820  14.724  0.00  0.00    +0.000 C 
ATOM     26  O   UNL     1       5.849   4.069  14.054  0.00  0.00    +0.000 OA
ATOM     27  N   UNL     1       7.662   5.484  14.242  0.00  0.00    +0.000 N 
ATOM     28  C   UNL     1       8.132   5.378  12.887  0.00  0.00    +0.000 C 
ATOM     29  H   UNL     1       8.151   6.073  14.911  0.00  0.00    +0.000 HD
ENDBRANCH  23  25
ENDBRANCH  18  19
ENDBRANCH   5  18
TORSDOF 5
ENDMDL
MODEL 6
REMARK VINA RESULT:      -8.0      1.795      2.685
REMARK  Name = 
REMARK  8 active torsions:
REMARK  status: ('A' for Active; 'I' for Inactive)
REMARK    1  A    between atoms: C_1  and  C_2
REMARK    2  A    between atoms: C_2  and  C_3
REMARK    3  A    between atoms: C_5  and  C_6
REMARK    4  A    between atoms: C_10  and  O_11
REMARK    5  A    between atoms: O_11  and  C_12
REMARK    6  A    between atoms: C_16  and  C_17
REMARK    7  A    between atoms: N_19  and  C_20
REMARK    8  A    between atoms: C_25  and  C_26
REMARK                            x       y       z     vdW  Elec       q    Type
REMARK                         _______ _______ _______ _____ _____    ______ ____
ROOT
ATOM      1  C   UNL     1       0.959   9.883  19.913  0.00  0.00    +0.000 A 
ATOM      2  S   UNL     1       1.506   9.615  18.320  0.00  0.00    +0.000 S 
ATOM      3  C   UNL     1       1.985   8.001  18.662  0.00  0.00    +0.000 A 
ATOM      4  C   UNL     1       2.599   7.083  17.778  0.00  0.00    +0.000 A 
ATOM      5  C   UNL     1       2.923   5.803  18.240  0.00  0.00    +0.000 A 
ATOM      6  C   UNL     1       2.699   5.467  19.569  0.00  0.00    +0.000 A 
ATOM      7  C   UNL     1       2.055   6.362  20.425  0.00  0.00    +0.000 A 
ATOM      8  C   UNL     1       1.690   7.658  19.984  0.00  0.00    +0.000 A 
ATOM      9  C   UNL     1       1.057   8.746  20.702  0.00  0.00    +0.000 A 
ATOM     10  C   UNL     1       0.609   8.646  22.131  0.00  0.00    +0.000 C 
ENDROOT
BRANCH   1  13
ATOM     11  C   UNL     1      -0.890  12.754  20.862  0.00  0.00    +0.000 A 
ATOM     12  N   UNL     1      -0.842  11.619  20.213  0.00  0.00    +0.000 NA
ATOM     13  C   UNL     1       0.462  11.217  20.402  0.00  0.00    +0.000 A 
ATOM     14  N   UNL     1       1.203  12.089  21.102  0.00  0.00    +0.000 NA
ATOM     15  O   UNL     1       0.304  13.115  21.411  0.00  0.00    +0.000 OA
BRANCH  11  17
ATOM     16  C   UNL     1      -3.308  13.054  20.467  0.00  0.00    +0.000 C 
ATOM     17  C   UNL     1      -2.060  13.620  21.126  0.00  0.00    +0.000 C 
ENDBRANCH  11  17
ENDBRANCH   1  13
BRANCH   5  18
ATOM     18  O   UNL     1       3.511   4.949  17.326  0.00  0.00    +0.000 OA
BRANCH  18  19
ATOM     19  C   UNL     1       4.773   5.239  16.850  0.00  0.00    +0.000 A 
ATOM     20  C   UNL     1       5.269   4.761  15.637  0.00  0.00    +0.000 A 
ATOM     21  C   UNL     1       6.571   5.072  15.287  0.00  0.00    +0.000 A 
ATOM     22  N   UNL     1       7.375   5.862  16.025  0.00  0.00    +0.000 NA
ATOM     23  C   UNL     1       6.837   6.376  17.170  0.00  0.00    +0.000 A 
ATOM     24  C   UNL     1       5.555   6.096  17.619  0.00  0.00    +0.000 A 
BRANCH  23  25
ATOM     25  C   UNL     1       7.731   7.291  17.954  0.00  0.00    +0.000 C 
ATOM     26  O   UNL     1       8.380   6.890  18.915  0.00  0.00    +0.000 OA
ATOM     27  N   UNL     1       7.743   8.595  17.498  0.00  0.00    +0.000 N 
ATOM     28  C   UNL     1       8.524   9.645  18.094  0.00  0.00    +0.000 C 
ATOM     29  H   UNL     1       7.154   8.787  16.691  0.00  0.00    +0.000 HD
ENDBRANCH  23  25
ENDBRANCH  18  19
ENDBRANCH   5  18
TORSDOF 5
ENDMDL
MODEL 7
REMARK VINA RESULT:      -8.0      2.038      3.051
REMARK  Name = 
REMARK  8 active torsions:
REMARK  status: ('A' for Active; 'I' for Inactive)
REMARK    1  A    between atoms: C_1  and  C_2
REMARK    2  A    between atoms: C_2  and  C_3
REMARK    3  A    between atoms: C_5  and  C_6
REMARK    4  A    between atoms: C_10  and  O_11
REMARK    5  A    between atoms: O_11  and  C_12
REMARK    6  A    between atoms: C_16  and  C_17
REMARK    7  A    between atoms: N_19  and  C_20
REMARK    8  A    between atoms: C_25  and  C_26
REMARK                            x       y       z     vdW  Elec       q    Type
REMARK                         _______ _______ _______ _____ _____    ______ ____
ROOT
ATOM      1  C   UNL     1       1.012  10.002  19.949  0.00  0.00    +0.000 A 
ATOM      2  S   UNL     1       1.587   9.707  18.372  0.00  0.00    +0.000 S 
ATOM      3  C   UNL     1       2.005   8.079  18.733  0.00  0.00    +0.000 A 
ATOM      4  C   UNL     1       2.609   7.137  17.868  0.00  0.00    +0.000 A 
ATOM      5  C   UNL     1       2.880   5.850  18.344  0.00  0.00    +0.000 A 
ATOM      6  C   UNL     1       2.615   5.529  19.669  0.00  0.00    +0.000 A 
ATOM      7  C   UNL     1       1.980   6.450  20.506  0.00  0.00    +0.000 A 
ATOM      8  C   UNL     1       1.668   7.754  20.050  0.00  0.00    +0.000 A 
ATOM      9  C   UNL     1       1.055   8.867  20.747  0.00  0.00    +0.000 A 
ATOM     10  C   UNL     1       0.571   8.790  22.165  0.00  0.00    +0.000 C 
ENDROOT
BRANCH   1  13
ATOM     11  C   UNL     1       0.658  13.312  21.167  0.00  0.00    +0.000 A 
ATOM     12  N   UNL     1       1.408  12.251  21.012  0.00  0.00    +0.000 NA
ATOM     13  C   UNL     1       0.548  11.354  20.419  0.00  0.00    +0.000 A 
ATOM     14  N   UNL     1      -0.698  11.825  20.254  0.00  0.00    +0.000 NA
ATOM     15  O   UNL     1      -0.627  13.130  20.751  0.00  0.00    +0.000 OA
BRANCH  11  17
ATOM     16  C   UNL     1       2.555  14.781  21.742  0.00  0.00    +0.000 C 
ATOM     17  C   UNL     1       1.043  14.656  21.649  0.00  0.00    +0.000 C 
ENDBRANCH  11  17
ENDBRANCH   1  13
BRANCH   5  18
ATOM     18  O   UNL     1       3.461   4.972  17.449  0.00  0.00    +0.000 OA
BRANCH  18  19
ATOM     19  C   UNL     1       4.708   5.262  16.935  0.00  0.00    +0.000 A 
ATOM     20  C   UNL     1       5.153   4.815  15.691  0.00  0.00    +0.000 A 
ATOM     21  C   UNL     1       6.445   5.122  15.302  0.00  0.00    +0.000 A 
ATOM     22  N   UNL     1       7.285   5.881  16.033  0.00  0.00    +0.000 NA
ATOM     23  C   UNL     1       6.797   6.366  17.212  0.00  0.00    +0.000 A 
ATOM     24  C   UNL     1       5.528   6.086  17.700  0.00  0.00    +0.000 A 
BRANCH  23  25
ATOM     25  C   UNL     1       7.730   7.246  17.990  0.00  0.00    +0.000 C 
ATOM     26  O   UNL     1       8.364   6.823  18.951  0.00  0.00    +0.000 OA
ATOM     27  N   UNL     1       7.795   8.546  17.526  0.00  0.00    +0.000 N 
ATOM     28  C   UNL     1       8.621   9.565  18.116  0.00  0.00    +0.000 C 
ATOM     29  H   UNL     1       7.213   8.759  16.720  0.00  0.00    +0.000 HD
ENDBRANCH  23  25
ENDBRANCH  18  19
ENDBRANCH   5  18
TORSDOF 5
ENDMDL
MODEL 8
REMARK VINA RESULT:      -7.8      1.001      1.011
REMARK  Name = 
REMARK  8 active torsions:
REMARK  status: ('A' for Active; 'I' for Inactive)
REMARK    1  A    between atoms: C_1  and  C_2
REMARK    2  A    between atoms: C_2  and  C_3
REMARK    3  A    between atoms: C_5  and  C_6
REMARK    4  A    between atoms: C_10  and  O_11
REMARK    5  A    between atoms: O_11  and  C_12
REMARK    6  A    between atoms: C_16  and  C_17
REMARK    7  A    between atoms: N_19  and  C_20
REMARK    8  A    between atoms: C_25  and  C_26
REMARK                            x       y       z     vdW  Elec       q    Type
REMARK                         _______ _______ _______ _____ _____    ______ ____
ROOT
ATOM      1  C   UNL     1       1.066  10.300  19.876  0.00  0.00    +0.000 A 
ATOM      2  S   UNL     1       1.785   9.835  18.402  0.00  0.00    +0.000 S 
ATOM      3  C   UNL     1       1.994   8.209  18.915  0.00  0.00    +0.000 A 
ATOM      4  C   UNL     1       2.596   7.153  18.191  0.00  0.00    +0.000 A 
ATOM      5  C   UNL     1       2.681   5.886  18.778  0.00  0.00    +0.000 A 
ATOM      6  C   UNL     1       2.235   5.691  20.079  0.00  0.00    +0.000 A 
ATOM      7  C   UNL     1       1.604   6.726  20.772  0.00  0.00    +0.000 A 
ATOM      8  C   UNL     1       1.478   8.016  20.199  0.00  0.00    +0.000 A 
ATOM      9  C   UNL     1       0.903   9.230  20.744  0.00  0.00    +0.000 A 
ATOM     10  C   UNL     1       0.255   9.304  22.095  0.00  0.00    +0.000 C 
ENDROOT
BRANCH   1  13
ATOM     11  C   UNL     1      -0.515  13.426  20.417  0.00  0.00    +0.000 A 
ATOM     12  N   UNL     1      -0.552  12.231  19.886  0.00  0.00    +0.000 NA
ATOM     13  C   UNL     1       0.688  11.721  20.199  0.00  0.00    +0.000 A 
ATOM     14  N   UNL     1       1.478  12.581  20.861  0.00  0.00    +0.000 NA
ATOM     15  O   UNL     1       0.678  13.719  21.007  0.00  0.00    +0.000 OA
BRANCH  11  17
ATOM     16  C   UNL     1      -2.906  13.769  20.925  0.00  0.00    +0.000 C 
ATOM     17  C   UNL     1      -1.597  14.429  20.517  0.00  0.00    +0.000 C 
ENDBRANCH  11  17
ENDBRANCH   1  13
BRANCH   5  18
ATOM     18  O   UNL     1       3.270   4.893  18.018  0.00  0.00    +0.000 OA
BRANCH  18  19
ATOM     19  C   UNL     1       4.607   4.999  17.693  0.00  0.00    +0.000 A 
ATOM     20  C   UNL     1       5.605   5.298  18.621  0.00  0.00    +0.000 A 
ATOM     21  C   UNL     1       6.906   5.434  18.171  0.00  0.00    +0.000 A 
ATOM     22  N   UNL     1       7.278   5.235  16.891  0.00  0.00    +0.000 NA
ATOM     23  C   UNL     1       6.292   4.871  16.020  0.00  0.00    +0.000 A 
ATOM     24  C   UNL     1       4.956   4.742  16.371  0.00  0.00    +0.000 A 
BRANCH  23  25
ATOM     25  C   UNL     1       6.733   4.609  14.610  0.00  0.00    +0.000 C 
ATOM     26  O   UNL     1       6.293   3.665  13.962  0.00  0.00    +0.000 OA
ATOM     27  N   UNL     1       7.663   5.513  14.134  0.00  0.00    +0.000 N 
ATOM     28  C   UNL     1       8.228   5.459  12.813  0.00  0.00    +0.000 C 
ATOM     29  H   UNL     1       7.940   6.246  14.782  0.00  0.00    +0.000 HD
ENDBRANCH  23  25
ENDBRANCH  18  19
ENDBRANCH   5  18
TORSDOF 5
ENDMDL
MODEL 9
REMARK VINA RESULT:      -7.8      2.372      9.040
REMARK  Name = 
REMARK  8 active torsions:
REMARK  status: ('A' for Active; 'I' for Inactive)
REMARK    1  A    between atoms: C_1  and  C_2
REMARK    2  A    between atoms: C_2  and  C_3
REMARK    3  A    between atoms: C_5  and  C_6
REMARK    4  A    between atoms: C_10  and  O_11
REMARK    5  A    between atoms: O_11  and  C_12
REMARK    6  A    between atoms: C_16  and  C_17
REMARK    7  A    between atoms: N_19  and  C_20
REMARK    8  A    between atoms: C_25  and  C_26
REMARK                            x       y       z     vdW  Elec       q    Type
REMARK                         _______ _______ _______ _____ _____    ______ ____
ROOT
ATOM      1  C   UNL     1       4.753   5.675  17.242  0.00  0.00    +0.000 A 
ATOM      2  S   UNL     1       4.254   7.305  17.245  0.00  0.00    +0.000 S 
ATOM      3  C   UNL     1       3.204   7.074  18.586  0.00  0.00    +0.000 A 
ATOM      4  C   UNL     1       2.362   8.036  19.190  0.00  0.00    +0.000 A 
ATOM      5  C   UNL     1       1.569   7.659  20.280  0.00  0.00    +0.000 A 
ATOM      6  C   UNL     1       1.568   6.340  20.715  0.00  0.00    +0.000 A 
ATOM      7  C   UNL     1       2.432   5.406  20.141  0.00  0.00    +0.000 A 
ATOM      8  C   UNL     1       3.267   5.758  19.053  0.00  0.00    +0.000 A 
ATOM      9  C   UNL     1       4.200   4.953  18.290  0.00  0.00    +0.000 A 
ATOM     10  C   UNL     1       4.485   3.510  18.590  0.00  0.00    +0.000 C 
ENDROOT
BRANCH   1  13
ATOM     11  C   UNL     1       6.256   4.227  14.377  0.00  0.00    +0.000 A 
ATOM     12  N   UNL     1       5.170   4.495  15.055  0.00  0.00    +0.000 NA
ATOM     13  C   UNL     1       5.663   5.091  16.195  0.00  0.00    +0.000 A 
ATOM     14  N   UNL     1       7.003   5.151  16.240  0.00  0.00    +0.000 NA
ATOM     15  O   UNL     1       7.401   4.575  15.029  0.00  0.00    +0.000 OA
BRANCH  11  17
ATOM     16  C   UNL     1       5.011   3.522  12.366  0.00  0.00    +0.000 C 
ATOM     17  C   UNL     1       6.381   3.683  13.007  0.00  0.00    +0.000 C 
ENDBRANCH  11  17
ENDBRANCH   1  13
BRANCH   5  18
ATOM     18  O   UNL     1       0.775   8.645  20.834  0.00  0.00    +0.000 OA
BRANCH  18  19
ATOM     19  C   UNL     1       0.353   9.693  20.042  0.00  0.00    +0.000 A 
ATOM     20  C   UNL     1       0.970  10.945  20.026  0.00  0.00    +0.000 A 
ATOM     21  C   UNL     1       0.426  11.939  19.232  0.00  0.00    +0.000 A 
ATOM     22  N   UNL     1      -0.637  11.752  18.424  0.00  0.00    +0.000 NA
ATOM     23  C   UNL     1      -1.174  10.497  18.406  0.00  0.00    +0.000 A 
ATOM     24  C   UNL     1      -0.718   9.447  19.189  0.00  0.00    +0.000 A 
BRANCH  23  25
ATOM     25  C   UNL     1      -2.327  10.297  17.466  0.00  0.00    +0.000 C 
ATOM     26  O   UNL     1      -3.202   9.466  17.689  0.00  0.00    +0.000 OA
ATOM     27  N   UNL     1      -2.297  11.118  16.356  0.00  0.00    +0.000 N 
ATOM     28  C   UNL     1      -3.296  11.101  15.322  0.00  0.00    +0.000 C 
ATOM     29  H   UNL     1      -1.510  11.759  16.299  0.00  0.00    +0.000 HD
ENDBRANCH  23  25
ENDBRANCH  18  19
ENDBRANCH   5  18
TORSDOF 5
ENDMDL
