MODEL 1
REMARK VINA RESULT:      -8.1      0.000      0.000
REMARK  Name = 
REMARK  8 active torsions:
REMARK  status: ('A' for Active; 'I' for Inactive)
REMARK    1  A    between atoms: C_1  and  O_2
REMARK    2  A    between atoms: O_2  and  C_3
REMARK    3  A    between atoms: C_3  and  C_5
REMARK    4  A    between atoms: C_9  and  N_10
REMARK    5  A    between atoms: N_13  and  C_14
REMARK    6  A    between atoms: C_20  and  C_21
REMARK    7  A    between atoms: C_21  and  N_22
REMARK    8  A    between atoms: N_25  and  C_26
REMARK                            x       y       z     vdW  Elec       q    Type
REMARK                         _______ _______ _______ _____ _____    ______ ____
ROOT
ATOM      1  C   UNL     1       4.981   4.395  17.584  0.00  0.00    +0.000 A 
ATOM      2  C   UNL     1       5.465   3.672  16.482  0.00  0.00    +0.000 A 
ATOM      3  C   UNL     1       6.256   4.290  15.524  0.00  0.00    +0.000 A 
ATOM      4  C   UNL     1       6.643   5.627  15.687  0.00  0.00    +0.000 A 
ATOM      5  C   UNL     1       6.188   6.404  16.761  0.00  0.00    +0.000 A 
ATOM      6  C   UNL     1       5.276   5.794  17.687  0.00  0.00    +0.000 A 
ENDROOT
BRANCH   5   7
ATOM      7  N   UNL     1       6.609   7.760  16.930  0.00  0.00    +0.000 N 
ATOM      8  C   UNL     1       7.707   8.193  17.665  0.00  0.00    +0.000 C 
ATOM      9  O   UNL     1       8.490   7.448  18.253  0.00  0.00    +0.000 OA
ATOM     10  N   UNL     1       7.813   9.583  17.734  0.00  0.00    +0.000 N 
ATOM     11  H   UNL     1       6.064   8.449  16.425  0.00  0.00    +0.000 HD
ATOM     12  H   UNL     1       6.929  10.070  17.722  0.00  0.00    +0.000 HD
BRANCH  10  13
ATOM     13  C   UNL     1       8.847  10.185  18.505  0.00  0.00    +0.000 A 
ATOM     14  C   UNL     1       8.800  10.209  19.905  0.00  0.00    +0.000 A 
ATOM     15  C   UNL     1       9.759  10.915  20.644  0.00  0.00    +0.000 A 
ATOM     16  C   UNL     1      10.770  11.611  19.988  0.00  0.00    +0.000 A 
ATOM     17  C   UNL     1      10.849  11.554  18.595  0.00  0.00    +0.000 A 
ATOM     18  C   UNL     1       9.910  10.823  17.858  0.00  0.00    +0.000 A 
ENDBRANCH  10  13
ENDBRANCH   5   7
BRANCH   1  19
ATOM     19  C   UNL     1       4.205   3.666  18.658  0.00  0.00    +0.000 C 
ATOM     20  O   UNL     1       2.990   3.543  18.646  0.00  0.00    +0.000 OA
BRANCH  19  22
ATOM     21  C   UNL     1       4.382   2.133  20.426  0.00  0.00    +0.000 C 
ATOM     22  O   UNL     1       5.003   3.167  19.642  0.00  0.00    +0.000 OA
ENDBRANCH  19  22
ENDBRANCH   1  19
BRANCH   6  23
ATOM     23  C   UNL     1       4.574   6.630  18.753  0.00  0.00    +0.000 C 
BRANCH  23  24
ATOM     24  N   UNL     1       3.145   6.854  18.489  0.00  0.00    +0.000 NA
ATOM     25  C   UNL     1       2.334   6.903  19.724  0.00  0.00    +0.000 C 
ATOM     26  C   UNL     1       1.602   8.184  20.160  0.00  0.00    +0.000 C 
ATOM     27  N   UNL     1       1.193   9.012  19.029  0.00  0.00    +0.000 N 
ATOM     28  C   UNL     1       2.268   9.284  18.068  0.00  0.00    +0.000 C 
ATOM     29  C   UNL     1       2.928   7.979  17.563  0.00  0.00    +0.000 C 
BRANCH  27  30
ATOM     30  C   UNL     1       0.123   9.894  19.181  0.00  0.00    +0.000 A 
ATOM     31  C   UNL     1      -0.733  10.246  18.117  0.00  0.00    +0.000 A 
ATOM     32  C   UNL     1      -1.672  11.280  18.222  0.00  0.00    +0.000 A 
ATOM     33  C   UNL     1      -1.804  11.980  19.412  0.00  0.00    +0.000 A 
ATOM     34  C   UNL     1      -1.027  11.612  20.505  0.00  0.00    +0.000 A 
ATOM     35  C   UNL     1      -0.085  10.582  20.385  0.00  0.00    +0.000 A 
ENDBRANCH  27  30
ENDBRANCH  23  24
ENDBRANCH   6  23
TORSDOF 7
ENDMDL
MODEL 2
REMARK VINA RESULT:      -8.0      3.454      7.931
REMARK  Name = 
REMARK  8 active torsions:
REMARK  status: ('A' for Active; 'I' for Inactive)
REMARK    1  A    between atoms: C_1  and  O_2
REMARK    2  A    between atoms: O_2  and  C_3
REMARK    3  A    between atoms: C_3  and  C_5
REMARK    4  A    between atoms: C_9  and  N_10
REMARK    5  A    between atoms: N_13  and  C_14
REMARK    6  A    between atoms: C_20  and  C_21
REMARK    7  A    between atoms: C_21  and  N_22
REMARK    8  A    between atoms: N_25  and  C_26
REMARK                            x       y       z     vdW  Elec       q    Type
REMARK                         _______ _______ _______ _____ _____    ______ ____
ROOT
ATOM      1  C   UNL     1       3.344   2.959  20.411  0.00  0.00    +0.000 A 
ATOM      2  C   UNL     1       2.172   2.476  21.013  0.00  0.00    +0.000 A 
ATOM      3  C   UNL     1       1.081   3.313  21.206  0.00  0.00    +0.000 A 
ATOM      4  C   UNL     1       1.113   4.631  20.732  0.00  0.00    +0.000 A 
ATOM      5  C   UNL     1       2.255   5.174  20.128  0.00  0.00    +0.000 A 
ATOM      6  C   UNL     1       3.421   4.341  20.035  0.00  0.00    +0.000 A 
ENDROOT
BRANCH   5   7
ATOM      7  N   UNL     1       2.267   6.512  19.625  0.00  0.00    +0.000 N 
ATOM      8  C   UNL     1       1.500   7.573  20.094  0.00  0.00    +0.000 C 
ATOM      9  O   UNL     1       0.716   7.501  21.040  0.00  0.00    +0.000 OA
ATOM     10  N   UNL     1       1.650   8.739  19.342  0.00  0.00    +0.000 N 
ATOM     11  H   UNL     1       2.935   6.691  18.883  0.00  0.00    +0.000 HD
ATOM     12  H   UNL     1       1.837   8.583  18.364  0.00  0.00    +0.000 HD
BRANCH  10  13
ATOM     13  C   UNL     1       0.882   9.896  19.656  0.00  0.00    +0.000 A 
ATOM     14  C   UNL     1       1.121  10.645  20.816  0.00  0.00    +0.000 A 
ATOM     15  C   UNL     1       0.275  11.703  21.175  0.00  0.00    +0.000 A 
ATOM     16  C   UNL     1      -0.823  12.017  20.380  0.00  0.00    +0.000 A 
ATOM     17  C   UNL     1      -1.040  11.305  19.200  0.00  0.00    +0.000 A 
ATOM     18  C   UNL     1      -0.179  10.268  18.824  0.00  0.00    +0.000 A 
ENDBRANCH  10  13
ENDBRANCH   5   7
BRANCH   1  19
ATOM     19  C   UNL     1       4.475   1.996  20.127  0.00  0.00    +0.000 C 
ATOM     20  O   UNL     1       4.600   1.396  19.070  0.00  0.00    +0.000 OA
BRANCH  19  22
ATOM     21  C   UNL     1       5.602   0.499  21.540  0.00  0.00    +0.000 C 
ATOM     22  O   UNL     1       5.336   1.864  21.174  0.00  0.00    +0.000 OA
ENDBRANCH  19  22
ENDBRANCH   1  19
BRANCH   6  23
ATOM     23  C   UNL     1       4.759   4.921  19.587  0.00  0.00    +0.000 C 
BRANCH  23  24
ATOM     24  N   UNL     1       4.753   5.434  18.209  0.00  0.00    +0.000 NA
ATOM     25  C   UNL     1       6.062   5.984  17.795  0.00  0.00    +0.000 C 
ATOM     26  C   UNL     1       6.890   5.340  16.670  0.00  0.00    +0.000 C 
ATOM     27  N   UNL     1       6.059   4.695  15.657  0.00  0.00    +0.000 N 
ATOM     28  C   UNL     1       5.055   3.776  16.207  0.00  0.00    +0.000 C 
ATOM     29  C   UNL     1       4.166   4.467  17.266  0.00  0.00    +0.000 C 
BRANCH  27  30
ATOM     30  C   UNL     1       6.564   4.524  14.369  0.00  0.00    +0.000 A 
ATOM     31  C   UNL     1       7.588   5.333  13.837  0.00  0.00    +0.000 A 
ATOM     32  C   UNL     1       7.948   5.294  12.483  0.00  0.00    +0.000 A 
ATOM     33  C   UNL     1       7.308   4.416  11.621  0.00  0.00    +0.000 A 
ATOM     34  C   UNL     1       6.342   3.551  12.125  0.00  0.00    +0.000 A 
ATOM     35  C   UNL     1       5.986   3.606  13.478  0.00  0.00    +0.000 A 
ENDBRANCH  27  30
ENDBRANCH  23  24
ENDBRANCH   6  23
TORSDOF 7
ENDMDL
MODEL 3
REMARK VINA RESULT:      -8.0      1.205      1.683
REMARK  Name = 
REMARK  8 active torsions:
REMARK  status: ('A' for Active; 'I' for Inactive)
REMARK    1  A    between atoms: C_1  and  O_2
REMARK    2  A    between atoms: O_2  and  C_3
REMARK    3  A    between atoms: C_3  and  C_5
REMARK    4  A    between atoms: C_9  and  N_10
REMARK    5  A    between atoms: N_13  and  C_14
REMARK    6  A    between atoms: C_20  and  C_21
REMARK    7  A    between atoms: C_21  and  N_22
REMARK    8  A    between atoms: N_25  and  C_26
REMARK                            x       y       z     vdW  Elec       q    Type
REMARK                         _______ _______ _______ _____ _____    ______ ____
ROOT
ATOM      1  C   UNL     1       4.821   3.944  16.740  0.00  0.00    +0.000 A 
ATOM      2  C   UNL     1       5.376   3.592  15.500  0.00  0.00    +0.000 A 
ATOM      3  C   UNL     1       6.576   4.149  15.081  0.00  0.00    +0.000 A 
ATOM      4  C   UNL     1       7.285   5.012  15.926  0.00  0.00    +0.000 A 
ATOM      5  C   UNL     1       6.781   5.406  17.173  0.00  0.00    +0.000 A 
ATOM      6  C   UNL     1       5.485   4.921  17.553  0.00  0.00    +0.000 A 
ENDROOT
BRANCH   5   7
ATOM      7  N   UNL     1       7.525   6.268  18.038  0.00  0.00    +0.000 N 
ATOM      8  C   UNL     1       7.651   7.648  17.913  0.00  0.00    +0.000 C 
ATOM      9  O   UNL     1       7.105   8.321  17.040  0.00  0.00    +0.000 OA
ATOM     10  N   UNL     1       8.523   8.210  18.847  0.00  0.00    +0.000 N 
ATOM     11  H   UNL     1       7.960   5.814  18.833  0.00  0.00    +0.000 HD
ATOM     12  H   UNL     1       9.284   7.609  19.121  0.00  0.00    +0.000 HD
BRANCH  10  13
ATOM     13  C   UNL     1       8.810   9.604  18.808  0.00  0.00    +0.000 A 
ATOM     14  C   UNL     1       8.385  10.412  17.745  0.00  0.00    +0.000 A 
ATOM     15  C   UNL     1       8.785  11.753  17.658  0.00  0.00    +0.000 A 
ATOM     16  C   UNL     1       9.619  12.295  18.631  0.00  0.00    +0.000 A 
ATOM     17  C   UNL     1      10.009  11.508  19.715  0.00  0.00    +0.000 A 
ATOM     18  C   UNL     1       9.586  10.179  19.820  0.00  0.00    +0.000 A 
ENDBRANCH  10  13
ENDBRANCH   5   7
BRANCH   1  19
ATOM     19  C   UNL     1       3.564   3.245  17.208  0.00  0.00    +0.000 C 
ATOM     20  O   UNL     1       2.457   3.460  16.737  0.00  0.00    +0.000 OA
BRANCH  19  22
ATOM     21  C   UNL     1       2.726   2.269  19.171  0.00  0.00    +0.000 C 
ATOM     22  O   UNL     1       3.794   2.354  18.212  0.00  0.00    +0.000 OA
ENDBRANCH  19  22
ENDBRANCH   1  19
BRANCH   6  23
ATOM     23  C   UNL     1       4.780   5.469  18.790  0.00  0.00    +0.000 C 
BRANCH  23  24
ATOM     24  N   UNL     1       3.399   5.910  18.541  0.00  0.00    +0.000 NA
ATOM     25  C   UNL     1       2.623   6.097  19.786  0.00  0.00    +0.000 C 
ATOM     26  C   UNL     1       2.106   7.480  20.216  0.00  0.00    +0.000 C 
ATOM     27  N   UNL     1       1.814   8.350  19.080  0.00  0.00    +0.000 N 
ATOM     28  C   UNL     1       2.905   8.442  18.103  0.00  0.00    +0.000 C 
ATOM     29  C   UNL     1       3.346   7.046  17.605  0.00  0.00    +0.000 C 
BRANCH  27  30
ATOM     30  C   UNL     1       0.896   9.389  19.236  0.00  0.00    +0.000 A 
ATOM     31  C   UNL     1       0.552   9.921  20.495  0.00  0.00    +0.000 A 
ATOM     32  C   UNL     1      -0.512  10.816  20.665  0.00  0.00    +0.000 A 
ATOM     33  C   UNL     1      -1.252  11.231  19.567  0.00  0.00    +0.000 A 
ATOM     34  C   UNL     1      -0.895  10.784  18.299  0.00  0.00    +0.000 A 
ATOM     35  C   UNL     1       0.165   9.883  18.144  0.00  0.00    +0.000 A 
ENDBRANCH  27  30
ENDBRANCH  23  24
ENDBRANCH   6  23
TORSDOF 7
ENDMDL
MODEL 4
REMARK VINA RESULT:      -8.0      0.443      1.090
REMARK  Name = 
REMARK  8 active torsions:
REMARK  status: ('A' for Active; 'I' for Inactive)
REMARK    1  A    between atoms: C_1  and  O_2
REMARK    2  A    between atoms: O_2  and  C_3
REMARK    3  A    between atoms: C_3  and  C_5
REMARK    4  A    between atoms: C_9  and  N_10
REMARK    5  A    between atoms: N_13  and  C_14
REMARK    6  A    between atoms: C_20  and  C_21
REMARK    7  A    between atoms: C_21  and  N_22
REMARK    8  A    between atoms: N_25  and  C_26
REMARK                            x       y       z     vdW  Elec       q    Type
REMARK                         _______ _______ _______ _____ _____    ______ ____
ROOT
ATOM      1  C   UNL     1       5.092   4.315  17.589  0.00  0.00    +0.000 A 
ATOM      2  C   UNL     1       5.594   3.635  16.468  0.00  0.00    +0.000 A 
ATOM      3  C   UNL     1       6.353   4.305  15.518  0.00  0.00    +0.000 A 
ATOM      4  C   UNL     1       6.690   5.651  15.709  0.00  0.00    +0.000 A 
ATOM      5  C   UNL     1       6.216   6.386  16.804  0.00  0.00    +0.000 A 
ATOM      6  C   UNL     1       5.335   5.721  17.723  0.00  0.00    +0.000 A 
ENDROOT
BRANCH   5   7
ATOM      7  N   UNL     1       6.587   7.752  17.002  0.00  0.00    +0.000 N 
ATOM      8  C   UNL     1       7.711   8.208  17.682  0.00  0.00    +0.000 C 
ATOM      9  O   UNL     1       8.563   7.478  18.187  0.00  0.00    +0.000 OA
ATOM     10  N   UNL     1       7.760   9.598  17.802  0.00  0.00    +0.000 N 
ATOM     11  H   UNL     1       5.980   8.435  16.562  0.00  0.00    +0.000 HD
ATOM     12  H   UNL     1       6.857  10.042  17.867  0.00  0.00    +0.000 HD
BRANCH  10  13
ATOM     13  C   UNL     1       8.815  10.216  18.529  0.00  0.00    +0.000 A 
ATOM     14  C   UNL     1       8.807  10.275  19.929  0.00  0.00    +0.000 A 
ATOM     15  C   UNL     1       9.786  10.999  20.624  0.00  0.00    +0.000 A 
ATOM     16  C   UNL     1      10.779  11.676  19.923  0.00  0.00    +0.000 A 
ATOM     17  C   UNL     1      10.820  11.584  18.531  0.00  0.00    +0.000 A 
ATOM     18  C   UNL     1       9.861  10.837  17.837  0.00  0.00    +0.000 A 
ENDBRANCH  10  13
ENDBRANCH   5   7
BRANCH   1  19
ATOM     19  C   UNL     1       4.353   3.532  18.652  0.00  0.00    +0.000 C 
ATOM     20  O   UNL     1       4.854   3.202  19.716  0.00  0.00    +0.000 OA
BRANCH  19  22
ATOM     21  C   UNL     1       2.401   2.364  19.225  0.00  0.00    +0.000 C 
ATOM     22  O   UNL     1       3.073   3.231  18.296  0.00  0.00    +0.000 OA
ENDBRANCH  19  22
ENDBRANCH   1  19
BRANCH   6  23
ATOM     23  C   UNL     1       4.612   6.505  18.813  0.00  0.00    +0.000 C 
BRANCH  23  24
ATOM     24  N   UNL     1       3.199   6.781  18.511  0.00  0.00    +0.000 NA
ATOM     25  C   UNL     1       2.366   6.908  19.726  0.00  0.00    +0.000 C 
ATOM     26  C   UNL     1       1.683   8.233  20.103  0.00  0.00    +0.000 C 
ATOM     27  N   UNL     1       1.333   9.039  18.935  0.00  0.00    +0.000 N 
ATOM     28  C   UNL     1       2.439   9.230  17.990  0.00  0.00    +0.000 C 
ATOM     29  C   UNL     1       3.050   7.882  17.543  0.00  0.00    +0.000 C 
BRANCH  27  30
ATOM     30  C   UNL     1       0.300   9.971  19.034  0.00  0.00    +0.000 A 
ATOM     31  C   UNL     1       0.093  10.761  20.183  0.00  0.00    +0.000 A 
ATOM     32  C   UNL     1      -1.057  11.541  20.359  0.00  0.00    +0.000 A 
ATOM     33  C   UNL     1      -2.029  11.577  19.369  0.00  0.00    +0.000 A 
ATOM     34  C   UNL     1      -1.825  10.867  18.191  0.00  0.00    +0.000 A 
ATOM     35  C   UNL     1      -0.675  10.084  18.031  0.00  0.00    +0.000 A 
ENDBRANCH  27  30
ENDBRANCH  23  24
ENDBRANCH   6  23
TORSDOF 7
ENDMDL
MODEL 5
REMARK VINA RESULT:      -7.9      3.421      7.802
REMARK  Name = 
REMARK  8 active torsions:
REMARK  status: ('A' for Active; 'I' for Inactive)
REMARK    1  A    between atoms: C_1  and  O_2
REMARK    2  A    between atoms: O_2  and  C_3
REMARK    3  A    between atoms: C_3  and  C_5
REMARK    4  A    between atoms: C_9  and  N_10
REMARK    5  A    between atoms: N_13  and  C_14
REMARK    6  A    between atoms: C_20  and  C_21
REMARK    7  A    between atoms: C_21  and  N_22
REMARK    8  A    between atoms: N_25  and  C_26
REMARK                            x       y       z     vdW  Elec       q    Type
REMARK                         _______ _______ _______ _____ _____    ______ ____
ROOT
ATOM      1  C   UNL     1       3.358   3.157  20.482  0.00  0.00    +0.000 A 
ATOM      2  C   UNL     1       2.178   2.703  21.093  0.00  0.00    +0.000 A 
ATOM      3  C   UNL     1       1.056   3.517  21.153  0.00  0.00    +0.000 A 
ATOM      4  C   UNL     1       1.064   4.774  20.536  0.00  0.00    +0.000 A 
ATOM      5  C   UNL     1       2.212   5.286  19.914  0.00  0.00    +0.000 A 
ATOM      6  C   UNL     1       3.406   4.490  19.956  0.00  0.00    +0.000 A 
ENDROOT
BRANCH   5   7
ATOM      7  N   UNL     1       2.201   6.560  19.265  0.00  0.00    +0.000 N 
ATOM      8  C   UNL     1       1.673   7.740  19.779  0.00  0.00    +0.000 C 
ATOM      9  O   UNL     1       1.161   7.847  20.893  0.00  0.00    +0.000 OA
ATOM     10  N   UNL     1       1.717   8.804  18.877  0.00  0.00    +0.000 N 
ATOM     11  H   UNL     1       2.664   6.591  18.364  0.00  0.00    +0.000 HD
ATOM     12  H   UNL     1       1.627   8.534  17.910  0.00  0.00    +0.000 HD
BRANCH  10  13
ATOM     13  C   UNL     1       1.155  10.063  19.230  0.00  0.00    +0.000 A 
ATOM     14  C   UNL     1       1.802  11.268  18.925  0.00  0.00    +0.000 A 
ATOM     15  C   UNL     1       1.301  12.492  19.391  0.00  0.00    +0.000 A 
ATOM     16  C   UNL     1       0.150  12.520  20.173  0.00  0.00    +0.000 A 
ATOM     17  C   UNL     1      -0.525  11.328  20.442  0.00  0.00    +0.000 A 
ATOM     18  C   UNL     1      -0.043  10.109  19.951  0.00  0.00    +0.000 A 
ENDBRANCH  10  13
ENDBRANCH   5   7
BRANCH   1  19
ATOM     19  C   UNL     1       4.528   2.209  20.347  0.00  0.00    +0.000 C 
ATOM     20  O   UNL     1       5.183   1.807  21.297  0.00  0.00    +0.000 OA
BRANCH  19  22
ATOM     21  C   UNL     1       3.685   1.169  18.419  0.00  0.00    +0.000 C 
ATOM     22  O   UNL     1       4.778   1.854  19.056  0.00  0.00    +0.000 OA
ENDBRANCH  19  22
ENDBRANCH   1  19
BRANCH   6  23
ATOM     23  C   UNL     1       4.741   5.064  19.493  0.00  0.00    +0.000 C 
BRANCH  23  24
ATOM     24  N   UNL     1       4.733   5.539  18.101  0.00  0.00    +0.000 NA
ATOM     25  C   UNL     1       6.037   6.095  17.677  0.00  0.00    +0.000 C 
ATOM     26  C   UNL     1       6.876   5.432  16.572  0.00  0.00    +0.000 C 
ATOM     27  N   UNL     1       6.056   4.750  15.574  0.00  0.00    +0.000 N 
ATOM     28  C   UNL     1       5.062   3.833  16.145  0.00  0.00    +0.000 C 
ATOM     29  C   UNL     1       4.160   4.540  17.183  0.00  0.00    +0.000 C 
BRANCH  27  30
ATOM     30  C   UNL     1       6.567   4.551  14.292  0.00  0.00    +0.000 A 
ATOM     31  C   UNL     1       7.546   5.389  13.722  0.00  0.00    +0.000 A 
ATOM     32  C   UNL     1       7.905   5.311  12.370  0.00  0.00    +0.000 A 
ATOM     33  C   UNL     1       7.311   4.365  11.548  0.00  0.00    +0.000 A 
ATOM     34  C   UNL     1       6.392   3.473  12.092  0.00  0.00    +0.000 A 
ATOM     35  C   UNL     1       6.036   3.567  13.443  0.00  0.00    +0.000 A 
ENDBRANCH  27  30
ENDBRANCH  23  24
ENDBRANCH   6  23
TORSDOF 7
ENDMDL
MODEL 6
REMARK VINA RESULT:      -7.6      0.519      1.175
REMARK  Name = 
REMARK  8 active torsions:
REMARK  status: ('A' for Active; 'I' for Inactive)
REMARK    1  A    between atoms: C_1  and  O_2
REMARK    2  A    between atoms: O_2  and  C_3
REMARK    3  A    between atoms: C_3  and  C_5
REMARK    4  A    between atoms: C_9  and  N_10
REMARK    5  A    between atoms: N_13  and  C_14
REMARK    6  A    between atoms: C_20  and  C_21
REMARK    7  A    between atoms: C_21  and  N_22
REMARK    8  A    between atoms: N_25  and  C_26
REMARK                            x       y       z     vdW  Elec       q    Type
REMARK                         _______ _______ _______ _____ _____    ______ ____
ROOT
ATOM      1  C   UNL     1       5.109   4.351  17.722  0.00  0.00    +0.000 A 
ATOM      2  C   UNL     1       5.643   3.630  16.642  0.00  0.00    +0.000 A 
ATOM      3  C   UNL     1       6.416   4.268  15.681  0.00  0.00    +0.000 A 
ATOM      4  C   UNL     1       6.736   5.624  15.822  0.00  0.00    +0.000 A 
ATOM      5  C   UNL     1       6.229   6.399  16.875  0.00  0.00    +0.000 A 
ATOM      6  C   UNL     1       5.335   5.764  17.801  0.00  0.00    +0.000 A 
ENDROOT
BRANCH   5   7
ATOM      7  N   UNL     1       6.583   7.777  17.022  0.00  0.00    +0.000 N 
ATOM      8  C   UNL     1       7.695   8.272  17.695  0.00  0.00    +0.000 C 
ATOM      9  O   UNL     1       8.550   7.573  18.237  0.00  0.00    +0.000 OA
ATOM     10  N   UNL     1       7.725   9.666  17.760  0.00  0.00    +0.000 N 
ATOM     11  H   UNL     1       5.972   8.434  16.550  0.00  0.00    +0.000 HD
ATOM     12  H   UNL     1       6.817  10.102  17.799  0.00  0.00    +0.000 HD
BRANCH  10  13
ATOM     13  C   UNL     1       8.766  10.326  18.473  0.00  0.00    +0.000 A 
ATOM     14  C   UNL     1       9.847  10.923  17.809  0.00  0.00    +0.000 A 
ATOM     15  C   UNL     1      10.926  11.455  18.528  0.00  0.00    +0.000 A 
ATOM     16  C   UNL     1      10.938  11.387  19.918  0.00  0.00    +0.000 A 
ATOM     17  C   UNL     1       9.844  10.834  20.586  0.00  0.00    +0.000 A 
ATOM     18  C   UNL     1       8.752  10.331  19.871  0.00  0.00    +0.000 A 
ENDBRANCH  10  13
ENDBRANCH   5   7
BRANCH   1  19
ATOM     19  C   UNL     1       4.355   3.606  18.801  0.00  0.00    +0.000 C 
ATOM     20  O   UNL     1       4.887   3.139  19.796  0.00  0.00    +0.000 OA
BRANCH  19  22
ATOM     21  C   UNL     1       2.593   2.182  18.188  0.00  0.00    +0.000 C 
ATOM     22  O   UNL     1       3.020   3.508  18.544  0.00  0.00    +0.000 OA
ENDBRANCH  19  22
ENDBRANCH   1  19
BRANCH   6  23
ATOM     23  C   UNL     1       4.580   6.586  18.841  0.00  0.00    +0.000 C 
BRANCH  23  24
ATOM     24  N   UNL     1       3.174   6.839  18.493  0.00  0.00    +0.000 NA
ATOM     25  C   UNL     1       2.305   6.984  19.681  0.00  0.00    +0.000 C 
ATOM     26  C   UNL     1       1.598   8.310  20.008  0.00  0.00    +0.000 C 
ATOM     27  N   UNL     1       1.272   9.085  18.814  0.00  0.00    +0.000 N 
ATOM     28  C   UNL     1       2.402   9.267  17.895  0.00  0.00    +0.000 C 
ATOM     29  C   UNL     1       3.041   7.916  17.497  0.00  0.00    +0.000 C 
BRANCH  27  30
ATOM     30  C   UNL     1       0.228  10.007  18.863  0.00  0.00    +0.000 A 
ATOM     31  C   UNL     1      -0.889   9.941  18.005  0.00  0.00    +0.000 A 
ATOM     32  C   UNL     1      -1.829  10.977  17.917  0.00  0.00    +0.000 A 
ATOM     33  C   UNL     1      -1.694  12.105  18.712  0.00  0.00    +0.000 A 
ATOM     34  C   UNL     1      -0.644  12.173  19.622  0.00  0.00    +0.000 A 
ATOM     35  C   UNL     1       0.293  11.136  19.694  0.00  0.00    +0.000 A 
ENDBRANCH  27  30
ENDBRANCH  23  24
ENDBRANCH   6  23
TORSDOF 7
ENDMDL
MODEL 7
REMARK VINA RESULT:      -7.6      3.441      7.846
REMARK  Name = 
REMARK  8 active torsions:
REMARK  status: ('A' for Active; 'I' for Inactive)
REMARK    1  A    between atoms: C_1  and  O_2
REMARK    2  A    between atoms: O_2  and  C_3
REMARK    3  A    between atoms: C_3  and  C_5
REMARK    4  A    between atoms: C_9  and  N_10
REMARK    5  A    between atoms: N_13  and  C_14
REMARK    6  A    between atoms: C_20  and  C_21
REMARK    7  A    between atoms: C_21  and  N_22
REMARK    8  A    between atoms: N_25  and  C_26
REMARK                            x       y       z     vdW  Elec       q    Type
REMARK                         _______ _______ _______ _____ _____    ______ ____
ROOT
ATOM      1  C   UNL     1       3.277   3.175  20.178  0.00  0.00    +0.000 A 
ATOM      2  C   UNL     1       2.075   2.639  20.669  0.00  0.00    +0.000 A 
ATOM      3  C   UNL     1       0.990   3.463  20.931  0.00  0.00    +0.000 A 
ATOM      4  C   UNL     1       1.058   4.831  20.637  0.00  0.00    +0.000 A 
ATOM      5  C   UNL     1       2.230   5.427  20.151  0.00  0.00    +0.000 A 
ATOM      6  C   UNL     1       3.387   4.591  19.991  0.00  0.00    +0.000 A 
ENDROOT
BRANCH   5   7
ATOM      7  N   UNL     1       2.280   6.819  19.830  0.00  0.00    +0.000 N 
ATOM      8  C   UNL     1       1.512   7.823  20.409  0.00  0.00    +0.000 C 
ATOM      9  O   UNL     1       0.694   7.643  21.311  0.00  0.00    +0.000 OA
ATOM     10  N   UNL     1       1.707   9.075  19.824  0.00  0.00    +0.000 N 
ATOM     11  H   UNL     1       2.976   7.081  19.142  0.00  0.00    +0.000 HD
ATOM     12  H   UNL     1       1.926   9.046  18.840  0.00  0.00    +0.000 HD
BRANCH  10  13
ATOM     13  C   UNL     1       0.945  10.196  20.261  0.00  0.00    +0.000 A 
ATOM     14  C   UNL     1       0.502  10.311  21.586  0.00  0.00    +0.000 A 
ATOM     15  C   UNL     1      -0.354  11.353  21.969  0.00  0.00    +0.000 A 
ATOM     16  C   UNL     1      -0.781  12.285  21.028  0.00  0.00    +0.000 A 
ATOM     17  C   UNL     1      -0.307  12.202  19.718  0.00  0.00    +0.000 A 
ATOM     18  C   UNL     1       0.571  11.180  19.341  0.00  0.00    +0.000 A 
ENDBRANCH  10  13
ENDBRANCH   5   7
BRANCH   1  19
ATOM     19  C   UNL     1       4.404   2.236  19.810  0.00  0.00    +0.000 C 
ATOM     20  O   UNL     1       5.243   1.845  20.607  0.00  0.00    +0.000 OA
BRANCH  19  22
ATOM     21  C   UNL     1       3.093   1.471  18.020  0.00  0.00    +0.000 C 
ATOM     22  O   UNL     1       4.388   1.876  18.496  0.00  0.00    +0.000 OA
ENDBRANCH  19  22
ENDBRANCH   1  19
BRANCH   6  23
ATOM     23  C   UNL     1       4.749   5.200  19.672  0.00  0.00    +0.000 C 
BRANCH  23  24
ATOM     24  N   UNL     1       4.838   5.787  18.327  0.00  0.00    +0.000 NA
ATOM     25  C   UNL     1       6.233   5.992  17.881  0.00  0.00    +0.000 C 
ATOM     26  C   UNL     1       6.818   5.227  16.682  0.00  0.00    +0.000 C 
ATOM     27  N   UNL     1       5.811   4.899  15.676  0.00  0.00    +0.000 N 
ATOM     28  C   UNL     1       4.614   4.248  16.222  0.00  0.00    +0.000 C 
ATOM     29  C   UNL     1       3.980   5.080  17.361  0.00  0.00    +0.000 C 
BRANCH  27  30
ATOM     30  C   UNL     1       6.208   4.686  14.356  0.00  0.00    +0.000 A 
ATOM     31  C   UNL     1       5.606   3.720  13.525  0.00  0.00    +0.000 A 
ATOM     32  C   UNL     1       6.138   3.369  12.278  0.00  0.00    +0.000 A 
ATOM     33  C   UNL     1       7.281   3.998  11.809  0.00  0.00    +0.000 A 
ATOM     34  C   UNL     1       7.862   5.007  12.570  0.00  0.00    +0.000 A 
ATOM     35  C   UNL     1       7.325   5.343  13.819  0.00  0.00    +0.000 A 
ENDBRANCH  27  30
ENDBRANCH  23  24
ENDBRANCH   6  23
TORSDOF 7
ENDMDL
MODEL 8
REMARK VINA RESULT:      -7.5      1.229      1.345
REMARK  Name = 
REMARK  8 active torsions:
REMARK  status: ('A' for Active; 'I' for Inactive)
REMARK    1  A    between atoms: C_1  and  O_2
REMARK    2  A    between atoms: O_2  and  C_3
REMARK    3  A    between atoms: C_3  and  C_5
REMARK    4  A    between atoms: C_9  and  N_10
REMARK    5  A    between atoms: N_13  and  C_14
REMARK    6  A    between atoms: C_20  and  C_21
REMARK    7  A    between atoms: C_21  and  N_22
REMARK    8  A    between atoms: N_25  and  C_26
REMARK                            x       y       z     vdW  Elec       q    Type
REMARK                         _______ _______ _______ _____ _____    ______ ____
ROOT
ATOM      1  C   UNL     1       4.795   4.076  16.930  0.00  0.00    +0.000 A 
ATOM      2  C   UNL     1       5.413   3.608  15.759  0.00  0.00    +0.000 A 
ATOM      3  C   UNL     1       6.659   4.088  15.379  0.00  0.00    +0.000 A 
ATOM      4  C   UNL     1       7.347   4.990  16.201  0.00  0.00    +0.000 A 
ATOM      5  C   UNL     1       6.781   5.498  17.379  0.00  0.00    +0.000 A 
ATOM      6  C   UNL     1       5.445   5.089  17.709  0.00  0.00    +0.000 A 
ENDROOT
BRANCH   5   7
ATOM      7  N   UNL     1       7.503   6.398  18.224  0.00  0.00    +0.000 N 
ATOM      8  C   UNL     1       7.717   7.752  17.987  0.00  0.00    +0.000 C 
ATOM      9  O   UNL     1       7.280   8.368  17.016  0.00  0.00    +0.000 OA
ATOM     10  N   UNL     1       8.544   8.354  18.937  0.00  0.00    +0.000 N 
ATOM     11  H   UNL     1       7.847   5.999  19.089  0.00  0.00    +0.000 HD
ATOM     12  H   UNL     1       9.246   7.744  19.327  0.00  0.00    +0.000 HD
BRANCH  10  13
ATOM     13  C   UNL     1       8.912   9.722  18.800  0.00  0.00    +0.000 A 
ATOM     14  C   UNL     1       9.730  10.361  19.741  0.00  0.00    +0.000 A 
ATOM     15  C   UNL     1       9.978  11.739  19.661  0.00  0.00    +0.000 A 
ATOM     16  C   UNL     1       9.403  12.491  18.641  0.00  0.00    +0.000 A 
ATOM     17  C   UNL     1       8.624  11.853  17.675  0.00  0.00    +0.000 A 
ATOM     18  C   UNL     1       8.401  10.473  17.736  0.00  0.00    +0.000 A 
ENDBRANCH  10  13
ENDBRANCH   5   7
BRANCH   1  19
ATOM     19  C   UNL     1       3.484   3.459  17.366  0.00  0.00    +0.000 C 
ATOM     20  O   UNL     1       2.442   3.578  16.739  0.00  0.00    +0.000 OA
BRANCH  19  22
ATOM     21  C   UNL     1       2.421   1.981  18.846  0.00  0.00    +0.000 C 
ATOM     22  O   UNL     1       3.587   2.763  18.532  0.00  0.00    +0.000 OA
ENDBRANCH  19  22
ENDBRANCH   1  19
BRANCH   6  23
ATOM     23  C   UNL     1       4.686   5.756  18.851  0.00  0.00    +0.000 C 
BRANCH  23  24
ATOM     24  N   UNL     1       3.335   6.206  18.485  0.00  0.00    +0.000 NA
ATOM     25  C   UNL     1       2.465   6.426  19.661  0.00  0.00    +0.000 C 
ATOM     26  C   UNL     1       1.931   7.822  20.021  0.00  0.00    +0.000 C 
ATOM     27  N   UNL     1       1.739   8.672  18.849  0.00  0.00    +0.000 N 
ATOM     28  C   UNL     1       2.905   8.733  17.959  0.00  0.00    +0.000 C 
ATOM     29  C   UNL     1       3.369   7.323  17.526  0.00  0.00    +0.000 C 
BRANCH  27  30
ATOM     30  C   UNL     1       0.824   9.723  18.910  0.00  0.00    +0.000 A 
ATOM     31  C   UNL     1      -0.394   9.716  18.202  0.00  0.00    +0.000 A 
ATOM     32  C   UNL     1      -1.210  10.851  18.103  0.00  0.00    +0.000 A 
ATOM     33  C   UNL     1      -0.842  12.027  18.739  0.00  0.00    +0.000 A 
ATOM     34  C   UNL     1       0.317  12.050  19.507  0.00  0.00    +0.000 A 
ATOM     35  C   UNL     1       1.128  10.912  19.591  0.00  0.00    +0.000 A 
ENDBRANCH  27  30
ENDBRANCH  23  24
ENDBRANCH   6  23
TORSDOF 7
ENDMDL
MODEL 9
REMARK VINA RESULT:      -7.5      1.277      1.766
REMARK  Name = 
REMARK  8 active torsions:
REMARK  status: ('A' for Active; 'I' for Inactive)
REMARK    1  A    between atoms: C_1  and  O_2
REMARK    2  A    between atoms: O_2  and  C_3
REMARK    3  A    between atoms: C_3  and  C_5
REMARK    4  A    between atoms: C_9  and  N_10
REMARK    5  A    between atoms: N_13  and  C_14
REMARK    6  A    between atoms: C_20  and  C_21
REMARK    7  A    between atoms: C_21  and  N_22
REMARK    8  A    between atoms: N_25  and  C_26
REMARK                            x       y       z     vdW  Elec       q    Type
REMARK                         _______ _______ _______ _____ _____    ______ ____
ROOT
ATOM      1  C   UNL     1       4.972   3.930  16.985  0.00  0.00    +0.000 A 
ATOM      2  C   UNL     1       5.555   3.591  15.754  0.00  0.00    +0.000 A 
ATOM      3  C   UNL     1       6.727   4.206  15.334  0.00  0.00    +0.000 A 
ATOM      4  C   UNL     1       7.381   5.119  16.171  0.00  0.00    +0.000 A 
ATOM      5  C   UNL     1       6.848   5.503  17.409  0.00  0.00    +0.000 A 
ATOM      6  C   UNL     1       5.577   4.953  17.788  0.00  0.00    +0.000 A 
ENDROOT
BRANCH   5   7
ATOM      7  N   UNL     1       7.537   6.417  18.266  0.00  0.00    +0.000 N 
ATOM      8  C   UNL     1       7.768   7.765  18.013  0.00  0.00    +0.000 C 
ATOM      9  O   UNL     1       7.377   8.363  17.012  0.00  0.00    +0.000 OA
ATOM     10  N   UNL     1       8.557   8.382  18.986  0.00  0.00    +0.000 N 
ATOM     11  H   UNL     1       7.842   6.033  19.153  0.00  0.00    +0.000 HD
ATOM     12  H   UNL     1       9.238   7.776  19.417  0.00  0.00    +0.000 HD
BRANCH  10  13
ATOM     13  C   UNL     1       8.938   9.745  18.837  0.00  0.00    +0.000 A 
ATOM     14  C   UNL     1       9.726  10.396  19.796  0.00  0.00    +0.000 A 
ATOM     15  C   UNL     1       9.985  11.771  19.701  0.00  0.00    +0.000 A 
ATOM     16  C   UNL     1       9.451  12.508  18.648  0.00  0.00    +0.000 A 
ATOM     17  C   UNL     1       8.703  11.857  17.666  0.00  0.00    +0.000 A 
ATOM     18  C   UNL     1       8.469  10.480  17.743  0.00  0.00    +0.000 A 
ENDBRANCH  10  13
ENDBRANCH   5   7
BRANCH   1  19
ATOM     19  C   UNL     1       3.752   3.170  17.455  0.00  0.00    +0.000 C 
ATOM     20  O   UNL     1       3.797   2.259  18.268  0.00  0.00    +0.000 OA
BRANCH  19  22
ATOM     21  C   UNL     1       1.439   3.471  17.713  0.00  0.00    +0.000 C 
ATOM     22  O   UNL     1       2.600   3.605  16.874  0.00  0.00    +0.000 OA
ENDBRANCH  19  22
ENDBRANCH   1  19
BRANCH   6  23
ATOM     23  C   UNL     1       4.834   5.480  19.012  0.00  0.00    +0.000 C 
BRANCH  23  24
ATOM     24  N   UNL     1       3.449   5.890  18.737  0.00  0.00    +0.000 NA
ATOM     25  C   UNL     1       2.663   6.120  19.968  0.00  0.00    +0.000 C 
ATOM     26  C   UNL     1       2.124   7.514  20.334  0.00  0.00    +0.000 C 
ATOM     27  N   UNL     1       1.826   8.329  19.159  0.00  0.00    +0.000 N 
ATOM     28  C   UNL     1       2.922   8.393  18.184  0.00  0.00    +0.000 C 
ATOM     29  C   UNL     1       3.386   6.983  17.751  0.00  0.00    +0.000 C 
BRANCH  27  30
ATOM     30  C   UNL     1       0.894   9.361  19.264  0.00  0.00    +0.000 A 
ATOM     31  C   UNL     1       0.486   9.898  20.501  0.00  0.00    +0.000 A 
ATOM     32  C   UNL     1      -0.593  10.784  20.614  0.00  0.00    +0.000 A 
ATOM     33  C   UNL     1      -1.283  11.186  19.480  0.00  0.00    +0.000 A 
ATOM     34  C   UNL     1      -0.863  10.733  18.234  0.00  0.00    +0.000 A 
ATOM     35  C   UNL     1       0.211   9.840  18.135  0.00  0.00    +0.000 A 
ENDBRANCH  27  30
ENDBRANCH  23  24
ENDBRANCH   6  23
TORSDOF 7
ENDMDL
