MODEL 1
REMARK VINA RESULT:      -6.5      0.000      0.000
REMARK  Name = 
REMARK  9 active torsions:
REMARK  status: ('A' for Active; 'I' for Inactive)
REMARK    1  A    between atoms: C_1  and  C_2
REMARK    2  A    between atoms: C_2  and  C_3
REMARK    3  A    between atoms: C_3  and  C_4
REMARK    4  A    between atoms: C_4  and  N_5
REMARK    5  A    between atoms: C_7  and  C_8
REMARK    6  A    between atoms: C_12  and  C_13
REMARK    7  A    between atoms: C_13  and  C_14
REMARK    8  A    between atoms: C_14  and  C_15
REMARK    9  A    between atoms: C_15  and  N_16
REMARK                            x       y       z     vdW  Elec       q    Type
REMARK                         _______ _______ _______ _____ _____    ______ ____
ROOT
ATOM      1  N   UNL     1       2.495   4.654  17.988  0.00  0.00    +0.000 N 
ATOM      2  N   UNL     1       2.039   5.796  18.536  0.00  0.00    +0.000 NA
ATOM      3  C   UNL     1       2.913   6.692  18.076  0.00  0.00    +0.000 A 
ATOM      4  N   UNL     1       3.945   6.157  17.352  0.00  0.00    +0.000 NA
ATOM      5  C   UNL     1       3.683   4.865  17.333  0.00  0.00    +0.000 A 
ENDROOT
BRANCH   3   6
ATOM      6  C   UNL     1       2.778   8.179  18.344  0.00  0.00    +0.000 C 
ATOM      7  C   UNL     1       1.629   8.915  17.682  0.00  0.00    +0.000 C 
ATOM      8  C   UNL     1       1.594   8.671  19.152  0.00  0.00    +0.000 C 
ENDBRANCH   3   6
BRANCH   1   9
ATOM      9  C   UNL     1       1.709   3.445  18.123  0.00  0.00    +0.000 C 
BRANCH   9  10
ATOM     10  C   UNL     1       2.130   2.565  19.307  0.00  0.00    +0.000 C 
BRANCH  10  12
ATOM     11  C   UNL     1       2.115   3.429  21.678  0.00  0.00    +0.000 C 
ATOM     12  C   UNL     1       1.288   2.811  20.562  0.00  0.00    +0.000 C 
ENDBRANCH  10  12
ENDBRANCH   9  10
ENDBRANCH   1   9
BRANCH   5  13
ATOM     13  C   UNL     1       4.541   3.839  16.677  0.00  0.00    +0.000 C 
BRANCH  13  14
ATOM     14  C   UNL     1       5.508   4.454  15.658  0.00  0.00    +0.000 C 
BRANCH  14  15
ATOM     15  C   UNL     1       6.979   4.309  16.041  0.00  0.00    +0.000 C 
BRANCH  15  16
ATOM     16  N   UNL     1       7.313   5.162  17.165  0.00  0.00    +0.000 N 
ATOM     17  C   UNL     1       7.390   6.517  17.191  0.00  0.00    +0.000 A 
ATOM     18  N   UNL     1       7.768   6.913  18.385  0.00  0.00    +0.000 NA
ATOM     19  C   UNL     1       7.913   5.739  19.065  0.00  0.00    +0.000 A 
ATOM     20  N   UNL     1       7.641   4.634  18.362  0.00  0.00    +0.000 NA
ENDBRANCH  15  16
ENDBRANCH  14  15
ENDBRANCH  13  14
ENDBRANCH   5  13
TORSDOF 8
ENDMDL
MODEL 2
REMARK VINA RESULT:      -6.5      0.857      1.186
REMARK  Name = 
REMARK  9 active torsions:
REMARK  status: ('A' for Active; 'I' for Inactive)
REMARK    1  A    between atoms: C_1  and  C_2
REMARK    2  A    between atoms: C_2  and  C_3
REMARK    3  A    between atoms: C_3  and  C_4
REMARK    4  A    between atoms: C_4  and  N_5
REMARK    5  A    between atoms: C_7  and  C_8
REMARK    6  A    between atoms: C_12  and  C_13
REMARK    7  A    between atoms: C_13  and  C_14
REMARK    8  A    between atoms: C_14  and  C_15
REMARK    9  A    between atoms: C_15  and  N_16
REMARK                            x       y       z     vdW  Elec       q    Type
REMARK                         _______ _______ _______ _____ _____    ______ ____
ROOT
ATOM      1  N   UNL     1       3.102   5.327  19.218  0.00  0.00    +0.000 N 
ATOM      2  N   UNL     1       2.687   6.579  19.489  0.00  0.00    +0.000 NA
ATOM      3  C   UNL     1       2.923   7.204  18.334  0.00  0.00    +0.000 A 
ATOM      4  N   UNL     1       3.551   6.435  17.391  0.00  0.00    +0.000 NA
ATOM      5  C   UNL     1       3.686   5.262  17.976  0.00  0.00    +0.000 A 
ENDROOT
BRANCH   3   6
ATOM      6  C   UNL     1       2.535   8.650  18.093  0.00  0.00    +0.000 C 
ATOM      7  C   UNL     1       1.140   8.930  17.570  0.00  0.00    +0.000 C 
ATOM      8  C   UNL     1       1.478   9.281  18.978  0.00  0.00    +0.000 C 
ENDBRANCH   3   6
BRANCH   1   9
ATOM      9  C   UNL     1       2.861   4.280  20.189  0.00  0.00    +0.000 C 
BRANCH   9  10
ATOM     10  C   UNL     1       1.375   4.061  20.502  0.00  0.00    +0.000 C 
BRANCH  10  12
ATOM     11  C   UNL     1       1.740   1.983  19.116  0.00  0.00    +0.000 C 
ATOM     12  C   UNL     1       0.726   3.008  19.599  0.00  0.00    +0.000 C 
ENDBRANCH  10  12
ENDBRANCH   9  10
ENDBRANCH   1   9
BRANCH   5  13
ATOM     13  C   UNL     1       4.342   4.078  17.355  0.00  0.00    +0.000 C 
BRANCH  13  14
ATOM     14  C   UNL     1       5.108   4.441  16.076  0.00  0.00    +0.000 C 
BRANCH  14  15
ATOM     15  C   UNL     1       6.623   4.308  16.208  0.00  0.00    +0.000 C 
BRANCH  15  16
ATOM     16  N   UNL     1       7.134   5.166  17.258  0.00  0.00    +0.000 N 
ATOM     17  C   UNL     1       7.264   6.518  17.244  0.00  0.00    +0.000 A 
ATOM     18  N   UNL     1       7.811   6.919  18.368  0.00  0.00    +0.000 NA
ATOM     19  C   UNL     1       8.002   5.752  19.049  0.00  0.00    +0.000 A 
ATOM     20  N   UNL     1       7.598   4.647  18.414  0.00  0.00    +0.000 NA
ENDBRANCH  15  16
ENDBRANCH  14  15
ENDBRANCH  13  14
ENDBRANCH   5  13
TORSDOF 8
ENDMDL
MODEL 3
REMARK VINA RESULT:      -6.3      2.389      6.194
REMARK  Name = 
REMARK  9 active torsions:
REMARK  status: ('A' for Active; 'I' for Inactive)
REMARK    1  A    between atoms: C_1  and  C_2
REMARK    2  A    between atoms: C_2  and  C_3
REMARK    3  A    between atoms: C_3  and  C_4
REMARK    4  A    between atoms: C_4  and  N_5
REMARK    5  A    between atoms: C_7  and  C_8
REMARK    6  A    between atoms: C_12  and  C_13
REMARK    7  A    between atoms: C_13  and  C_14
REMARK    8  A    between atoms: C_14  and  C_15
REMARK    9  A    between atoms: C_15  and  N_16
REMARK                            x       y       z     vdW  Elec       q    Type
REMARK                         _______ _______ _______ _____ _____    ______ ____
ROOT
ATOM      1  N   UNL     1       5.498   3.984  16.015  0.00  0.00    +0.000 N 
ATOM      2  N   UNL     1       6.687   4.579  16.231  0.00  0.00    +0.000 NA
ATOM      3  C   UNL     1       6.717   4.660  17.563  0.00  0.00    +0.000 A 
ATOM      4  N   UNL     1       5.572   4.237  18.183  0.00  0.00    +0.000 NA
ATOM      5  C   UNL     1       4.800   3.843  17.189  0.00  0.00    +0.000 A 
ENDROOT
BRANCH   3   6
ATOM      6  C   UNL     1       7.919   5.186  18.323  0.00  0.00    +0.000 C 
ATOM      7  C   UNL     1       7.977   6.674  18.612  0.00  0.00    +0.000 C 
ATOM      8  C   UNL     1       7.719   5.721  19.727  0.00  0.00    +0.000 C 
ENDBRANCH   3   6
BRANCH   1   9
ATOM      9  C   UNL     1       5.155   3.567  14.671  0.00  0.00    +0.000 C 
BRANCH   9  10
ATOM     10  C   UNL     1       6.113   4.099  13.598  0.00  0.00    +0.000 C 
BRANCH  10  12
ATOM     11  C   UNL     1       4.640   3.304  11.708  0.00  0.00    +0.000 C 
ATOM     12  C   UNL     1       6.044   3.303  12.291  0.00  0.00    +0.000 C 
ENDBRANCH  10  12
ENDBRANCH   9  10
ENDBRANCH   1   9
BRANCH   5  13
ATOM     13  C   UNL     1       3.417   3.315  17.352  0.00  0.00    +0.000 C 
BRANCH  13  14
ATOM     14  C   UNL     1       2.400   4.425  17.646  0.00  0.00    +0.000 C 
BRANCH  14  15
ATOM     15  C   UNL     1       1.174   3.946  18.421  0.00  0.00    +0.000 C 
BRANCH  15  16
ATOM     16  N   UNL     1       1.518   3.611  19.789  0.00  0.00    +0.000 N 
ATOM     17  C   UNL     1       2.044   4.425  20.740  0.00  0.00    +0.000 A 
ATOM     18  N   UNL     1       2.256   3.736  21.838  0.00  0.00    +0.000 NA
ATOM     19  C   UNL     1       1.837   2.482  21.499  0.00  0.00    +0.000 A 
ATOM     20  N   UNL     1       1.369   2.354  20.253  0.00  0.00    +0.000 NA
ENDBRANCH  15  16
ENDBRANCH  14  15
ENDBRANCH  13  14
ENDBRANCH   5  13
TORSDOF 8
ENDMDL
MODEL 4
REMARK VINA RESULT:      -6.3      2.505      6.394
REMARK  Name = 
REMARK  9 active torsions:
REMARK  status: ('A' for Active; 'I' for Inactive)
REMARK    1  A    between atoms: C_1  and  C_2
REMARK    2  A    between atoms: C_2  and  C_3
REMARK    3  A    between atoms: C_3  and  C_4
REMARK    4  A    between atoms: C_4  and  N_5
REMARK    5  A    between atoms: C_7  and  C_8
REMARK    6  A    between atoms: C_12  and  C_13
REMARK    7  A    between atoms: C_13  and  C_14
REMARK    8  A    between atoms: C_14  and  C_15
REMARK    9  A    between atoms: C_15  and  N_16
REMARK                            x       y       z     vdW  Elec       q    Type
REMARK                         _______ _______ _______ _____ _____    ______ ____
ROOT
ATOM      1  N   UNL     1       6.539   4.543  15.828  0.00  0.00    +0.000 N 
ATOM      2  N   UNL     1       7.079   4.203  14.642  0.00  0.00    +0.000 NA
ATOM      3  C   UNL     1       5.996   4.062  13.876  0.00  0.00    +0.000 A 
ATOM      4  N   UNL     1       4.808   4.200  14.542  0.00  0.00    +0.000 NA
ATOM      5  C   UNL     1       5.168   4.472  15.781  0.00  0.00    +0.000 A 
ENDROOT
BRANCH   3   6
ATOM      6  C   UNL     1       6.078   3.764  12.391  0.00  0.00    +0.000 C 
ATOM      7  C   UNL     1       5.937   2.320  11.951  0.00  0.00    +0.000 C 
ATOM      8  C   UNL     1       4.834   3.282  11.672  0.00  0.00    +0.000 C 
ENDBRANCH   3   6
BRANCH   1   9
ATOM      9  C   UNL     1       7.413   4.945  16.910  0.00  0.00    +0.000 C 
BRANCH   9  10
ATOM     10  C   UNL     1       7.358   6.447  17.221  0.00  0.00    +0.000 C 
BRANCH  10  12
ATOM     11  C   UNL     1       7.745   5.689  19.597  0.00  0.00    +0.000 C 
ATOM     12  C   UNL     1       7.970   6.797  18.580  0.00  0.00    +0.000 C 
ENDBRANCH  10  12
ENDBRANCH   9  10
ENDBRANCH   1   9
BRANCH   5  13
ATOM     13  C   UNL     1       4.219   4.687  16.908  0.00  0.00    +0.000 C 
BRANCH  13  14
ATOM     14  C   UNL     1       3.949   3.398  17.695  0.00  0.00    +0.000 C 
BRANCH  14  15
ATOM     15  C   UNL     1       2.470   3.154  17.987  0.00  0.00    +0.000 C 
BRANCH  15  16
ATOM     16  N   UNL     1       2.191   3.265  19.405  0.00  0.00    +0.000 N 
ATOM     17  C   UNL     1       2.649   4.201  20.276  0.00  0.00    +0.000 A 
ATOM     18  N   UNL     1       2.209   3.932  21.483  0.00  0.00    +0.000 NA
ATOM     19  C   UNL     1       1.473   2.798  21.294  0.00  0.00    +0.000 A 
ATOM     20  N   UNL     1       1.426   2.350  20.035  0.00  0.00    +0.000 NA
ENDBRANCH  15  16
ENDBRANCH  14  15
ENDBRANCH  13  14
ENDBRANCH   5  13
TORSDOF 8
ENDMDL
MODEL 5
REMARK VINA RESULT:      -6.3      1.429      2.125
REMARK  Name = 
REMARK  9 active torsions:
REMARK  status: ('A' for Active; 'I' for Inactive)
REMARK    1  A    between atoms: C_1  and  C_2
REMARK    2  A    between atoms: C_2  and  C_3
REMARK    3  A    between atoms: C_3  and  C_4
REMARK    4  A    between atoms: C_4  and  N_5
REMARK    5  A    between atoms: C_7  and  C_8
REMARK    6  A    between atoms: C_12  and  C_13
REMARK    7  A    between atoms: C_13  and  C_14
REMARK    8  A    between atoms: C_14  and  C_15
REMARK    9  A    between atoms: C_15  and  N_16
REMARK                            x       y       z     vdW  Elec       q    Type
REMARK                         _______ _______ _______ _____ _____    ______ ____
ROOT
ATOM      1  N   UNL     1       2.344   6.221  19.751  0.00  0.00    +0.000 N 
ATOM      2  N   UNL     1       1.958   7.508  19.850  0.00  0.00    +0.000 NA
ATOM      3  C   UNL     1       2.293   7.990  18.652  0.00  0.00    +0.000 A 
ATOM      4  N   UNL     1       2.954   7.101  17.847  0.00  0.00    +0.000 NA
ATOM      5  C   UNL     1       3.007   5.998  18.569  0.00  0.00    +0.000 A 
ENDROOT
BRANCH   3   6
ATOM      6  C   UNL     1       1.974   9.409  18.223  0.00  0.00    +0.000 C 
ATOM      7  C   UNL     1       0.533   9.738  17.882  0.00  0.00    +0.000 C 
ATOM      8  C   UNL     1       1.131  10.276  19.137  0.00  0.00    +0.000 C 
ENDBRANCH   3   6
BRANCH   1   9
ATOM      9  C   UNL     1       2.001   5.300  20.814  0.00  0.00    +0.000 C 
BRANCH   9  10
ATOM     10  C   UNL     1       0.886   4.315  20.440  0.00  0.00    +0.000 C 
BRANCH  10  12
ATOM     11  C   UNL     1       2.186   2.579  21.732  0.00  0.00    +0.000 C 
ATOM     12  C   UNL     1       1.338   2.853  20.499  0.00  0.00    +0.000 C 
ENDBRANCH  10  12
ENDBRANCH   9  10
ENDBRANCH   1   9
BRANCH   5  13
ATOM     13  C   UNL     1       3.660   4.733  18.132  0.00  0.00    +0.000 C 
BRANCH  13  14
ATOM     14  C   UNL     1       4.755   4.278  19.104  0.00  0.00    +0.000 C 
BRANCH  14  15
ATOM     15  C   UNL     1       5.961   5.214  19.156  0.00  0.00    +0.000 C 
BRANCH  15  16
ATOM     16  N   UNL     1       6.574   5.349  17.849  0.00  0.00    +0.000 N 
ATOM     17  C   UNL     1       6.821   6.491  17.157  0.00  0.00    +0.000 A 
ATOM     18  N   UNL     1       7.345   6.193  15.991  0.00  0.00    +0.000 NA
ATOM     19  C   UNL     1       7.397   4.829  16.018  0.00  0.00    +0.000 A 
ATOM     20  N   UNL     1       6.941   4.262  17.140  0.00  0.00    +0.000 NA
ENDBRANCH  15  16
ENDBRANCH  14  15
ENDBRANCH  13  14
ENDBRANCH   5  13
TORSDOF 8
ENDMDL
MODEL 6
REMARK VINA RESULT:      -6.3      2.318      5.942
REMARK  Name = 
REMARK  9 active torsions:
REMARK  status: ('A' for Active; 'I' for Inactive)
REMARK    1  A    between atoms: C_1  and  C_2
REMARK    2  A    between atoms: C_2  and  C_3
REMARK    3  A    between atoms: C_3  and  C_4
REMARK    4  A    between atoms: C_4  and  N_5
REMARK    5  A    between atoms: C_7  and  C_8
REMARK    6  A    between atoms: C_12  and  C_13
REMARK    7  A    between atoms: C_13  and  C_14
REMARK    8  A    between atoms: C_14  and  C_15
REMARK    9  A    between atoms: C_15  and  N_16
REMARK                            x       y       z     vdW  Elec       q    Type
REMARK                         _______ _______ _______ _____ _____    ______ ____
ROOT
ATOM      1  N   UNL     1       5.243   4.783  15.824  0.00  0.00    +0.000 N 
ATOM      2  N   UNL     1       5.886   5.962  15.934  0.00  0.00    +0.000 NA
ATOM      3  C   UNL     1       5.910   6.141  17.255  0.00  0.00    +0.000 A 
ATOM      4  N   UNL     1       5.234   5.189  17.970  0.00  0.00    +0.000 NA
ATOM      5  C   UNL     1       4.791   4.356  17.049  0.00  0.00    +0.000 A 
ENDROOT
BRANCH   3   6
ATOM      6  C   UNL     1       6.621   7.311  17.909  0.00  0.00    +0.000 C 
ATOM      7  C   UNL     1       8.015   7.074  18.457  0.00  0.00    +0.000 C 
ATOM      8  C   UNL     1       7.842   7.897  17.227  0.00  0.00    +0.000 C 
ENDBRANCH   3   6
BRANCH   1   9
ATOM      9  C   UNL     1       5.153   4.149  14.525  0.00  0.00    +0.000 C 
BRANCH   9  10
ATOM     10  C   UNL     1       6.489   4.089  13.775  0.00  0.00    +0.000 C 
BRANCH  10  12
ATOM     11  C   UNL     1       4.895   3.326  11.973  0.00  0.00    +0.000 C 
ATOM     12  C   UNL     1       6.353   3.520  12.360  0.00  0.00    +0.000 C 
ENDBRANCH  10  12
ENDBRANCH   9  10
ENDBRANCH   1   9
BRANCH   5  13
ATOM     13  C   UNL     1       3.965   3.149  17.328  0.00  0.00    +0.000 C 
BRANCH  13  14
ATOM     14  C   UNL     1       2.471   3.398  17.089  0.00  0.00    +0.000 C 
BRANCH  14  15
ATOM     15  C   UNL     1       1.859   4.426  18.038  0.00  0.00    +0.000 C 
BRANCH  15  16
ATOM     16  N   UNL     1       1.805   3.919  19.394  0.00  0.00    +0.000 N 
ATOM     17  C   UNL     1       1.019   2.925  19.884  0.00  0.00    +0.000 A 
ATOM     18  N   UNL     1       1.230   2.793  21.173  0.00  0.00    +0.000 NA
ATOM     19  C   UNL     1       2.171   3.748  21.429  0.00  0.00    +0.000 A 
ATOM     20  N   UNL     1       2.562   4.464  20.369  0.00  0.00    +0.000 NA
ENDBRANCH  15  16
ENDBRANCH  14  15
ENDBRANCH  13  14
ENDBRANCH   5  13
TORSDOF 8
ENDMDL
MODEL 7
REMARK VINA RESULT:      -6.3      0.806      3.726
REMARK  Name = 
REMARK  9 active torsions:
REMARK  status: ('A' for Active; 'I' for Inactive)
REMARK    1  A    between atoms: C_1  and  C_2
REMARK    2  A    between atoms: C_2  and  C_3
REMARK    3  A    between atoms: C_3  and  C_4
REMARK    4  A    between atoms: C_4  and  N_5
REMARK    5  A    between atoms: C_7  and  C_8
REMARK    6  A    between atoms: C_12  and  C_13
REMARK    7  A    between atoms: C_13  and  C_14
REMARK    8  A    between atoms: C_14  and  C_15
REMARK    9  A    between atoms: C_15  and  N_16
REMARK                            x       y       z     vdW  Elec       q    Type
REMARK                         _______ _______ _______ _____ _____    ______ ____
ROOT
ATOM      1  N   UNL     1       3.233   5.494  17.984  0.00  0.00    +0.000 N 
ATOM      2  N   UNL     1       2.501   5.015  19.007  0.00  0.00    +0.000 NA
ATOM      3  C   UNL     1       2.765   3.709  18.948  0.00  0.00    +0.000 A 
ATOM      4  N   UNL     1       3.544   3.335  17.886  0.00  0.00    +0.000 NA
ATOM      5  C   UNL     1       3.805   4.471  17.268  0.00  0.00    +0.000 A 
ENDROOT
BRANCH   3   6
ATOM      6  C   UNL     1       2.237   2.720  19.969  0.00  0.00    +0.000 C 
ATOM      7  C   UNL     1       2.467   3.028  21.436  0.00  0.00    +0.000 C 
ATOM      8  C   UNL     1       1.093   3.142  20.870  0.00  0.00    +0.000 C 
ENDBRANCH   3   6
BRANCH   1   9
ATOM      9  C   UNL     1       3.343   6.928  17.808  0.00  0.00    +0.000 C 
BRANCH   9  10
ATOM     10  C   UNL     1       2.315   7.728  18.618  0.00  0.00    +0.000 C 
BRANCH  10  12
ATOM     11  C   UNL     1       1.155   9.958  18.847  0.00  0.00    +0.000 C 
ATOM     12  C   UNL     1       1.837   8.990  17.893  0.00  0.00    +0.000 C 
ENDBRANCH  10  12
ENDBRANCH   9  10
ENDBRANCH   1   9
BRANCH   5  13
ATOM     13  C   UNL     1       4.611   4.589  16.022  0.00  0.00    +0.000 C 
BRANCH  13  14
ATOM     14  C   UNL     1       5.805   3.626  16.006  0.00  0.00    +0.000 C 
BRANCH  14  15
ATOM     15  C   UNL     1       7.160   4.328  15.943  0.00  0.00    +0.000 C 
BRANCH  15  16
ATOM     16  N   UNL     1       7.378   5.151  17.116  0.00  0.00    +0.000 N 
ATOM     17  C   UNL     1       7.408   6.507  17.191  0.00  0.00    +0.000 A 
ATOM     18  N   UNL     1       7.679   6.873  18.423  0.00  0.00    +0.000 NA
ATOM     19  C   UNL     1       7.810   5.680  19.074  0.00  0.00    +0.000 A 
ATOM     20  N   UNL     1       7.628   4.593  18.318  0.00  0.00    +0.000 NA
ENDBRANCH  15  16
ENDBRANCH  14  15
ENDBRANCH  13  14
ENDBRANCH   5  13
TORSDOF 8
ENDMDL
MODEL 8
REMARK VINA RESULT:      -6.2      1.568      4.444
REMARK  Name = 
REMARK  9 active torsions:
REMARK  status: ('A' for Active; 'I' for Inactive)
REMARK    1  A    between atoms: C_1  and  C_2
REMARK    2  A    between atoms: C_2  and  C_3
REMARK    3  A    between atoms: C_3  and  C_4
REMARK    4  A    between atoms: C_4  and  N_5
REMARK    5  A    between atoms: C_7  and  C_8
REMARK    6  A    between atoms: C_12  and  C_13
REMARK    7  A    between atoms: C_13  and  C_14
REMARK    8  A    between atoms: C_14  and  C_15
REMARK    9  A    between atoms: C_15  and  N_16
REMARK                            x       y       z     vdW  Elec       q    Type
REMARK                         _______ _______ _______ _____ _____    ______ ____
ROOT
ATOM      1  N   UNL     1       2.871   6.331  18.895  0.00  0.00    +0.000 N 
ATOM      2  N   UNL     1       2.062   5.457  19.524  0.00  0.00    +0.000 NA
ATOM      3  C   UNL     1       2.698   4.301  19.328  0.00  0.00    +0.000 A 
ATOM      4  N   UNL     1       3.807   4.392  18.530  0.00  0.00    +0.000 NA
ATOM      5  C   UNL     1       3.884   5.676  18.238  0.00  0.00    +0.000 A 
ENDROOT
BRANCH   3   6
ATOM      6  C   UNL     1       2.224   2.994  19.933  0.00  0.00    +0.000 C 
ATOM      7  C   UNL     1       2.571   2.720  21.384  0.00  0.00    +0.000 C 
ATOM      8  C   UNL     1       1.162   3.032  21.014  0.00  0.00    +0.000 C 
ENDBRANCH   3   6
BRANCH   1   9
ATOM      9  C   UNL     1       2.605   7.749  19.016  0.00  0.00    +0.000 C 
BRANCH   9  10
ATOM     10  C   UNL     1       2.003   8.373  17.750  0.00  0.00    +0.000 C 
BRANCH  10  12
ATOM     11  C   UNL     1       0.585   9.753  19.318  0.00  0.00    +0.000 C 
ATOM     12  C   UNL     1       1.357   9.738  18.007  0.00  0.00    +0.000 C 
ENDBRANCH  10  12
ENDBRANCH   9  10
ENDBRANCH   1   9
BRANCH   5  13
ATOM     13  C   UNL     1       4.925   6.282  17.363  0.00  0.00    +0.000 C 
BRANCH  13  14
ATOM     14  C   UNL     1       6.337   6.120  17.938  0.00  0.00    +0.000 C 
BRANCH  14  15
ATOM     15  C   UNL     1       7.042   4.842  17.488  0.00  0.00    +0.000 C 
BRANCH  15  16
ATOM     16  N   UNL     1       6.861   4.618  16.068  0.00  0.00    +0.000 N 
ATOM     17  C   UNL     1       6.075   3.692  15.461  0.00  0.00    +0.000 A 
ATOM     18  N   UNL     1       6.221   3.776  14.159  0.00  0.00    +0.000 NA
ATOM     19  C   UNL     1       7.126   4.789  14.018  0.00  0.00    +0.000 A 
ATOM     20  N   UNL     1       7.547   5.343  15.159  0.00  0.00    +0.000 NA
ENDBRANCH  15  16
ENDBRANCH  14  15
ENDBRANCH  13  14
ENDBRANCH   5  13
TORSDOF 8
ENDMDL
MODEL 9
REMARK VINA RESULT:      -6.2      2.513      6.505
REMARK  Name = 
REMARK  9 active torsions:
REMARK  status: ('A' for Active; 'I' for Inactive)
REMARK    1  A    between atoms: C_1  and  C_2
REMARK    2  A    between atoms: C_2  and  C_3
REMARK    3  A    between atoms: C_3  and  C_4
REMARK    4  A    between atoms: C_4  and  N_5
REMARK    5  A    between atoms: C_7  and  C_8
REMARK    6  A    between atoms: C_12  and  C_13
REMARK    7  A    between atoms: C_13  and  C_14
REMARK    8  A    between atoms: C_14  and  C_15
REMARK    9  A    between atoms: C_15  and  N_16
REMARK                            x       y       z     vdW  Elec       q    Type
REMARK                         _______ _______ _______ _____ _____    ______ ____
ROOT
ATOM      1  N   UNL     1       5.971   5.881  16.493  0.00  0.00    +0.000 N 
ATOM      2  N   UNL     1       6.654   5.549  15.381  0.00  0.00    +0.000 NA
ATOM      3  C   UNL     1       6.107   4.375  15.061  0.00  0.00    +0.000 A 
ATOM      4  N   UNL     1       5.189   3.912  15.965  0.00  0.00    +0.000 NA
ATOM      5  C   UNL     1       5.138   4.860  16.880  0.00  0.00    +0.000 A 
ENDROOT
BRANCH   3   6
ATOM      6  C   UNL     1       6.480   3.615  13.803  0.00  0.00    +0.000 C 
ATOM      7  C   UNL     1       5.533   3.694  12.622  0.00  0.00    +0.000 C 
ATOM      8  C   UNL     1       6.844   4.397  12.557  0.00  0.00    +0.000 C 
ENDBRANCH   3   6
BRANCH   1   9
ATOM      9  C   UNL     1       6.165   7.194  17.072  0.00  0.00    +0.000 C 
BRANCH   9  10
ATOM     10  C   UNL     1       7.585   7.430  17.601  0.00  0.00    +0.000 C 
BRANCH  10  12
ATOM     11  C   UNL     1       8.840   9.251  18.819  0.00  0.00    +0.000 C 
ATOM     12  C   UNL     1       7.978   8.910  17.613  0.00  0.00    +0.000 C 
ENDBRANCH  10  12
ENDBRANCH   9  10
ENDBRANCH   1   9
BRANCH   5  13
ATOM     13  C   UNL     1       4.288   4.810  18.102  0.00  0.00    +0.000 C 
BRANCH  13  14
ATOM     14  C   UNL     1       4.968   4.060  19.254  0.00  0.00    +0.000 C 
BRANCH  14  15
ATOM     15  C   UNL     1       4.345   2.698  19.554  0.00  0.00    +0.000 C 
BRANCH  15  16
ATOM     16  N   UNL     1       2.946   2.831  19.911  0.00  0.00    +0.000 N 
ATOM     17  C   UNL     1       2.420   3.371  21.040  0.00  0.00    +0.000 A 
ATOM     18  N   UNL     1       1.112   3.262  21.011  0.00  0.00    +0.000 NA
ATOM     19  C   UNL     1       0.884   2.635  19.820  0.00  0.00    +0.000 A 
ATOM     20  N   UNL     1       1.977   2.353  19.104  0.00  0.00    +0.000 NA
ENDBRANCH  15  16
ENDBRANCH  14  15
ENDBRANCH  13  14
ENDBRANCH   5  13
TORSDOF 8
ENDMDL
