MODEL 1
REMARK VINA RESULT:      -5.4      0.000      0.000
REMARK  Name = 
REMARK  6 active torsions:
REMARK  status: ('A' for Active; 'I' for Inactive)
REMARK    1  A    between atoms: C_1  and  O_2
REMARK    2  A    between atoms: O_2  and  C_3
REMARK    3  A    between atoms: C_3  and  C_5
REMARK    4  A    between atoms: C_7  and  C_8
REMARK    5  A    between atoms: C_10  and  S_11
REMARK    6  A    between atoms: S_11  and  C_12
REMARK                            x       y       z     vdW  Elec       q    Type
REMARK                         _______ _______ _______ _____ _____    ______ ____
ROOT
ATOM      1  C   UNL     1       5.619   4.718  16.306  0.00  0.00    +0.000 C 
ATOM      2  C   UNL     1       4.417   5.522  16.814  0.00  0.00    +0.000 C 
ATOM      3  C   UNL     1       3.548   4.471  17.444  0.00  0.00    +0.000 C 
ATOM      4  C   UNL     1       4.183   3.288  17.515  0.00  0.00    +0.000 C 
ATOM      5  N   UNL     1       5.421   3.371  16.891  0.00  0.00    +0.000 N 
ATOM      6  H   UNL     1       6.184   3.055  17.492  0.00  0.00    +0.000 HD
ENDROOT
BRANCH   1   7
ATOM      7  C   UNL     1       6.951   5.353  16.692  0.00  0.00    +0.000 C 
ATOM      8  O   UNL     1       7.510   6.246  16.072  0.00  0.00    +0.000 OA
BRANCH   7  10
ATOM      9  C   UNL     1       7.734   5.754  18.875  0.00  0.00    +0.000 C 
ATOM     10  O   UNL     1       7.388   4.807  17.866  0.00  0.00    +0.000 OA
ENDBRANCH   7  10
ENDBRANCH   1   7
BRANCH   3  11
ATOM     11  C   UNL     1       2.207   4.844  17.916  0.00  0.00    +0.000 C 
ATOM     12  O   UNL     1       1.192   4.393  17.392  0.00  0.00    +0.000 OA
ENDBRANCH   3  11
BRANCH   4  13
ATOM     13  S   UNL     1       3.546   1.904  18.328  0.00  0.00    +0.000 S 
ATOM     14  C   UNL     1       3.994   2.253  20.046  0.00  0.00    +0.000 C 
ENDBRANCH   4  13
TORSDOF 4
ENDMDL
MODEL 2
REMARK VINA RESULT:      -5.4      2.336      4.638
REMARK  Name = 
REMARK  6 active torsions:
REMARK  status: ('A' for Active; 'I' for Inactive)
REMARK    1  A    between atoms: C_1  and  O_2
REMARK    2  A    between atoms: O_2  and  C_3
REMARK    3  A    between atoms: C_3  and  C_5
REMARK    4  A    between atoms: C_7  and  C_8
REMARK    5  A    between atoms: C_10  and  S_11
REMARK    6  A    between atoms: S_11  and  C_12
REMARK                            x       y       z     vdW  Elec       q    Type
REMARK                         _______ _______ _______ _____ _____    ______ ____
ROOT
ATOM      1  C   UNL     1       3.757   3.555  18.546  0.00  0.00    +0.000 C 
ATOM      2  C   UNL     1       3.523   4.636  17.486  0.00  0.00    +0.000 C 
ATOM      3  C   UNL     1       4.891   5.224  17.292  0.00  0.00    +0.000 C 
ATOM      4  C   UNL     1       5.829   4.505  17.934  0.00  0.00    +0.000 C 
ATOM      5  N   UNL     1       5.233   3.488  18.668  0.00  0.00    +0.000 N 
ATOM      6  H   UNL     1       5.632   2.570  18.460  0.00  0.00    +0.000 HD
ENDROOT
BRANCH   1   7
ATOM      7  C   UNL     1       3.121   2.220  18.170  0.00  0.00    +0.000 C 
ATOM      8  O   UNL     1       3.682   1.136  18.218  0.00  0.00    +0.000 OA
BRANCH   7  10
ATOM      9  C   UNL     1       0.929   2.612  18.931  0.00  0.00    +0.000 C 
ATOM     10  O   UNL     1       1.814   2.425  17.828  0.00  0.00    +0.000 OA
ENDBRANCH   7  10
ENDBRANCH   1   7
BRANCH   3  11
ATOM     11  C   UNL     1       5.042   6.416  16.445  0.00  0.00    +0.000 C 
ATOM     12  O   UNL     1       5.439   6.335  15.285  0.00  0.00    +0.000 OA
ENDBRANCH   3  11
BRANCH   4  13
ATOM     13  S   UNL     1       7.525   4.796  17.793  0.00  0.00    +0.000 S 
ATOM     14  C   UNL     1       7.795   6.012  19.105  0.00  0.00    +0.000 C 
ENDBRANCH   4  13
TORSDOF 4
ENDMDL
MODEL 3
REMARK VINA RESULT:      -5.3      1.615      2.198
REMARK  Name = 
REMARK  6 active torsions:
REMARK  status: ('A' for Active; 'I' for Inactive)
REMARK    1  A    between atoms: C_1  and  O_2
REMARK    2  A    between atoms: O_2  and  C_3
REMARK    3  A    between atoms: C_3  and  C_5
REMARK    4  A    between atoms: C_7  and  C_8
REMARK    5  A    between atoms: C_10  and  S_11
REMARK    6  A    between atoms: S_11  and  C_12
REMARK                            x       y       z     vdW  Elec       q    Type
REMARK                         _______ _______ _______ _____ _____    ______ ____
ROOT
ATOM      1  C   UNL     1       5.589   4.464  16.256  0.00  0.00    +0.000 C 
ATOM      2  C   UNL     1       4.764   5.673  16.710  0.00  0.00    +0.000 C 
ATOM      3  C   UNL     1       3.808   5.077  17.703  0.00  0.00    +0.000 C 
ATOM      4  C   UNL     1       4.121   3.800  17.981  0.00  0.00    +0.000 C 
ATOM      5  N   UNL     1       5.181   3.384  17.185  0.00  0.00    +0.000 N 
ATOM      6  H   UNL     1       5.948   2.985  17.732  0.00  0.00    +0.000 HD
ENDROOT
BRANCH   1   7
ATOM      7  C   UNL     1       7.089   4.741  16.274  0.00  0.00    +0.000 C 
ATOM      8  O   UNL     1       7.844   4.467  17.194  0.00  0.00    +0.000 OA
BRANCH   7  10
ATOM      9  C   UNL     1       6.899   4.657  13.929  0.00  0.00    +0.000 C 
ATOM     10  O   UNL     1       7.459   5.290  15.078  0.00  0.00    +0.000 OA
ENDBRANCH   7  10
ENDBRANCH   1   7
BRANCH   3  11
ATOM     11  C   UNL     1       2.734   5.918  18.252  0.00  0.00    +0.000 C 
ATOM     12  O   UNL     1       2.886   6.560  19.288  0.00  0.00    +0.000 OA
ENDBRANCH   3  11
BRANCH   4  13
ATOM     13  S   UNL     1       3.338   2.861  19.200  0.00  0.00    +0.000 S 
ATOM     14  C   UNL     1       1.841   2.323  18.339  0.00  0.00    +0.000 C 
ENDBRANCH   4  13
TORSDOF 4
ENDMDL
MODEL 4
REMARK VINA RESULT:      -5.1      1.702      1.951
REMARK  Name = 
REMARK  6 active torsions:
REMARK  status: ('A' for Active; 'I' for Inactive)
REMARK    1  A    between atoms: C_1  and  O_2
REMARK    2  A    between atoms: O_2  and  C_3
REMARK    3  A    between atoms: C_3  and  C_5
REMARK    4  A    between atoms: C_7  and  C_8
REMARK    5  A    between atoms: C_10  and  S_11
REMARK    6  A    between atoms: S_11  and  C_12
REMARK                            x       y       z     vdW  Elec       q    Type
REMARK                         _______ _______ _______ _____ _____    ______ ____
ROOT
ATOM      1  C   UNL     1       5.752   4.448  18.062  0.00  0.00    +0.000 C 
ATOM      2  C   UNL     1       4.483   5.103  17.509  0.00  0.00    +0.000 C 
ATOM      3  C   UNL     1       3.384   4.380  18.233  0.00  0.00    +0.000 C 
ATOM      4  C   UNL     1       3.874   3.592  19.206  0.00  0.00    +0.000 C 
ATOM      5  N   UNL     1       5.263   3.608  19.181  0.00  0.00    +0.000 N 
ATOM      6  H   UNL     1       5.668   3.839  20.090  0.00  0.00    +0.000 HD
ENDROOT
BRANCH   1   7
ATOM      7  C   UNL     1       6.800   5.472  18.489  0.00  0.00    +0.000 C 
ATOM      8  O   UNL     1       7.680   5.275  19.313  0.00  0.00    +0.000 OA
BRANCH   7  10
ATOM      9  C   UNL     1       7.732   7.524  17.812  0.00  0.00    +0.000 C 
ATOM     10  O   UNL     1       6.632   6.617  17.762  0.00  0.00    +0.000 OA
ENDBRANCH   7  10
ENDBRANCH   1   7
BRANCH   3  11
ATOM     11  C   UNL     1       1.988   4.633  17.847  0.00  0.00    +0.000 C 
ATOM     12  O   UNL     1       1.312   3.776  17.283  0.00  0.00    +0.000 OA
ENDBRANCH   3  11
BRANCH   4  13
ATOM     13  S   UNL     1       2.890   2.744  20.343  0.00  0.00    +0.000 S 
ATOM     14  C   UNL     1       2.295   4.095  21.388  0.00  0.00    +0.000 C 
ENDBRANCH   4  13
TORSDOF 4
ENDMDL
MODEL 5
REMARK VINA RESULT:      -5.1      2.239      4.852
REMARK  Name = 
REMARK  6 active torsions:
REMARK  status: ('A' for Active; 'I' for Inactive)
REMARK    1  A    between atoms: C_1  and  O_2
REMARK    2  A    between atoms: O_2  and  C_3
REMARK    3  A    between atoms: C_3  and  C_5
REMARK    4  A    between atoms: C_7  and  C_8
REMARK    5  A    between atoms: C_10  and  S_11
REMARK    6  A    between atoms: S_11  and  C_12
REMARK                            x       y       z     vdW  Elec       q    Type
REMARK                         _______ _______ _______ _____ _____    ______ ____
ROOT
ATOM      1  C   UNL     1       3.749   3.907  18.174  0.00  0.00    +0.000 C 
ATOM      2  C   UNL     1       4.587   4.795  19.101  0.00  0.00    +0.000 C 
ATOM      3  C   UNL     1       5.874   4.956  18.344  0.00  0.00    +0.000 C 
ATOM      4  C   UNL     1       5.776   4.459  17.099  0.00  0.00    +0.000 C 
ATOM      5  N   UNL     1       4.539   3.853  16.921  0.00  0.00    +0.000 N 
ATOM      6  H   UNL     1       4.047   4.203  16.097  0.00  0.00    +0.000 HD
ENDROOT
BRANCH   1   7
ATOM      7  C   UNL     1       2.335   4.443  17.974  0.00  0.00    +0.000 C 
ATOM      8  O   UNL     1       2.015   5.621  18.028  0.00  0.00    +0.000 OA
BRANCH   7  10
ATOM      9  C   UNL     1       1.525   2.322  18.596  0.00  0.00    +0.000 C 
ATOM     10  O   UNL     1       1.500   3.406  17.668  0.00  0.00    +0.000 OA
ENDBRANCH   7  10
ENDBRANCH   1   7
BRANCH   3  11
ATOM     11  C   UNL     1       7.005   5.632  18.997  0.00  0.00    +0.000 C 
ATOM     12  O   UNL     1       7.377   5.319  20.125  0.00  0.00    +0.000 OA
ENDBRANCH   3  11
BRANCH   4  13
ATOM     13  S   UNL     1       7.008   4.622  15.900  0.00  0.00    +0.000 S 
ATOM     14  C   UNL     1       6.183   3.950  14.437  0.00  0.00    +0.000 C 
ENDBRANCH   4  13
TORSDOF 4
ENDMDL
MODEL 6
REMARK VINA RESULT:      -5.1      1.300      1.300
REMARK  Name = 
REMARK  6 active torsions:
REMARK  status: ('A' for Active; 'I' for Inactive)
REMARK    1  A    between atoms: C_1  and  O_2
REMARK    2  A    between atoms: O_2  and  C_3
REMARK    3  A    between atoms: C_3  and  C_5
REMARK    4  A    between atoms: C_7  and  C_8
REMARK    5  A    between atoms: C_10  and  S_11
REMARK    6  A    between atoms: S_11  and  C_12
REMARK                            x       y       z     vdW  Elec       q    Type
REMARK                         _______ _______ _______ _____ _____    ______ ____
ROOT
ATOM      1  C   UNL     1       5.501   4.600  16.377  0.00  0.00    +0.000 C 
ATOM      2  C   UNL     1       4.589   5.747  16.823  0.00  0.00    +0.000 C 
ATOM      3  C   UNL     1       3.662   5.083  17.800  0.00  0.00    +0.000 C 
ATOM      4  C   UNL     1       4.059   3.828  18.077  0.00  0.00    +0.000 C 
ATOM      5  N   UNL     1       5.156   3.490  17.295  0.00  0.00    +0.000 N 
ATOM      6  H   UNL     1       5.940   3.142  17.852  0.00  0.00    +0.000 HD
ENDROOT
BRANCH   1   7
ATOM      7  C   UNL     1       6.979   4.979  16.417  0.00  0.00    +0.000 C 
ATOM      8  O   UNL     1       7.557   5.644  15.571  0.00  0.00    +0.000 OA
BRANCH   7  10
ATOM      9  C   UNL     1       7.728   5.491  18.589  0.00  0.00    +0.000 C 
ATOM     10  O   UNL     1       7.533   4.507  17.574  0.00  0.00    +0.000 OA
ENDBRANCH   7  10
ENDBRANCH   1   7
BRANCH   3  11
ATOM     11  C   UNL     1       2.525   5.845  18.336  0.00  0.00    +0.000 C 
ATOM     12  O   UNL     1       2.390   7.045  18.107  0.00  0.00    +0.000 OA
ENDBRANCH   3  11
BRANCH   4  13
ATOM     13  S   UNL     1       3.324   2.832  19.282  0.00  0.00    +0.000 S 
ATOM     14  C   UNL     1       1.867   2.216  18.404  0.00  0.00    +0.000 C 
ENDBRANCH   4  13
TORSDOF 4
ENDMDL
MODEL 7
REMARK VINA RESULT:      -5.1      2.243      4.955
REMARK  Name = 
REMARK  6 active torsions:
REMARK  status: ('A' for Active; 'I' for Inactive)
REMARK    1  A    between atoms: C_1  and  O_2
REMARK    2  A    between atoms: O_2  and  C_3
REMARK    3  A    between atoms: C_3  and  C_5
REMARK    4  A    between atoms: C_7  and  C_8
REMARK    5  A    between atoms: C_10  and  S_11
REMARK    6  A    between atoms: S_11  and  C_12
REMARK                            x       y       z     vdW  Elec       q    Type
REMARK                         _______ _______ _______ _____ _____    ______ ____
ROOT
ATOM      1  C   UNL     1       4.011   2.924  18.256  0.00  0.00    +0.000 C 
ATOM      2  C   UNL     1       4.554   3.919  19.286  0.00  0.00    +0.000 C 
ATOM      3  C   UNL     1       5.681   4.586  18.552  0.00  0.00    +0.000 C 
ATOM      4  C   UNL     1       5.694   4.239  17.253  0.00  0.00    +0.000 C 
ATOM      5  N   UNL     1       4.717   3.284  17.004  0.00  0.00    +0.000 N 
ATOM      6  H   UNL     1       4.100   3.549  16.233  0.00  0.00    +0.000 HD
ENDROOT
BRANCH   1   7
ATOM      7  C   UNL     1       2.492   2.982  18.132  0.00  0.00    +0.000 C 
ATOM      8  O   UNL     1       1.882   3.402  17.160  0.00  0.00    +0.000 OA
BRANCH   7  10
ATOM      9  C   UNL     1       0.918   3.242  19.863  0.00  0.00    +0.000 C 
ATOM     10  O   UNL     1       1.927   2.439  19.251  0.00  0.00    +0.000 OA
ENDBRANCH   7  10
ENDBRANCH   1   7
BRANCH   3  11
ATOM     11  C   UNL     1       6.558   5.514  19.282  0.00  0.00    +0.000 C 
ATOM     12  O   UNL     1       7.646   5.156  19.726  0.00  0.00    +0.000 OA
ENDBRANCH   3  11
BRANCH   4  13
ATOM     13  S   UNL     1       6.748   4.942  16.080  0.00  0.00    +0.000 S 
ATOM     14  C   UNL     1       6.303   4.018  14.591  0.00  0.00    +0.000 C 
ENDBRANCH   4  13
TORSDOF 4
ENDMDL
MODEL 8
REMARK VINA RESULT:      -5.1      2.763      4.575
REMARK  Name = 
REMARK  6 active torsions:
REMARK  status: ('A' for Active; 'I' for Inactive)
REMARK    1  A    between atoms: C_1  and  O_2
REMARK    2  A    between atoms: O_2  and  C_3
REMARK    3  A    between atoms: C_3  and  C_5
REMARK    4  A    between atoms: C_7  and  C_8
REMARK    5  A    between atoms: C_10  and  S_11
REMARK    6  A    between atoms: S_11  and  C_12
REMARK                            x       y       z     vdW  Elec       q    Type
REMARK                         _______ _______ _______ _____ _____    ______ ____
ROOT
ATOM      1  C   UNL     1       3.928   3.594  19.511  0.00  0.00    +0.000 C 
ATOM      2  C   UNL     1       3.384   4.765  18.686  0.00  0.00    +0.000 C 
ATOM      3  C   UNL     1       4.622   5.346  18.065  0.00  0.00    +0.000 C 
ATOM      4  C   UNL     1       5.692   4.561  18.277  0.00  0.00    +0.000 C 
ATOM      5  N   UNL     1       5.348   3.494  19.097  0.00  0.00    +0.000 N 
ATOM      6  H   UNL     1       5.607   2.591  18.693  0.00  0.00    +0.000 HD
ENDROOT
BRANCH   1   7
ATOM      7  C   UNL     1       3.142   2.306  19.287  0.00  0.00    +0.000 C 
ATOM      8  O   UNL     1       3.495   1.382  18.570  0.00  0.00    +0.000 OA
BRANCH   7  10
ATOM      9  C   UNL     1       2.230   2.658  21.428  0.00  0.00    +0.000 C 
ATOM     10  O   UNL     1       2.013   2.328  20.057  0.00  0.00    +0.000 OA
ENDBRANCH   7  10
ENDBRANCH   1   7
BRANCH   3  11
ATOM     11  C   UNL     1       4.517   6.603  17.310  0.00  0.00    +0.000 C 
ATOM     12  O   UNL     1       3.689   7.462  17.602  0.00  0.00    +0.000 OA
ENDBRANCH   3  11
BRANCH   4  13
ATOM     13  S   UNL     1       7.242   4.836  17.566  0.00  0.00    +0.000 S 
ATOM     14  C   UNL     1       6.941   4.363  15.846  0.00  0.00    +0.000 C 
ENDBRANCH   4  13
TORSDOF 4
ENDMDL
MODEL 9
REMARK VINA RESULT:      -5.0      1.470      1.645
REMARK  Name = 
REMARK  6 active torsions:
REMARK  status: ('A' for Active; 'I' for Inactive)
REMARK    1  A    between atoms: C_1  and  O_2
REMARK    2  A    between atoms: O_2  and  C_3
REMARK    3  A    between atoms: C_3  and  C_5
REMARK    4  A    between atoms: C_7  and  C_8
REMARK    5  A    between atoms: C_10  and  S_11
REMARK    6  A    between atoms: S_11  and  C_12
REMARK                            x       y       z     vdW  Elec       q    Type
REMARK                         _______ _______ _______ _____ _____    ______ ____
ROOT
ATOM      1  C   UNL     1       5.572   4.745  16.631  0.00  0.00    +0.000 C 
ATOM      2  C   UNL     1       4.562   5.859  16.929  0.00  0.00    +0.000 C 
ATOM      3  C   UNL     1       3.612   5.207  17.892  0.00  0.00    +0.000 C 
ATOM      4  C   UNL     1       4.065   4.005  18.290  0.00  0.00    +0.000 C 
ATOM      5  N   UNL     1       5.232   3.684  17.609  0.00  0.00    +0.000 N 
ATOM      6  H   UNL     1       5.996   3.431  18.240  0.00  0.00    +0.000 HD
ENDROOT
BRANCH   1   7
ATOM      7  C   UNL     1       7.017   5.224  16.738  0.00  0.00    +0.000 C 
ATOM      8  O   UNL     1       7.985   4.501  16.921  0.00  0.00    +0.000 OA
BRANCH   7  10
ATOM      9  C   UNL     1       7.655   7.318  17.601  0.00  0.00    +0.000 C 
ATOM     10  O   UNL     1       7.059   6.575  16.538  0.00  0.00    +0.000 OA
ENDBRANCH   7  10
ENDBRANCH   1   7
BRANCH   3  11
ATOM     11  C   UNL     1       2.396   5.929  18.293  0.00  0.00    +0.000 C 
ATOM     12  O   UNL     1       2.262   7.132  18.080  0.00  0.00    +0.000 OA
ENDBRANCH   3  11
BRANCH   4  13
ATOM     13  S   UNL     1       3.311   3.053  19.517  0.00  0.00    +0.000 S 
ATOM     14  C   UNL     1       2.016   2.209  18.578  0.00  0.00    +0.000 C 
ENDBRANCH   4  13
TORSDOF 4
ENDMDL
