MODEL 1
REMARK VINA RESULT:      -8.7      0.000      0.000
REMARK  Name = 
REMARK  9 active torsions:
REMARK  status: ('A' for Active; 'I' for Inactive)
REMARK    1  A    between atoms: C_1  and  O_2
REMARK    2  A    between atoms: O_2  and  C_3
REMARK    3  A    between atoms: C_7  and  N_8
REMARK    4  A    between atoms: N_8  and  S_9
REMARK    5  A    between atoms: S_9  and  C_12
REMARK    6  A    between atoms: C_15  and  C_16
REMARK    7  A    between atoms: C_16  and  C_17
REMARK    8  A    between atoms: C_17  and  C_18
REMARK    9  A    between atoms: N_20  and  C_21
REMARK                            x       y       z     vdW  Elec       q    Type
REMARK                         _______ _______ _______ _____ _____    ______ ____
ROOT
ATOM      1  C   UNL     1       2.985   4.980  19.055  0.00  0.00    +0.000 A 
ATOM      2  C   UNL     1       3.000   5.969  18.062  0.00  0.00    +0.000 A 
ATOM      3  C   UNL     1       2.481   7.232  18.345  0.00  0.00    +0.000 A 
ATOM      4  C   UNL     1       1.924   7.503  19.603  0.00  0.00    +0.000 A 
ATOM      5  C   UNL     1       1.909   6.501  20.583  0.00  0.00    +0.000 A 
ATOM      6  C   UNL     1       2.427   5.240  20.307  0.00  0.00    +0.000 A 
ENDROOT
BRANCH   1   7
ATOM      7  S   UNL     1       3.609   3.353  18.721  0.00  0.00    +0.000 S 
ATOM      8  O   UNL     1       3.477   3.129  17.296  0.00  0.00    +0.000 OA
ATOM      9  O   UNL     1       3.013   2.447  19.680  0.00  0.00    +0.000 OA
BRANCH   7  10
ATOM     10  N   UNL     1       5.259   3.491  19.037  0.00  0.00    +0.000 N 
ATOM     11  H   UNL     1       5.710   2.617  19.296  0.00  0.00    +0.000 HD
BRANCH  10  16
ATOM     12  C   UNL     1       6.991   5.397  16.347  0.00  0.00    +0.000 A 
ATOM     13  C   UNL     1       7.508   6.461  17.093  0.00  0.00    +0.000 A 
ATOM     14  C   UNL     1       7.284   6.543  18.469  0.00  0.00    +0.000 A 
ATOM     15  C   UNL     1       6.536   5.555  19.107  0.00  0.00    +0.000 A 
ATOM     16  C   UNL     1       6.024   4.488  18.369  0.00  0.00    +0.000 A 
ATOM     17  C   UNL     1       6.246   4.408  16.992  0.00  0.00    +0.000 A 
BRANCH  12  19
ATOM     18  C   UNL     1       6.612   4.507  14.171  0.00  0.00    +0.000 C 
ATOM     19  O   UNL     1       7.288   5.435  15.011  0.00  0.00    +0.000 OA
ENDBRANCH  12  19
ENDBRANCH  10  16
ENDBRANCH   7  10
ENDBRANCH   1   7
BRANCH   4  20
ATOM     20  C   UNL     1       1.407   8.873  19.936  0.00  0.00    +0.000 C 
BRANCH  20  21
ATOM     21  C   UNL     1       1.147   9.784  18.730  0.00  0.00    +0.000 C 
BRANCH  21  22
ATOM     22  C   UNL     1       1.283  11.212  19.213  0.00  0.00    +0.000 C 
ATOM     23  O   UNL     1       1.228  11.470  20.420  0.00  0.00    +0.000 OA
ATOM     24  N   UNL     1       1.485  12.143  18.218  0.00  0.00    +0.000 N 
ATOM     25  H   UNL     1       1.693  11.810  17.283  0.00  0.00    +0.000 HD
BRANCH  24  26
ATOM     26  C   UNL     1       1.680  13.523  18.456  0.00  0.00    +0.000 A 
ATOM     27  C   UNL     1       2.935  14.149  18.494  0.00  0.00    +0.000 A 
ATOM     28  C   UNL     1       3.041  15.546  18.472  0.00  0.00    +0.000 A 
ATOM     29  C   UNL     1       1.878  16.314  18.503  0.00  0.00    +0.000 A 
ATOM     30  C   UNL     1       0.656  15.672  18.710  0.00  0.00    +0.000 A 
ATOM     31  C   UNL     1       0.542  14.295  18.627  0.00  0.00    +0.000 A 
ATOM     32  O   UNL     1      -0.487  16.365  18.961  0.00  0.00    +0.000 OA
ATOM     33  C   UNL     1      -0.537  17.387  17.989  0.00  0.00    +0.000 C 
ATOM     34  C   UNL     1       0.688  18.298  18.070  0.00  0.00    +0.000 C 
ATOM     35  O   UNL     1       1.959  17.657  18.277  0.00  0.00    +0.000 OA
ENDBRANCH  24  26
ENDBRANCH  21  22
ENDBRANCH  20  21
ENDBRANCH   4  20
TORSDOF 8
ENDMDL
MODEL 2
REMARK VINA RESULT:      -8.6      3.390      4.295
REMARK  Name = 
REMARK  9 active torsions:
REMARK  status: ('A' for Active; 'I' for Inactive)
REMARK    1  A    between atoms: C_1  and  O_2
REMARK    2  A    between atoms: O_2  and  C_3
REMARK    3  A    between atoms: C_7  and  N_8
REMARK    4  A    between atoms: N_8  and  S_9
REMARK    5  A    between atoms: S_9  and  C_12
REMARK    6  A    between atoms: C_15  and  C_16
REMARK    7  A    between atoms: C_16  and  C_17
REMARK    8  A    between atoms: C_17  and  C_18
REMARK    9  A    between atoms: N_20  and  C_21
REMARK                            x       y       z     vdW  Elec       q    Type
REMARK                         _______ _______ _______ _____ _____    ______ ____
ROOT
ATOM      1  C   UNL     1       3.116   5.069  18.880  0.00  0.00    +0.000 A 
ATOM      2  C   UNL     1       2.598   5.760  19.984  0.00  0.00    +0.000 A 
ATOM      3  C   UNL     1       2.197   7.087  19.833  0.00  0.00    +0.000 A 
ATOM      4  C   UNL     1       2.334   7.733  18.596  0.00  0.00    +0.000 A 
ATOM      5  C   UNL     1       2.861   7.030  17.505  0.00  0.00    +0.000 A 
ATOM      6  C   UNL     1       3.262   5.706  17.648  0.00  0.00    +0.000 A 
ENDROOT
BRANCH   1   7
ATOM      7  S   UNL     1       3.665   3.389  19.042  0.00  0.00    +0.000 S 
ATOM      8  O   UNL     1       3.490   2.756  17.752  0.00  0.00    +0.000 OA
ATOM      9  O   UNL     1       3.058   2.840  20.236  0.00  0.00    +0.000 OA
BRANCH   7  10
ATOM     10  N   UNL     1       5.327   3.541  19.283  0.00  0.00    +0.000 N 
ATOM     11  H   UNL     1       5.784   2.687  19.597  0.00  0.00    +0.000 HD
BRANCH  10  16
ATOM     12  C   UNL     1       7.069   5.140  16.407  0.00  0.00    +0.000 A 
ATOM     13  C   UNL     1       7.511   6.321  17.012  0.00  0.00    +0.000 A 
ATOM     14  C   UNL     1       7.234   6.581  18.355  0.00  0.00    +0.000 A 
ATOM     15  C   UNL     1       6.507   5.654  19.103  0.00  0.00    +0.000 A 
ATOM     16  C   UNL     1       6.071   4.472  18.506  0.00  0.00    +0.000 A 
ATOM     17  C   UNL     1       6.346   4.214  17.161  0.00  0.00    +0.000 A 
BRANCH  12  19
ATOM     18  C   UNL     1       6.458   4.398  14.228  0.00  0.00    +0.000 C 
ATOM     19  O   UNL     1       7.414   5.008  15.088  0.00  0.00    +0.000 OA
ENDBRANCH  12  19
ENDBRANCH  10  16
ENDBRANCH   7  10
ENDBRANCH   1   7
BRANCH   4  20
ATOM     20  C   UNL     1       1.860   9.146  18.409  0.00  0.00    +0.000 C 
BRANCH  20  21
ATOM     21  C   UNL     1       0.993   9.700  19.547  0.00  0.00    +0.000 C 
BRANCH  21  22
ATOM     22  C   UNL     1      -0.035  10.615  18.918  0.00  0.00    +0.000 C 
ATOM     23  O   UNL     1       0.291  11.737  18.515  0.00  0.00    +0.000 OA
ATOM     24  N   UNL     1      -1.303  10.085  18.827  0.00  0.00    +0.000 N 
ATOM     25  H   UNL     1      -1.426   9.096  19.020  0.00  0.00    +0.000 HD
BRANCH  24  26
ATOM     26  C   UNL     1      -2.398  10.755  18.235  0.00  0.00    +0.000 A 
ATOM     27  C   UNL     1      -2.724  10.685  16.872  0.00  0.00    +0.000 A 
ATOM     28  C   UNL     1      -3.960  11.154  16.405  0.00  0.00    +0.000 A 
ATOM     29  C   UNL     1      -4.831  11.774  17.300  0.00  0.00    +0.000 A 
ATOM     30  C   UNL     1      -4.382  12.047  18.593  0.00  0.00    +0.000 A 
ATOM     31  C   UNL     1      -3.210  11.494  19.080  0.00  0.00    +0.000 A 
ATOM     32  O   UNL     1      -5.090  12.829  19.450  0.00  0.00    +0.000 OA
ATOM     33  C   UNL     1      -6.419  12.354  19.395  0.00  0.00    +0.000 C 
ATOM     34  C   UNL     1      -6.985  12.437  17.978  0.00  0.00    +0.000 C 
ATOM     35  O   UNL     1      -6.108  12.048  16.905  0.00  0.00    +0.000 OA
ENDBRANCH  24  26
ENDBRANCH  21  22
ENDBRANCH  20  21
ENDBRANCH   4  20
TORSDOF 8
ENDMDL
MODEL 3
REMARK VINA RESULT:      -8.5      3.365      3.904
REMARK  Name = 
REMARK  9 active torsions:
REMARK  status: ('A' for Active; 'I' for Inactive)
REMARK    1  A    between atoms: C_1  and  O_2
REMARK    2  A    between atoms: O_2  and  C_3
REMARK    3  A    between atoms: C_7  and  N_8
REMARK    4  A    between atoms: N_8  and  S_9
REMARK    5  A    between atoms: S_9  and  C_12
REMARK    6  A    between atoms: C_15  and  C_16
REMARK    7  A    between atoms: C_16  and  C_17
REMARK    8  A    between atoms: C_17  and  C_18
REMARK    9  A    between atoms: N_20  and  C_21
REMARK                            x       y       z     vdW  Elec       q    Type
REMARK                         _______ _______ _______ _____ _____    ______ ____
ROOT
ATOM      1  C   UNL     1       2.908   4.913  19.114  0.00  0.00    +0.000 A 
ATOM      2  C   UNL     1       2.374   5.042  20.403  0.00  0.00    +0.000 A 
ATOM      3  C   UNL     1       1.872   6.276  20.815  0.00  0.00    +0.000 A 
ATOM      4  C   UNL     1       1.924   7.385  19.958  0.00  0.00    +0.000 A 
ATOM      5  C   UNL     1       2.469   7.241  18.675  0.00  0.00    +0.000 A 
ATOM      6  C   UNL     1       2.970   6.012  18.257  0.00  0.00    +0.000 A 
ENDROOT
BRANCH   1   7
ATOM      7  S   UNL     1       3.584   3.366  18.566  0.00  0.00    +0.000 S 
ATOM      8  O   UNL     1       3.520   3.360  17.120  0.00  0.00    +0.000 OA
ATOM      9  O   UNL     1       2.968   2.315  19.348  0.00  0.00    +0.000 OA
BRANCH   7  10
ATOM     10  N   UNL     1       5.215   3.482  18.977  0.00  0.00    +0.000 N 
ATOM     11  H   UNL     1       5.640   2.600  19.255  0.00  0.00    +0.000 HD
BRANCH  10  16
ATOM     12  C   UNL     1       7.131   5.377  16.408  0.00  0.00    +0.000 A 
ATOM     13  C   UNL     1       7.606   6.437  17.187  0.00  0.00    +0.000 A 
ATOM     14  C   UNL     1       7.295   6.520  18.545  0.00  0.00    +0.000 A 
ATOM     15  C   UNL     1       6.500   5.536  19.132  0.00  0.00    +0.000 A 
ATOM     16  C   UNL     1       6.029   4.474  18.362  0.00  0.00    +0.000 A 
ATOM     17  C   UNL     1       6.339   4.393  17.002  0.00  0.00    +0.000 A 
BRANCH  12  19
ATOM     18  C   UNL     1       6.696   4.718  14.160  0.00  0.00    +0.000 C 
ATOM     19  O   UNL     1       7.515   5.414  15.094  0.00  0.00    +0.000 OA
ENDBRANCH  12  19
ENDBRANCH  10  16
ENDBRANCH   7  10
ENDBRANCH   1   7
BRANCH   4  20
ATOM     20  C   UNL     1       1.343   8.706  20.373  0.00  0.00    +0.000 C 
BRANCH  20  21
ATOM     21  C   UNL     1       1.274   8.944  21.886  0.00  0.00    +0.000 C 
BRANCH  21  22
ATOM     22  C   UNL     1       0.075   9.830  22.144  0.00  0.00    +0.000 C 
ATOM     23  O   UNL     1      -0.793   9.484  22.952  0.00  0.00    +0.000 OA
ATOM     24  N   UNL     1       0.064  11.010  21.435  0.00  0.00    +0.000 N 
ATOM     25  H   UNL     1       0.906  11.281  20.938  0.00  0.00    +0.000 HD
BRANCH  24  26
ATOM     26  C   UNL     1      -0.941  11.997  21.561  0.00  0.00    +0.000 A 
ATOM     27  C   UNL     1      -1.975  12.195  20.633  0.00  0.00    +0.000 A 
ATOM     28  C   UNL     1      -3.075  13.004  20.947  0.00  0.00    +0.000 A 
ATOM     29  C   UNL     1      -3.089  13.686  22.163  0.00  0.00    +0.000 A 
ATOM     30  C   UNL     1      -1.943  13.663  22.958  0.00  0.00    +0.000 A 
ATOM     31  C   UNL     1      -0.904  12.786  22.699  0.00  0.00    +0.000 A 
ATOM     32  O   UNL     1      -1.806  14.468  24.045  0.00  0.00    +0.000 OA
ATOM     33  C   UNL     1      -3.007  14.336  24.774  0.00  0.00    +0.000 C 
ATOM     34  C   UNL     1      -4.218  14.745  23.936  0.00  0.00    +0.000 C 
ATOM     35  O   UNL     1      -4.236  14.308  22.565  0.00  0.00    +0.000 OA
ENDBRANCH  24  26
ENDBRANCH  21  22
ENDBRANCH  20  21
ENDBRANCH   4  20
TORSDOF 8
ENDMDL
MODEL 4
REMARK VINA RESULT:      -8.4      3.465      4.373
REMARK  Name = 
REMARK  9 active torsions:
REMARK  status: ('A' for Active; 'I' for Inactive)
REMARK    1  A    between atoms: C_1  and  O_2
REMARK    2  A    between atoms: O_2  and  C_3
REMARK    3  A    between atoms: C_7  and  N_8
REMARK    4  A    between atoms: N_8  and  S_9
REMARK    5  A    between atoms: S_9  and  C_12
REMARK    6  A    between atoms: C_15  and  C_16
REMARK    7  A    between atoms: C_16  and  C_17
REMARK    8  A    between atoms: C_17  and  C_18
REMARK    9  A    between atoms: N_20  and  C_21
REMARK                            x       y       z     vdW  Elec       q    Type
REMARK                         _______ _______ _______ _____ _____    ______ ____
ROOT
ATOM      1  C   UNL     1       3.081   4.766  19.129  0.00  0.00    +0.000 A 
ATOM      2  C   UNL     1       2.476   4.970  20.376  0.00  0.00    +0.000 A 
ATOM      3  C   UNL     1       1.928   6.218  20.675  0.00  0.00    +0.000 A 
ATOM      4  C   UNL     1       2.002   7.265  19.746  0.00  0.00    +0.000 A 
ATOM      5  C   UNL     1       2.618   7.046  18.506  0.00  0.00    +0.000 A 
ATOM      6  C   UNL     1       3.165   5.804  18.202  0.00  0.00    +0.000 A 
ENDROOT
BRANCH   1   7
ATOM      7  S   UNL     1       3.817   3.202  18.727  0.00  0.00    +0.000 S 
ATOM      8  O   UNL     1       3.627   2.993  17.307  0.00  0.00    +0.000 OA
ATOM      9  O   UNL     1       3.349   2.233  19.696  0.00  0.00    +0.000 OA
BRANCH   7  10
ATOM     10  N   UNL     1       5.465   3.471  18.960  0.00  0.00    +0.000 N 
ATOM     11  H   UNL     1       5.989   2.643  19.234  0.00  0.00    +0.000 HD
BRANCH  10  16
ATOM     12  C   UNL     1       7.487   6.485  18.129  0.00  0.00    +0.000 A 
ATOM     13  C   UNL     1       7.418   6.451  16.733  0.00  0.00    +0.000 A 
ATOM     14  C   UNL     1       6.710   5.442  16.078  0.00  0.00    +0.000 A 
ATOM     15  C   UNL     1       6.065   4.455  16.824  0.00  0.00    +0.000 A 
ATOM     16  C   UNL     1       6.125   4.488  18.216  0.00  0.00    +0.000 A 
ATOM     17  C   UNL     1       6.836   5.497  18.871  0.00  0.00    +0.000 A 
BRANCH  12  19
ATOM     18  C   UNL     1       8.161   8.761  17.930  0.00  0.00    +0.000 C 
ATOM     19  O   UNL     1       8.208   7.530  18.643  0.00  0.00    +0.000 OA
ENDBRANCH  12  19
ENDBRANCH  10  16
ENDBRANCH   7  10
ENDBRANCH   1   7
BRANCH   4  20
ATOM     20  C   UNL     1       1.373   8.597  20.036  0.00  0.00    +0.000 C 
BRANCH  20  21
ATOM     21  C   UNL     1       0.703   8.718  21.410  0.00  0.00    +0.000 C 
BRANCH  21  22
ATOM     22  C   UNL     1      -0.137   9.977  21.387  0.00  0.00    +0.000 C 
ATOM     23  O   UNL     1      -0.641  10.371  20.331  0.00  0.00    +0.000 OA
ATOM     24  N   UNL     1      -0.288  10.594  22.609  0.00  0.00    +0.000 N 
ATOM     25  H   UNL     1       0.013  10.096  23.440  0.00  0.00    +0.000 HD
BRANCH  24  26
ATOM     26  C   UNL     1      -1.067  11.755  22.815  0.00  0.00    +0.000 A 
ATOM     27  C   UNL     1      -0.624  13.061  22.554  0.00  0.00    +0.000 A 
ATOM     28  C   UNL     1      -1.526  14.134  22.530  0.00  0.00    +0.000 A 
ATOM     29  C   UNL     1      -2.862  13.903  22.858  0.00  0.00    +0.000 A 
ATOM     30  C   UNL     1      -3.224  12.648  23.348  0.00  0.00    +0.000 A 
ATOM     31  C   UNL     1      -2.362  11.568  23.273  0.00  0.00    +0.000 A 
ATOM     32  O   UNL     1      -4.452  12.412  23.883  0.00  0.00    +0.000 OA
ATOM     33  C   UNL     1      -5.380  12.957  22.970  0.00  0.00    +0.000 C 
ATOM     34  C   UNL     1      -5.148  14.454  22.763  0.00  0.00    +0.000 C 
ATOM     35  O   UNL     1      -3.781  14.888  22.642  0.00  0.00    +0.000 OA
ENDBRANCH  24  26
ENDBRANCH  21  22
ENDBRANCH  20  21
ENDBRANCH   4  20
TORSDOF 8
ENDMDL
MODEL 5
REMARK VINA RESULT:      -8.4      3.197      3.824
REMARK  Name = 
REMARK  9 active torsions:
REMARK  status: ('A' for Active; 'I' for Inactive)
REMARK    1  A    between atoms: C_1  and  O_2
REMARK    2  A    between atoms: O_2  and  C_3
REMARK    3  A    between atoms: C_7  and  N_8
REMARK    4  A    between atoms: N_8  and  S_9
REMARK    5  A    between atoms: S_9  and  C_12
REMARK    6  A    between atoms: C_15  and  C_16
REMARK    7  A    between atoms: C_16  and  C_17
REMARK    8  A    between atoms: C_17  and  C_18
REMARK    9  A    between atoms: N_20  and  C_21
REMARK                            x       y       z     vdW  Elec       q    Type
REMARK                         _______ _______ _______ _____ _____    ______ ____
ROOT
ATOM      1  C   UNL     1       2.987   4.969  19.242  0.00  0.00    +0.000 A 
ATOM      2  C   UNL     1       3.088   6.008  18.307  0.00  0.00    +0.000 A 
ATOM      3  C   UNL     1       2.565   7.263  18.619  0.00  0.00    +0.000 A 
ATOM      4  C   UNL     1       1.922   7.477  19.846  0.00  0.00    +0.000 A 
ATOM      5  C   UNL     1       1.823   6.425  20.767  0.00  0.00    +0.000 A 
ATOM      6  C   UNL     1       2.343   5.172  20.463  0.00  0.00    +0.000 A 
ENDROOT
BRANCH   1   7
ATOM      7  S   UNL     1       3.613   3.351  18.867  0.00  0.00    +0.000 S 
ATOM      8  O   UNL     1       3.416   3.135  17.449  0.00  0.00    +0.000 OA
ATOM      9  O   UNL     1       3.073   2.432  19.847  0.00  0.00    +0.000 OA
BRANCH   7  10
ATOM     10  N   UNL     1       5.275   3.507  19.106  0.00  0.00    +0.000 N 
ATOM     11  H   UNL     1       5.746   2.637  19.348  0.00  0.00    +0.000 HD
BRANCH  10  16
ATOM     12  C   UNL     1       6.744   5.496  16.323  0.00  0.00    +0.000 A 
ATOM     13  C   UNL     1       7.406   6.489  17.052  0.00  0.00    +0.000 A 
ATOM     14  C   UNL     1       7.364   6.496  18.447  0.00  0.00    +0.000 A 
ATOM     15  C   UNL     1       6.654   5.504  19.123  0.00  0.00    +0.000 A 
ATOM     16  C   UNL     1       5.998   4.508  18.401  0.00  0.00    +0.000 A 
ATOM     17  C   UNL     1       6.038   4.503  17.004  0.00  0.00    +0.000 A 
BRANCH  12  19
ATOM     18  C   UNL     1       6.530   4.457  14.190  0.00  0.00    +0.000 C 
ATOM     19  O   UNL     1       6.871   5.602  14.964  0.00  0.00    +0.000 OA
ENDBRANCH  12  19
ENDBRANCH  10  16
ENDBRANCH   7  10
ENDBRANCH   1   7
BRANCH   4  20
ATOM     20  C   UNL     1       1.399   8.836  20.214  0.00  0.00    +0.000 C 
BRANCH  20  21
ATOM     21  C   UNL     1       0.663   8.912  21.557  0.00  0.00    +0.000 C 
BRANCH  21  22
ATOM     22  C   UNL     1      -0.232  10.131  21.506  0.00  0.00    +0.000 C 
ATOM     23  O   UNL     1      -0.704  10.513  20.430  0.00  0.00    +0.000 OA
ATOM     24  N   UNL     1      -0.470  10.727  22.725  0.00  0.00    +0.000 N 
ATOM     25  H   UNL     1      -0.185  10.234  23.565  0.00  0.00    +0.000 HD
BRANCH  24  26
ATOM     26  C   UNL     1      -1.311  11.848  22.904  0.00  0.00    +0.000 A 
ATOM     27  C   UNL     1      -2.647  11.775  23.329  0.00  0.00    +0.000 A 
ATOM     28  C   UNL     1      -3.335  12.926  23.735  0.00  0.00    +0.000 A 
ATOM     29  C   UNL     1      -2.704  14.165  23.629  0.00  0.00    +0.000 A 
ATOM     30  C   UNL     1      -1.471  14.236  22.979  0.00  0.00    +0.000 A 
ATOM     31  C   UNL     1      -0.751  13.095  22.674  0.00  0.00    +0.000 A 
ATOM     32  O   UNL     1      -0.898  15.425  22.652  0.00  0.00    +0.000 OA
ATOM     33  C   UNL     1      -0.977  16.222  23.814  0.00  0.00    +0.000 C 
ATOM     34  C   UNL     1      -2.425  16.414  24.264  0.00  0.00    +0.000 C 
ATOM     35  O   UNL     1      -3.281  15.259  24.206  0.00  0.00    +0.000 OA
ENDBRANCH  24  26
ENDBRANCH  21  22
ENDBRANCH  20  21
ENDBRANCH   4  20
TORSDOF 8
ENDMDL
MODEL 6
REMARK VINA RESULT:      -8.4      3.342      4.380
REMARK  Name = 
REMARK  9 active torsions:
REMARK  status: ('A' for Active; 'I' for Inactive)
REMARK    1  A    between atoms: C_1  and  O_2
REMARK    2  A    between atoms: O_2  and  C_3
REMARK    3  A    between atoms: C_7  and  N_8
REMARK    4  A    between atoms: N_8  and  S_9
REMARK    5  A    between atoms: S_9  and  C_12
REMARK    6  A    between atoms: C_15  and  C_16
REMARK    7  A    between atoms: C_16  and  C_17
REMARK    8  A    between atoms: C_17  and  C_18
REMARK    9  A    between atoms: N_20  and  C_21
REMARK                            x       y       z     vdW  Elec       q    Type
REMARK                         _______ _______ _______ _____ _____    ______ ____
ROOT
ATOM      1  C   UNL     1       2.479   4.888  18.901  0.00  0.00    +0.000 A 
ATOM      2  C   UNL     1       2.495   5.788  17.826  0.00  0.00    +0.000 A 
ATOM      3  C   UNL     1       2.275   7.144  18.066  0.00  0.00    +0.000 A 
ATOM      4  C   UNL     1       2.016   7.601  19.366  0.00  0.00    +0.000 A 
ATOM      5  C   UNL     1       1.996   6.687  20.428  0.00  0.00    +0.000 A 
ATOM      6  C   UNL     1       2.215   5.334  20.196  0.00  0.00    +0.000 A 
ENDROOT
BRANCH   1   7
ATOM      7  S   UNL     1       2.723   3.152  18.629  0.00  0.00    +0.000 S 
ATOM      8  O   UNL     1       2.253   2.858  17.291  0.00  0.00    +0.000 OA
ATOM      9  O   UNL     1       2.196   2.448  19.780  0.00  0.00    +0.000 OA
BRANCH   7  10
ATOM     10  N   UNL     1       4.401   2.990  18.598  0.00  0.00    +0.000 N 
ATOM     11  H   UNL     1       4.730   2.030  18.670  0.00  0.00    +0.000 HD
BRANCH  10  16
ATOM     12  C   UNL     1       6.759   5.772  17.849  0.00  0.00    +0.000 A 
ATOM     13  C   UNL     1       6.724   5.756  16.451  0.00  0.00    +0.000 A 
ATOM     14  C   UNL     1       5.928   4.834  15.768  0.00  0.00    +0.000 A 
ATOM     15  C   UNL     1       5.161   3.918  16.487  0.00  0.00    +0.000 A 
ATOM     16  C   UNL     1       5.187   3.935  17.881  0.00  0.00    +0.000 A 
ATOM     17  C   UNL     1       5.986   4.856  18.563  0.00  0.00    +0.000 A 
BRANCH  12  19
ATOM     18  C   UNL     1       7.779   7.914  17.629  0.00  0.00    +0.000 C 
ATOM     19  O   UNL     1       7.575   6.729  18.391  0.00  0.00    +0.000 OA
ENDBRANCH  12  19
ENDBRANCH  10  16
ENDBRANCH   7  10
ENDBRANCH   1   7
BRANCH   4  20
ATOM     20  C   UNL     1       1.827   9.065  19.644  0.00  0.00    +0.000 C 
BRANCH  20  21
ATOM     21  C   UNL     1       1.207   9.873  18.497  0.00  0.00    +0.000 C 
BRANCH  21  22
ATOM     22  C   UNL     1      -0.234  10.144  18.872  0.00  0.00    +0.000 C 
ATOM     23  O   UNL     1      -0.683   9.746  19.953  0.00  0.00    +0.000 OA
ATOM     24  N   UNL     1      -0.950  10.860  17.939  0.00  0.00    +0.000 N 
ATOM     25  H   UNL     1      -0.445  11.292  17.173  0.00  0.00    +0.000 HD
BRANCH  24  26
ATOM     26  C   UNL     1      -2.296  11.256  18.112  0.00  0.00    +0.000 A 
ATOM     27  C   UNL     1      -3.356  10.833  17.296  0.00  0.00    +0.000 A 
ATOM     28  C   UNL     1      -4.687  11.050  17.677  0.00  0.00    +0.000 A 
ATOM     29  C   UNL     1      -4.949  11.774  18.840  0.00  0.00    +0.000 A 
ATOM     30  C   UNL     1      -3.885  12.389  19.500  0.00  0.00    +0.000 A 
ATOM     31  C   UNL     1      -2.571  12.090  19.185  0.00  0.00    +0.000 A 
ATOM     32  O   UNL     1      -4.083  13.277  20.510  0.00  0.00    +0.000 OA
ATOM     33  C   UNL     1      -5.018  12.671  21.377  0.00  0.00    +0.000 C 
ATOM     34  C   UNL     1      -6.328  12.358  20.655  0.00  0.00    +0.000 C 
ATOM     35  O   UNL     1      -6.223  11.815  19.327  0.00  0.00    +0.000 OA
ENDBRANCH  24  26
ENDBRANCH  21  22
ENDBRANCH  20  21
ENDBRANCH   4  20
TORSDOF 8
ENDMDL
MODEL 7
REMARK VINA RESULT:      -8.4      5.127      7.367
REMARK  Name = 
REMARK  9 active torsions:
REMARK  status: ('A' for Active; 'I' for Inactive)
REMARK    1  A    between atoms: C_1  and  O_2
REMARK    2  A    between atoms: O_2  and  C_3
REMARK    3  A    between atoms: C_7  and  N_8
REMARK    4  A    between atoms: N_8  and  S_9
REMARK    5  A    between atoms: S_9  and  C_12
REMARK    6  A    between atoms: C_15  and  C_16
REMARK    7  A    between atoms: C_16  and  C_17
REMARK    8  A    between atoms: C_17  and  C_18
REMARK    9  A    between atoms: N_20  and  C_21
REMARK                            x       y       z     vdW  Elec       q    Type
REMARK                         _______ _______ _______ _____ _____    ______ ____
ROOT
ATOM      1  C   UNL     1       6.380   5.854  17.712  0.00  0.00    +0.000 A 
ATOM      2  C   UNL     1       7.511   5.927  18.537  0.00  0.00    +0.000 A 
ATOM      3  C   UNL     1       8.204   7.132  18.642  0.00  0.00    +0.000 A 
ATOM      4  C   UNL     1       7.789   8.255  17.912  0.00  0.00    +0.000 A 
ATOM      5  C   UNL     1       6.661   8.163  17.085  0.00  0.00    +0.000 A 
ATOM      6  C   UNL     1       5.965   6.964  16.976  0.00  0.00    +0.000 A 
ENDROOT
BRANCH   1   7
ATOM      7  S   UNL     1       5.492   4.328  17.529  0.00  0.00    +0.000 S 
ATOM      8  O   UNL     1       5.514   3.664  18.815  0.00  0.00    +0.000 OA
ATOM      9  O   UNL     1       5.987   3.671  16.337  0.00  0.00    +0.000 OA
BRANCH   7  10
ATOM     10  N   UNL     1       3.902   4.827  17.270  0.00  0.00    +0.000 N 
ATOM     11  H   UNL     1       3.581   4.720  16.310  0.00  0.00    +0.000 HD
BRANCH  10  16
ATOM     12  C   UNL     1       1.801   5.723  20.210  0.00  0.00    +0.000 A 
ATOM     13  C   UNL     1       1.082   4.534  20.371  0.00  0.00    +0.000 A 
ATOM     14  C   UNL     1       1.294   3.451  19.516  0.00  0.00    +0.000 A 
ATOM     15  C   UNL     1       2.231   3.556  18.488  0.00  0.00    +0.000 A 
ATOM     16  C   UNL     1       2.954   4.737  18.327  0.00  0.00    +0.000 A 
ATOM     17  C   UNL     1       2.740   5.821  19.182  0.00  0.00    +0.000 A 
BRANCH  12  19
ATOM     18  C   UNL     1       1.550   8.048  20.661  0.00  0.00    +0.000 C 
ATOM     19  O   UNL     1       1.501   6.702  21.120  0.00  0.00    +0.000 OA
ENDBRANCH  12  19
ENDBRANCH  10  16
ENDBRANCH   7  10
ENDBRANCH   1   7
BRANCH   4  20
ATOM     20  C   UNL     1       8.497   9.571  18.055  0.00  0.00    +0.000 C 
BRANCH  20  21
ATOM     21  C   UNL     1       9.284   9.751  19.360  0.00  0.00    +0.000 C 
BRANCH  21  22
ATOM     22  C   UNL     1       9.958  11.104  19.290  0.00  0.00    +0.000 C 
ATOM     23  O   UNL     1      11.090  11.213  18.805  0.00  0.00    +0.000 OA
ATOM     24  N   UNL     1       9.209  12.151  19.779  0.00  0.00    +0.000 N 
ATOM     25  H   UNL     1       8.230  11.986  19.987  0.00  0.00    +0.000 HD
BRANCH  24  26
ATOM     26  C   UNL     1       9.634  13.499  19.768  0.00  0.00    +0.000 A 
ATOM     27  C   UNL     1      10.345  14.113  20.811  0.00  0.00    +0.000 A 
ATOM     28  C   UNL     1      10.957  15.359  20.625  0.00  0.00    +0.000 A 
ATOM     29  C   UNL     1      10.778  16.028  19.415  0.00  0.00    +0.000 A 
ATOM     30  C   UNL     1       9.872  15.509  18.489  0.00  0.00    +0.000 A 
ATOM     31  C   UNL     1       9.351  14.235  18.628  0.00  0.00    +0.000 A 
ATOM     32  O   UNL     1       9.489  16.209  17.388  0.00  0.00    +0.000 OA
ATOM     33  C   UNL     1      10.681  16.695  16.808  0.00  0.00    +0.000 C 
ATOM     34  C   UNL     1      11.456  17.582  17.782  0.00  0.00    +0.000 C 
ATOM     35  O   UNL     1      11.530  17.136  19.148  0.00  0.00    +0.000 OA
ENDBRANCH  24  26
ENDBRANCH  21  22
ENDBRANCH  20  21
ENDBRANCH   4  20
TORSDOF 8
ENDMDL
MODEL 8
REMARK VINA RESULT:      -8.3      3.514      4.551
REMARK  Name = 
REMARK  9 active torsions:
REMARK  status: ('A' for Active; 'I' for Inactive)
REMARK    1  A    between atoms: C_1  and  O_2
REMARK    2  A    between atoms: O_2  and  C_3
REMARK    3  A    between atoms: C_7  and  N_8
REMARK    4  A    between atoms: N_8  and  S_9
REMARK    5  A    between atoms: S_9  and  C_12
REMARK    6  A    between atoms: C_15  and  C_16
REMARK    7  A    between atoms: C_16  and  C_17
REMARK    8  A    between atoms: C_17  and  C_18
REMARK    9  A    between atoms: N_20  and  C_21
REMARK                            x       y       z     vdW  Elec       q    Type
REMARK                         _______ _______ _______ _____ _____    ______ ____
ROOT
ATOM      1  C   UNL     1       2.960   5.019  19.003  0.00  0.00    +0.000 A 
ATOM      2  C   UNL     1       2.779   5.869  20.102  0.00  0.00    +0.000 A 
ATOM      3  C   UNL     1       2.379   7.188  19.889  0.00  0.00    +0.000 A 
ATOM      4  C   UNL     1       2.183   7.667  18.586  0.00  0.00    +0.000 A 
ATOM      5  C   UNL     1       2.377   6.806  17.497  0.00  0.00    +0.000 A 
ATOM      6  C   UNL     1       2.775   5.490  17.703  0.00  0.00    +0.000 A 
ENDROOT
BRANCH   1   7
ATOM      7  S   UNL     1       3.500   3.344  19.235  0.00  0.00    +0.000 S 
ATOM      8  O   UNL     1       3.208   2.628  18.011  0.00  0.00    +0.000 OA
ATOM      9  O   UNL     1       2.987   2.889  20.510  0.00  0.00    +0.000 OA
BRANCH   7  10
ATOM     10  N   UNL     1       5.178   3.480  19.326  0.00  0.00    +0.000 N 
ATOM     11  H   UNL     1       5.652   2.627  19.613  0.00  0.00    +0.000 HD
BRANCH  10  16
ATOM     12  C   UNL     1       7.305   6.304  18.157  0.00  0.00    +0.000 A 
ATOM     13  C   UNL     1       7.190   6.143  16.773  0.00  0.00    +0.000 A 
ATOM     14  C   UNL     1       6.417   5.111  16.237  0.00  0.00    +0.000 A 
ATOM     15  C   UNL     1       5.753   4.230  17.090  0.00  0.00    +0.000 A 
ATOM     16  C   UNL     1       5.859   4.391  18.471  0.00  0.00    +0.000 A 
ATOM     17  C   UNL     1       6.635   5.422  19.006  0.00  0.00    +0.000 A 
BRANCH  12  19
ATOM     18  C   UNL     1       8.027   8.539  17.757  0.00  0.00    +0.000 C 
ATOM     19  O   UNL     1       8.087   7.357  18.549  0.00  0.00    +0.000 OA
ENDBRANCH  12  19
ENDBRANCH  10  16
ENDBRANCH   7  10
ENDBRANCH   1   7
BRANCH   4  20
ATOM     20  C   UNL     1       1.705   9.070  18.346  0.00  0.00    +0.000 C 
BRANCH  20  21
ATOM     21  C   UNL     1       0.946   9.711  19.514  0.00  0.00    +0.000 C 
BRANCH  21  22
ATOM     22  C   UNL     1      -0.090  10.638  18.918  0.00  0.00    +0.000 C 
ATOM     23  O   UNL     1       0.215  11.792  18.598  0.00  0.00    +0.000 OA
ATOM     24  N   UNL     1      -1.340  10.083  18.758  0.00  0.00    +0.000 N 
ATOM     25  H   UNL     1      -1.442   9.081  18.882  0.00  0.00    +0.000 HD
BRANCH  24  26
ATOM     26  C   UNL     1      -2.437  10.762  18.180  0.00  0.00    +0.000 A 
ATOM     27  C   UNL     1      -2.773  10.708  16.818  0.00  0.00    +0.000 A 
ATOM     28  C   UNL     1      -4.010  11.186  16.364  0.00  0.00    +0.000 A 
ATOM     29  C   UNL     1      -4.873  11.798  17.271  0.00  0.00    +0.000 A 
ATOM     30  C   UNL     1      -4.416  12.056  18.564  0.00  0.00    +0.000 A 
ATOM     31  C   UNL     1      -3.242  11.495  19.038  0.00  0.00    +0.000 A 
ATOM     32  O   UNL     1      -5.116  12.831  19.434  0.00  0.00    +0.000 OA
ATOM     33  C   UNL     1      -6.446  12.360  19.383  0.00  0.00    +0.000 C 
ATOM     34  C   UNL     1      -7.021  12.460  17.970  0.00  0.00    +0.000 C 
ATOM     35  O   UNL     1      -6.153  12.079  16.888  0.00  0.00    +0.000 OA
ENDBRANCH  24  26
ENDBRANCH  21  22
ENDBRANCH  20  21
ENDBRANCH   4  20
TORSDOF 8
ENDMDL
MODEL 9
REMARK VINA RESULT:      -8.3      1.018      1.063
REMARK  Name = 
REMARK  9 active torsions:
REMARK  status: ('A' for Active; 'I' for Inactive)
REMARK    1  A    between atoms: C_1  and  O_2
REMARK    2  A    between atoms: O_2  and  C_3
REMARK    3  A    between atoms: C_7  and  N_8
REMARK    4  A    between atoms: N_8  and  S_9
REMARK    5  A    between atoms: S_9  and  C_12
REMARK    6  A    between atoms: C_15  and  C_16
REMARK    7  A    between atoms: C_16  and  C_17
REMARK    8  A    between atoms: C_17  and  C_18
REMARK    9  A    between atoms: N_20  and  C_21
REMARK                            x       y       z     vdW  Elec       q    Type
REMARK                         _______ _______ _______ _____ _____    ______ ____
ROOT
ATOM      1  C   UNL     1       2.994   4.982  19.033  0.00  0.00    +0.000 A 
ATOM      2  C   UNL     1       3.024   5.848  17.932  0.00  0.00    +0.000 A 
ATOM      3  C   UNL     1       2.537   7.148  18.070  0.00  0.00    +0.000 A 
ATOM      4  C   UNL     1       2.000   7.577  19.291  0.00  0.00    +0.000 A 
ATOM      5  C   UNL     1       1.970   6.696  20.381  0.00  0.00    +0.000 A 
ATOM      6  C   UNL     1       2.454   5.399  20.250  0.00  0.00    +0.000 A 
ENDROOT
BRANCH   1   7
ATOM      7  S   UNL     1       3.575   3.312  18.886  0.00  0.00    +0.000 S 
ATOM      8  O   UNL     1       3.354   2.901  17.515  0.00  0.00    +0.000 OA
ATOM      9  O   UNL     1       3.028   2.556  19.993  0.00  0.00    +0.000 OA
BRANCH   7  10
ATOM     10  N   UNL     1       5.244   3.457  19.082  0.00  0.00    +0.000 N 
ATOM     11  H   UNL     1       5.716   2.585  19.310  0.00  0.00    +0.000 HD
BRANCH  10  16
ATOM     12  C   UNL     1       6.685   5.421  16.266  0.00  0.00    +0.000 A 
ATOM     13  C   UNL     1       7.338   6.432  16.979  0.00  0.00    +0.000 A 
ATOM     14  C   UNL     1       7.300   6.459  18.374  0.00  0.00    +0.000 A 
ATOM     15  C   UNL     1       6.602   5.469  19.066  0.00  0.00    +0.000 A 
ATOM     16  C   UNL     1       5.954   4.456  18.360  0.00  0.00    +0.000 A 
ATOM     17  C   UNL     1       5.991   4.431  16.964  0.00  0.00    +0.000 A 
BRANCH  12  19
ATOM     18  C   UNL     1       6.568   4.323  14.156  0.00  0.00    +0.000 C 
ATOM     19  O   UNL     1       6.807   5.509  14.905  0.00  0.00    +0.000 OA
ENDBRANCH  12  19
ENDBRANCH  10  16
ENDBRANCH   7  10
ENDBRANCH   1   7
BRANCH   4  20
ATOM     20  C   UNL     1       1.518   8.989  19.466  0.00  0.00    +0.000 C 
BRANCH  20  21
ATOM     21  C   UNL     1       0.633   9.230  20.695  0.00  0.00    +0.000 C 
BRANCH  21  22
ATOM     22  C   UNL     1       0.696  10.709  21.006  0.00  0.00    +0.000 C 
ATOM     23  O   UNL     1       0.375  11.126  22.124  0.00  0.00    +0.000 OA
ATOM     24  N   UNL     1       1.145  11.500  19.972  0.00  0.00    +0.000 N 
ATOM     25  H   UNL     1       1.552  11.046  19.161  0.00  0.00    +0.000 HD
BRANCH  24  26
ATOM     26  C   UNL     1       1.320  12.899  20.067  0.00  0.00    +0.000 A 
ATOM     27  C   UNL     1       2.521  13.523  20.438  0.00  0.00    +0.000 A 
ATOM     28  C   UNL     1       2.699  14.901  20.258  0.00  0.00    +0.000 A 
ATOM     29  C   UNL     1       1.634  15.666  19.786  0.00  0.00    +0.000 A 
ATOM     30  C   UNL     1       0.382  15.064  19.656  0.00  0.00    +0.000 A 
ATOM     31  C   UNL     1       0.232  13.690  19.733  0.00  0.00    +0.000 A 
ATOM     32  O   UNL     1      -0.742  15.787  19.407  0.00  0.00    +0.000 OA
ATOM     33  C   UNL     1      -0.412  16.653  18.342  0.00  0.00    +0.000 C 
ATOM     34  C   UNL     1       0.760  17.565  18.704  0.00  0.00    +0.000 C 
ATOM     35  O   UNL     1       1.855  16.961  19.416  0.00  0.00    +0.000 OA
ENDBRANCH  24  26
ENDBRANCH  21  22
ENDBRANCH  20  21
ENDBRANCH   4  20
TORSDOF 8
ENDMDL
