MODEL 1
REMARK VINA RESULT:      -6.8      0.000      0.000
REMARK  Name = 
REMARK  3 active torsions:
REMARK  status: ('A' for Active; 'I' for Inactive)
REMARK    1  A    between atoms: C_5  and  C_7
REMARK    2  A    between atoms: C_7  and  C_8
REMARK    3  A    between atoms: C_14  and  C_15
REMARK                            x       y       z     vdW  Elec       q    Type
REMARK                         _______ _______ _______ _____ _____    ______ ____
ROOT
ATOM      1  O   UNL     1       1.697   8.699  18.923  0.00  0.00    +0.000 OA
ATOM      2  C   UNL     1       1.083   9.738  19.205  0.00  0.00    +0.000 C 
ATOM      3  C   UNL     1      -0.024   9.678  20.259  0.00  0.00    +0.000 C 
ATOM      4  N   UNL     1      -0.757  10.874  20.675  0.00  0.00    +0.000 N 
ATOM      5  C   UNL     1      -0.674  11.254  22.021  0.00  0.00    +0.000 C 
ATOM      6  O   UNL     1      -0.043  10.602  22.853  0.00  0.00    +0.000 OA
ATOM      7  C   UNL     1      -1.216  11.778  19.613  0.00  0.00    +0.000 C 
ATOM      8  C   UNL     1      -0.047  12.684  19.272  0.00  0.00    +0.000 A 
ATOM      9  C   UNL     1      -0.157  14.065  19.546  0.00  0.00    +0.000 A 
ATOM     10  C   UNL     1       0.860  14.947  19.191  0.00  0.00    +0.000 A 
ATOM     11 CL   UNL     1       0.766  16.597  19.661  0.00  0.00    +0.000 Cl
ATOM     12  C   UNL     1       1.954  14.488  18.476  0.00  0.00    +0.000 A 
ATOM     13  C   UNL     1       2.074  13.127  18.201  0.00  0.00    +0.000 A 
ATOM     14  C   UNL     1       1.127  12.208  18.679  0.00  0.00    +0.000 A 
ATOM     15  N   UNL     1       1.474  10.860  18.547  0.00  0.00    +0.000 N 
ATOM     16  H   UNL     1       2.287  10.652  17.977  0.00  0.00    +0.000 HD
ENDROOT
BRANCH   7  17
ATOM     17  C   UNL     1      -1.931  11.129  18.415  0.00  0.00    +0.000 A 
ATOM     18  C   UNL     1      -2.751   9.997  18.575  0.00  0.00    +0.000 A 
ATOM     19  C   UNL     1      -3.416   9.424  17.486  0.00  0.00    +0.000 A 
ATOM     20  C   UNL     1      -3.326  10.006  16.225  0.00  0.00    +0.000 A 
ATOM     21  C   UNL     1      -2.586  11.172  16.058  0.00  0.00    +0.000 A 
ATOM     22  C   UNL     1      -1.905  11.731  17.142  0.00  0.00    +0.000 A 
ENDBRANCH   7  17
BRANCH   5  23
ATOM     23  C   UNL     1      -1.383  12.545  22.434  0.00  0.00    +0.000 C 
BRANCH  23  24
ATOM     24  C   UNL     1      -2.843  12.410  22.896  0.00  0.00    +0.000 C 
ATOM     25  C   UNL     1      -3.130  13.428  24.022  0.00  0.00    +0.000 C 
ATOM     26  C   UNL     1      -3.119  14.880  23.531  0.00  0.00    +0.000 C 
ATOM     27  C   UNL     1      -4.063  15.084  22.349  0.00  0.00    +0.000 C 
ATOM     28  C   UNL     1      -3.844  14.067  21.231  0.00  0.00    +0.000 C 
ATOM     29  C   UNL     1      -3.846  12.631  21.753  0.00  0.00    +0.000 C 
ENDBRANCH  23  24
ENDBRANCH   5  23
TORSDOF 3
ENDMDL
MODEL 2
REMARK VINA RESULT:      -6.7      2.661      4.553
REMARK  Name = 
REMARK  3 active torsions:
REMARK  status: ('A' for Active; 'I' for Inactive)
REMARK    1  A    between atoms: C_5  and  C_7
REMARK    2  A    between atoms: C_7  and  C_8
REMARK    3  A    between atoms: C_14  and  C_15
REMARK                            x       y       z     vdW  Elec       q    Type
REMARK                         _______ _______ _______ _____ _____    ______ ____
ROOT
ATOM      1  O   UNL     1       1.456  13.317  18.208  0.00  0.00    +0.000 OA
ATOM      2  C   UNL     1       0.330  13.096  18.677  0.00  0.00    +0.000 C 
ATOM      3  C   UNL     1      -0.062  13.760  19.999  0.00  0.00    +0.000 C 
ATOM      4  N   UNL     1      -1.390  13.582  20.586  0.00  0.00    +0.000 N 
ATOM      5  C   UNL     1      -2.181  14.725  20.765  0.00  0.00    +0.000 C 
ATOM      6  O   UNL     1      -1.784  15.854  20.480  0.00  0.00    +0.000 OA
ATOM      7  C   UNL     1      -1.933  12.218  20.606  0.00  0.00    +0.000 C 
ATOM      8  C   UNL     1      -2.565  11.977  19.247  0.00  0.00    +0.000 A 
ATOM      9  C   UNL     1      -3.964  11.795  19.172  0.00  0.00    +0.000 A 
ATOM     10  C   UNL     1      -4.583  11.505  17.960  0.00  0.00    +0.000 A 
ATOM     11 CL   UNL     1      -6.297  11.427  17.869  0.00  0.00    +0.000 Cl
ATOM     12  C   UNL     1      -3.816  11.298  16.824  0.00  0.00    +0.000 A 
ATOM     13  C   UNL     1      -2.434  11.477  16.886  0.00  0.00    +0.000 A 
ATOM     14  C   UNL     1      -1.815  11.911  18.069  0.00  0.00    +0.000 A 
ATOM     15  N   UNL     1      -0.473  12.281  17.945  0.00  0.00    +0.000 N 
ATOM     16  H   UNL     1      -0.015  12.053  17.069  0.00  0.00    +0.000 HD
ENDROOT
BRANCH   7  17
ATOM     17  C   UNL     1      -0.996  11.109  21.113  0.00  0.00    +0.000 A 
ATOM     18  C   UNL     1      -0.696  10.971  22.481  0.00  0.00    +0.000 A 
ATOM     19  C   UNL     1       0.140   9.947  22.940  0.00  0.00    +0.000 A 
ATOM     20  C   UNL     1       0.643   9.003  22.050  0.00  0.00    +0.000 A 
ATOM     21  C   UNL     1       0.295   9.071  20.706  0.00  0.00    +0.000 A 
ATOM     22  C   UNL     1      -0.522  10.107  20.246  0.00  0.00    +0.000 A 
ENDBRANCH   7  17
BRANCH   5  23
ATOM     23  C   UNL     1      -3.595  14.524  21.311  0.00  0.00    +0.000 C 
BRANCH  23  24
ATOM     24  C   UNL     1      -3.855  15.015  22.744  0.00  0.00    +0.000 C 
ATOM     25  C   UNL     1      -5.364  14.915  23.065  0.00  0.00    +0.000 C 
ATOM     26  C   UNL     1      -5.857  13.467  23.165  0.00  0.00    +0.000 C 
ATOM     27  C   UNL     1      -5.028  12.655  24.157  0.00  0.00    +0.000 C 
ATOM     28  C   UNL     1      -3.526  12.765  23.904  0.00  0.00    +0.000 C 
ATOM     29  C   UNL     1      -3.066  14.218  23.794  0.00  0.00    +0.000 C 
ENDBRANCH  23  24
ENDBRANCH   5  23
TORSDOF 3
ENDMDL
MODEL 3
REMARK VINA RESULT:      -6.7      2.550      5.092
REMARK  Name = 
REMARK  3 active torsions:
REMARK  status: ('A' for Active; 'I' for Inactive)
REMARK    1  A    between atoms: C_5  and  C_7
REMARK    2  A    between atoms: C_7  and  C_8
REMARK    3  A    between atoms: C_14  and  C_15
REMARK                            x       y       z     vdW  Elec       q    Type
REMARK                         _______ _______ _______ _____ _____    ______ ____
ROOT
ATOM      1  O   UNL     1       1.002   9.105  20.432  0.00  0.00    +0.000 OA
ATOM      2  C   UNL     1       0.127   9.978  20.332  0.00  0.00    +0.000 C 
ATOM      3  C   UNL     1      -0.418  10.321  18.944  0.00  0.00    +0.000 C 
ATOM      4  N   UNL     1      -1.482  11.306  18.756  0.00  0.00    +0.000 N 
ATOM      5  C   UNL     1      -2.681  10.867  18.178  0.00  0.00    +0.000 C 
ATOM      6  O   UNL     1      -2.846   9.707  17.800  0.00  0.00    +0.000 OA
ATOM      7  C   UNL     1      -1.364  12.566  19.501  0.00  0.00    +0.000 C 
ATOM      8  C   UNL     1      -1.925  12.311  20.888  0.00  0.00    +0.000 A 
ATOM      9  C   UNL     1      -3.100  12.988  21.281  0.00  0.00    +0.000 A 
ATOM     10  C   UNL     1      -3.616  12.839  22.564  0.00  0.00    +0.000 A 
ATOM     11 CL   UNL     1      -5.121  13.561  22.973  0.00  0.00    +0.000 Cl
ATOM     12  C   UNL     1      -2.924  12.093  23.506  0.00  0.00    +0.000 A 
ATOM     13  C   UNL     1      -1.763  11.419  23.129  0.00  0.00    +0.000 A 
ATOM     14  C   UNL     1      -1.313  11.445  21.800  0.00  0.00    +0.000 A 
ATOM     15  N   UNL     1      -0.285  10.547  21.495  0.00  0.00    +0.000 N 
ATOM     16  H   UNL     1       0.159  10.078  22.277  0.00  0.00    +0.000 HD
ENDROOT
BRANCH   7  17
ATOM     17  C   UNL     1       0.001  13.273  19.451  0.00  0.00    +0.000 A 
ATOM     18  C   UNL     1       0.844  13.163  18.330  0.00  0.00    +0.000 A 
ATOM     19  C   UNL     1       2.075  13.825  18.281  0.00  0.00    +0.000 A 
ATOM     20  C   UNL     1       2.463  14.659  19.325  0.00  0.00    +0.000 A 
ATOM     21  C   UNL     1       1.612  14.847  20.408  0.00  0.00    +0.000 A 
ATOM     22  C   UNL     1       0.392  14.168  20.465  0.00  0.00    +0.000 A 
ENDBRANCH   7  17
BRANCH   5  23
ATOM     23  C   UNL     1      -3.816  11.884  18.052  0.00  0.00    +0.000 C 
BRANCH  23  24
ATOM     24  C   UNL     1      -5.180  11.340  17.599  0.00  0.00    +0.000 C 
ATOM     25  C   UNL     1      -5.885  10.643  18.785  0.00  0.00    +0.000 C 
ATOM     26  C   UNL     1      -6.318  11.623  19.880  0.00  0.00    +0.000 C 
ATOM     27  C   UNL     1      -7.175  12.756  19.319  0.00  0.00    +0.000 C 
ATOM     28  C   UNL     1      -6.535  13.441  18.113  0.00  0.00    +0.000 C 
ATOM     29  C   UNL     1      -6.100  12.439  17.045  0.00  0.00    +0.000 C 
ENDBRANCH  23  24
ENDBRANCH   5  23
TORSDOF 3
ENDMDL
MODEL 4
REMARK VINA RESULT:      -6.6      2.428      4.910
REMARK  Name = 
REMARK  3 active torsions:
REMARK  status: ('A' for Active; 'I' for Inactive)
REMARK    1  A    between atoms: C_5  and  C_7
REMARK    2  A    between atoms: C_7  and  C_8
REMARK    3  A    between atoms: C_14  and  C_15
REMARK                            x       y       z     vdW  Elec       q    Type
REMARK                         _______ _______ _______ _____ _____    ______ ____
ROOT
ATOM      1  O   UNL     1       1.902   8.587  19.014  0.00  0.00    +0.000 OA
ATOM      2  C   UNL     1       1.069   9.456  19.310  0.00  0.00    +0.000 C 
ATOM      3  C   UNL     1       0.305  10.159  18.186  0.00  0.00    +0.000 C 
ATOM      4  N   UNL     1      -0.724  11.160  18.464  0.00  0.00    +0.000 N 
ATOM      5  C   UNL     1      -2.027  10.894  18.021  0.00  0.00    +0.000 C 
ATOM      6  O   UNL     1      -2.315   9.879  17.388  0.00  0.00    +0.000 OA
ATOM      7  C   UNL     1      -0.413  12.174  19.479  0.00  0.00    +0.000 C 
ATOM      8  C   UNL     1      -0.732  11.557  20.828  0.00  0.00    +0.000 A 
ATOM      9  C   UNL     1      -1.783  12.106  21.594  0.00  0.00    +0.000 A 
ATOM     10  C   UNL     1      -2.071  11.619  22.866  0.00  0.00    +0.000 A 
ATOM     11 CL   UNL     1      -3.441  12.207  23.720  0.00  0.00    +0.000 Cl
ATOM     12  C   UNL     1      -1.262  10.647  23.434  0.00  0.00    +0.000 A 
ATOM     13  C   UNL     1      -0.222  10.097  22.686  0.00  0.00    +0.000 A 
ATOM     14  C   UNL     1      -0.013  10.477  21.351  0.00  0.00    +0.000 A 
ATOM     15  N   UNL     1       0.898   9.693  20.637  0.00  0.00    +0.000 N 
ATOM     16  H   UNL     1       1.449   9.031  21.172  0.00  0.00    +0.000 HD
ENDROOT
BRANCH   7  17
ATOM     17  C   UNL     1       0.956  12.866  19.367  0.00  0.00    +0.000 A 
ATOM     18  C   UNL     1       1.449  13.322  18.130  0.00  0.00    +0.000 A 
ATOM     19  C   UNL     1       2.686  13.970  18.037  0.00  0.00    +0.000 A 
ATOM     20  C   UNL     1       3.427  14.231  19.185  0.00  0.00    +0.000 A 
ATOM     21  C   UNL     1       2.924  13.862  20.427  0.00  0.00    +0.000 A 
ATOM     22  C   UNL     1       1.699  13.196  20.517  0.00  0.00    +0.000 A 
ENDBRANCH   7  17
BRANCH   5  23
ATOM     23  C   UNL     1      -3.114  11.910  18.378  0.00  0.00    +0.000 C 
BRANCH  23  24
ATOM     24  C   UNL     1      -4.470  11.338  18.823  0.00  0.00    +0.000 C 
ATOM     25  C   UNL     1      -5.048  12.198  19.969  0.00  0.00    +0.000 C 
ATOM     26  C   UNL     1      -5.465  13.600  19.511  0.00  0.00    +0.000 C 
ATOM     27  C   UNL     1      -6.425  13.545  18.325  0.00  0.00    +0.000 C 
ATOM     28  C   UNL     1      -5.912  12.666  17.187  0.00  0.00    +0.000 C 
ATOM     29  C   UNL     1      -5.491  11.281  17.676  0.00  0.00    +0.000 C 
ENDBRANCH  23  24
ENDBRANCH   5  23
TORSDOF 3
ENDMDL
MODEL 5
REMARK VINA RESULT:      -6.4      2.545      4.994
REMARK  Name = 
REMARK  3 active torsions:
REMARK  status: ('A' for Active; 'I' for Inactive)
REMARK    1  A    between atoms: C_5  and  C_7
REMARK    2  A    between atoms: C_7  and  C_8
REMARK    3  A    between atoms: C_14  and  C_15
REMARK                            x       y       z     vdW  Elec       q    Type
REMARK                         _______ _______ _______ _____ _____    ______ ____
ROOT
ATOM      1  O   UNL     1       1.315   9.148  19.631  0.00  0.00    +0.000 OA
ATOM      2  C   UNL     1       0.400   9.981  19.719  0.00  0.00    +0.000 C 
ATOM      3  C   UNL     1      -0.341  10.398  18.447  0.00  0.00    +0.000 C 
ATOM      4  N   UNL     1      -1.460  11.339  18.482  0.00  0.00    +0.000 N 
ATOM      5  C   UNL     1      -2.708  10.885  18.035  0.00  0.00    +0.000 C 
ATOM      6  O   UNL     1      -2.876   9.749  17.590  0.00  0.00    +0.000 OA
ATOM      7  C   UNL     1      -1.292  12.545  19.303  0.00  0.00    +0.000 C 
ATOM      8  C   UNL     1      -1.648  12.159  20.727  0.00  0.00    +0.000 A 
ATOM      9  C   UNL     1      -2.785  12.745  21.325  0.00  0.00    +0.000 A 
ATOM     10  C   UNL     1      -3.116  12.476  22.650  0.00  0.00    +0.000 A 
ATOM     11 CL   UNL     1      -4.578  13.089  23.311  0.00  0.00    +0.000 Cl
ATOM     12  C   UNL     1      -2.272  11.698  23.428  0.00  0.00    +0.000 A 
ATOM     13  C   UNL     1      -1.148  11.113  22.848  0.00  0.00    +0.000 A 
ATOM     14  C   UNL     1      -0.884  11.260  21.478  0.00  0.00    +0.000 A 
ATOM     15  N   UNL     1       0.128  10.440  20.968  0.00  0.00    +0.000 N 
ATOM     16  H   UNL     1       0.693   9.938  21.644  0.00  0.00    +0.000 HD
ENDROOT
BRANCH   7  17
ATOM     17  C   UNL     1       0.024  13.321  19.130  0.00  0.00    +0.000 A 
ATOM     18  C   UNL     1       0.388  14.356  20.011  0.00  0.00    +0.000 A 
ATOM     19  C   UNL     1       1.596  15.045  19.862  0.00  0.00    +0.000 A 
ATOM     20  C   UNL     1       2.495  14.673  18.867  0.00  0.00    +0.000 A 
ATOM     21  C   UNL     1       2.194  13.601  18.034  0.00  0.00    +0.000 A 
ATOM     22  C   UNL     1       0.977  12.928  18.170  0.00  0.00    +0.000 A 
ENDBRANCH   7  17
BRANCH   5  23
ATOM     23  C   UNL     1      -3.889  11.850  18.142  0.00  0.00    +0.000 C 
BRANCH  23  24
ATOM     24  C   UNL     1      -5.240  11.347  17.607  0.00  0.00    +0.000 C 
ATOM     25  C   UNL     1      -5.981  10.563  18.714  0.00  0.00    +0.000 C 
ATOM     26  C   UNL     1      -6.446  11.458  19.869  0.00  0.00    +0.000 C 
ATOM     27  C   UNL     1      -7.284  12.633  19.370  0.00  0.00    +0.000 C 
ATOM     28  C   UNL     1      -6.608  13.407  18.241  0.00  0.00    +0.000 C 
ATOM     29  C   UNL     1      -6.142  12.488  17.112  0.00  0.00    +0.000 C 
ENDBRANCH  23  24
ENDBRANCH   5  23
TORSDOF 3
ENDMDL
MODEL 6
REMARK VINA RESULT:      -6.4      0.981      1.386
REMARK  Name = 
REMARK  3 active torsions:
REMARK  status: ('A' for Active; 'I' for Inactive)
REMARK    1  A    between atoms: C_5  and  C_7
REMARK    2  A    between atoms: C_7  and  C_8
REMARK    3  A    between atoms: C_14  and  C_15
REMARK                            x       y       z     vdW  Elec       q    Type
REMARK                         _______ _______ _______ _____ _____    ______ ____
ROOT
ATOM      1  O   UNL     1       1.503   8.772  19.486  0.00  0.00    +0.000 OA
ATOM      2  C   UNL     1       0.920   9.861  19.592  0.00  0.00    +0.000 C 
ATOM      3  C   UNL     1      -0.268   9.970  20.550  0.00  0.00    +0.000 C 
ATOM      4  N   UNL     1      -0.974  11.234  20.760  0.00  0.00    +0.000 N 
ATOM      5  C   UNL     1      -0.978  11.770  22.056  0.00  0.00    +0.000 C 
ATOM      6  O   UNL     1      -0.447  11.199  23.008  0.00  0.00    +0.000 OA
ATOM      7  C   UNL     1      -1.304  12.021  19.566  0.00  0.00    +0.000 C 
ATOM      8  C   UNL     1      -0.069  12.834  19.221  0.00  0.00    +0.000 A 
ATOM      9  C   UNL     1      -0.133  14.241  19.323  0.00  0.00    +0.000 A 
ATOM     10  C   UNL     1       0.949  15.035  18.954  0.00  0.00    +0.000 A 
ATOM     11 CL   UNL     1       0.898  16.732  19.219  0.00  0.00    +0.000 Cl
ATOM     12  C   UNL     1       2.074  14.452  18.391  0.00  0.00    +0.000 A 
ATOM     13  C   UNL     1       2.149  13.063  18.287  0.00  0.00    +0.000 A 
ATOM     14  C   UNL     1       1.124  12.246  18.788  0.00  0.00    +0.000 A 
ATOM     15  N   UNL     1       1.415  10.880  18.843  0.00  0.00    +0.000 N 
ATOM     16  H   UNL     1       2.259  10.573  18.371  0.00  0.00    +0.000 HD
ENDROOT
BRANCH   7  17
ATOM     17  C   UNL     1      -1.953  11.262  18.396  0.00  0.00    +0.000 A 
ATOM     18  C   UNL     1      -2.750  10.123  18.612  0.00  0.00    +0.000 A 
ATOM     19  C   UNL     1      -3.356   9.449  17.547  0.00  0.00    +0.000 A 
ATOM     20  C   UNL     1      -3.227   9.933  16.249  0.00  0.00    +0.000 A 
ATOM     21  C   UNL     1      -2.511  11.102  16.019  0.00  0.00    +0.000 A 
ATOM     22  C   UNL     1      -1.889  11.763  17.081  0.00  0.00    +0.000 A 
ENDBRANCH   7  17
BRANCH   5  23
ATOM     23  C   UNL     1      -1.654  13.127  22.255  0.00  0.00    +0.000 C 
BRANCH  23  24
ATOM     24  C   UNL     1      -1.156  13.977  23.435  0.00  0.00    +0.000 C 
ATOM     25  C   UNL     1      -0.368  15.196  22.904  0.00  0.00    +0.000 C 
ATOM     26  C   UNL     1      -1.258  16.211  22.177  0.00  0.00    +0.000 C 
ATOM     27  C   UNL     1      -2.437  16.650  23.041  0.00  0.00    +0.000 C 
ATOM     28  C   UNL     1      -3.216  15.473  23.625  0.00  0.00    +0.000 C 
ATOM     29  C   UNL     1      -2.301  14.472  24.331  0.00  0.00    +0.000 C 
ENDBRANCH  23  24
ENDBRANCH   5  23
TORSDOF 3
ENDMDL
MODEL 7
REMARK VINA RESULT:      -6.3      0.684      1.046
REMARK  Name = 
REMARK  3 active torsions:
REMARK  status: ('A' for Active; 'I' for Inactive)
REMARK    1  A    between atoms: C_5  and  C_7
REMARK    2  A    between atoms: C_7  and  C_8
REMARK    3  A    between atoms: C_14  and  C_15
REMARK                            x       y       z     vdW  Elec       q    Type
REMARK                         _______ _______ _______ _____ _____    ______ ____
ROOT
ATOM      1  O   UNL     1       1.142   9.010  18.834  0.00  0.00    +0.000 OA
ATOM      2  C   UNL     1       0.651  10.091  19.191  0.00  0.00    +0.000 C 
ATOM      3  C   UNL     1      -0.389  10.094  20.312  0.00  0.00    +0.000 C 
ATOM      4  N   UNL     1      -0.976  11.337  20.815  0.00  0.00    +0.000 N 
ATOM      5  C   UNL     1      -0.773  11.653  22.165  0.00  0.00    +0.000 C 
ATOM      6  O   UNL     1      -0.158  10.911  22.931  0.00  0.00    +0.000 OA
ATOM      7  C   UNL     1      -1.409  12.322  19.816  0.00  0.00    +0.000 C 
ATOM      8  C   UNL     1      -0.180  13.126  19.431  0.00  0.00    +0.000 A 
ATOM      9  C   UNL     1      -0.137  14.499  19.758  0.00  0.00    +0.000 A 
ATOM     10  C   UNL     1       0.937  15.293  19.369  0.00  0.00    +0.000 A 
ATOM     11 CL   UNL     1       1.034  16.925  19.899  0.00  0.00    +0.000 Cl
ATOM     12  C   UNL     1       1.936  14.762  18.568  0.00  0.00    +0.000 A 
ATOM     13  C   UNL     1       1.904  13.407  18.239  0.00  0.00    +0.000 A 
ATOM     14  C   UNL     1       0.903  12.564  18.747  0.00  0.00    +0.000 A 
ATOM     15  N   UNL     1       1.109  11.196  18.546  0.00  0.00    +0.000 N 
ATOM     16  H   UNL     1       1.860  10.934  17.918  0.00  0.00    +0.000 HD
ENDROOT
BRANCH   7  17
ATOM     17  C   UNL     1      -2.256  11.794  18.646  0.00  0.00    +0.000 A 
ATOM     18  C   UNL     1      -1.722  11.669  17.351  0.00  0.00    +0.000 A 
ATOM     19  C   UNL     1      -2.490  11.167  16.294  0.00  0.00    +0.000 A 
ATOM     20  C   UNL     1      -3.788  10.723  16.523  0.00  0.00    +0.000 A 
ATOM     21  C   UNL     1      -4.311  10.762  17.811  0.00  0.00    +0.000 A 
ATOM     22  C   UNL     1      -3.550  11.283  18.861  0.00  0.00    +0.000 A 
ENDBRANCH   7  17
BRANCH   5  23
ATOM     23  C   UNL     1      -1.325  12.988  22.667  0.00  0.00    +0.000 C 
BRANCH  23  24
ATOM     24  C   UNL     1      -2.649  12.934  23.446  0.00  0.00    +0.000 C 
ATOM     25  C   UNL     1      -2.856  14.259  24.215  0.00  0.00    +0.000 C 
ATOM     26  C   UNL     1      -3.118  15.452  23.289  0.00  0.00    +0.000 C 
ATOM     27  C   UNL     1      -4.278  15.182  22.334  0.00  0.00    +0.000 C 
ATOM     28  C   UNL     1      -4.136  13.857  21.588  0.00  0.00    +0.000 C 
ATOM     29  C   UNL     1      -3.862  12.690  22.535  0.00  0.00    +0.000 C 
ENDBRANCH  23  24
ENDBRANCH   5  23
TORSDOF 3
ENDMDL
MODEL 8
REMARK VINA RESULT:      -6.2      8.742     10.923
REMARK  Name = 
REMARK  3 active torsions:
REMARK  status: ('A' for Active; 'I' for Inactive)
REMARK    1  A    between atoms: C_5  and  C_7
REMARK    2  A    between atoms: C_7  and  C_8
REMARK    3  A    between atoms: C_14  and  C_15
REMARK                            x       y       z     vdW  Elec       q    Type
REMARK                         _______ _______ _______ _____ _____    ______ ____
ROOT
ATOM      1  O   UNL     1      11.751  17.342  19.715  0.00  0.00    +0.000 OA
ATOM      2  C   UNL     1      10.818  16.599  20.055  0.00  0.00    +0.000 C 
ATOM      3  C   UNL     1      10.983  15.732  21.304  0.00  0.00    +0.000 C 
ATOM      4  N   UNL     1       9.907  14.869  21.790  0.00  0.00    +0.000 N 
ATOM      5  C   UNL     1       9.401  15.117  23.073  0.00  0.00    +0.000 C 
ATOM      6  O   UNL     1       9.853  16.001  23.801  0.00  0.00    +0.000 OA
ATOM      7  C   UNL     1       9.197  14.061  20.790  0.00  0.00    +0.000 C 
ATOM      8  C   UNL     1       8.129  14.952  20.183  0.00  0.00    +0.000 A 
ATOM      9  C   UNL     1       6.771  14.629  20.401  0.00  0.00    +0.000 A 
ATOM     10  C   UNL     1       5.756  15.376  19.811  0.00  0.00    +0.000 A 
ATOM     11 CL   UNL     1       4.114  15.051  20.202  0.00  0.00    +0.000 Cl
ATOM     12  C   UNL     1       6.071  16.392  18.923  0.00  0.00    +0.000 A 
ATOM     13  C   UNL     1       7.408  16.721  18.702  0.00  0.00    +0.000 A 
ATOM     14  C   UNL     1       8.436  16.070  19.401  0.00  0.00    +0.000 A 
ATOM     15  N   UNL     1       9.706  16.642  19.275  0.00  0.00    +0.000 N 
ATOM     16  H   UNL     1       9.814  17.364  18.571  0.00  0.00    +0.000 HD
ENDROOT
BRANCH   7  17
ATOM     17  C   UNL     1      10.066  13.281  19.789  0.00  0.00    +0.000 A 
ATOM     18  C   UNL     1      11.117  12.452  20.219  0.00  0.00    +0.000 A 
ATOM     19  C   UNL     1      11.891  11.728  19.306  0.00  0.00    +0.000 A 
ATOM     20  C   UNL     1      11.592  11.771  17.947  0.00  0.00    +0.000 A 
ATOM     21  C   UNL     1      10.508  12.520  17.505  0.00  0.00    +0.000 A 
ATOM     22  C   UNL     1       9.749  13.260  18.417  0.00  0.00    +0.000 A 
ENDBRANCH   7  17
BRANCH   5  23
ATOM     23  C   UNL     1       8.227  14.258  23.546  0.00  0.00    +0.000 C 
BRANCH  23  24
ATOM     24  C   UNL     1       8.551  12.806  23.935  0.00  0.00    +0.000 C 
ATOM     25  C   UNL     1       8.362  12.619  25.457  0.00  0.00    +0.000 C 
ATOM     26  C   UNL     1       6.895  12.711  25.893  0.00  0.00    +0.000 C 
ATOM     27  C   UNL     1       6.011  11.748  25.105  0.00  0.00    +0.000 C 
ATOM     28  C   UNL     1       6.201  11.868  23.594  0.00  0.00    +0.000 C 
ATOM     29  C   UNL     1       7.673  11.787  23.192  0.00  0.00    +0.000 C 
ENDBRANCH  23  24
ENDBRANCH   5  23
TORSDOF 3
ENDMDL
MODEL 9
REMARK VINA RESULT:      -6.2      3.556      7.053
REMARK  Name = 
REMARK  3 active torsions:
REMARK  status: ('A' for Active; 'I' for Inactive)
REMARK    1  A    between atoms: C_5  and  C_7
REMARK    2  A    between atoms: C_7  and  C_8
REMARK    3  A    between atoms: C_14  and  C_15
REMARK                            x       y       z     vdW  Elec       q    Type
REMARK                         _______ _______ _______ _____ _____    ______ ____
ROOT
ATOM      1  O   UNL     1      -7.397  12.020  24.200  0.00  0.00    +0.000 OA
ATOM      2  C   UNL     1      -6.667  12.269  23.229  0.00  0.00    +0.000 C 
ATOM      3  C   UNL     1      -5.313  12.938  23.477  0.00  0.00    +0.000 C 
ATOM      4  N   UNL     1      -4.382  13.219  22.384  0.00  0.00    +0.000 N 
ATOM      5  C   UNL     1      -3.122  12.605  22.428  0.00  0.00    +0.000 C 
ATOM      6  O   UNL     1      -2.774  11.880  23.359  0.00  0.00    +0.000 OA
ATOM      7  C   UNL     1      -4.944  13.811  21.164  0.00  0.00    +0.000 C 
ATOM      8  C   UNL     1      -5.487  12.666  20.329  0.00  0.00    +0.000 A 
ATOM      9  C   UNL     1      -4.878  12.383  19.087  0.00  0.00    +0.000 A 
ATOM     10  C   UNL     1      -5.380  11.388  18.254  0.00  0.00    +0.000 A 
ATOM     11 CL   UNL     1      -4.541  10.968  16.815  0.00  0.00    +0.000 Cl
ATOM     12  C   UNL     1      -6.548  10.724  18.598  0.00  0.00    +0.000 A 
ATOM     13  C   UNL     1      -7.156  10.993  19.823  0.00  0.00    +0.000 A 
ATOM     14  C   UNL     1      -6.578  11.891  20.734  0.00  0.00    +0.000 A 
ATOM     15  N   UNL     1      -7.144  11.899  22.012  0.00  0.00    +0.000 N 
ATOM     16  H   UNL     1      -8.014  11.392  22.130  0.00  0.00    +0.000 HD
ENDROOT
BRANCH   7  17
ATOM     17  C   UNL     1      -5.889  15.010  21.350  0.00  0.00    +0.000 A 
ATOM     18  C   UNL     1      -7.042  15.165  20.559  0.00  0.00    +0.000 A 
ATOM     19  C   UNL     1      -7.911  16.246  20.746  0.00  0.00    +0.000 A 
ATOM     20  C   UNL     1      -7.679  17.160  21.769  0.00  0.00    +0.000 A 
ATOM     21  C   UNL     1      -6.590  16.983  22.616  0.00  0.00    +0.000 A 
ATOM     22  C   UNL     1      -5.712  15.916  22.414  0.00  0.00    +0.000 A 
ENDBRANCH   7  17
BRANCH   5  23
ATOM     23  C   UNL     1      -2.181  12.844  21.247  0.00  0.00    +0.000 C 
BRANCH  23  24
ATOM     24  C   UNL     1      -1.247  11.683  20.867  0.00  0.00    +0.000 C 
ATOM     25  C   UNL     1      -1.369  11.388  19.355  0.00  0.00    +0.000 C 
ATOM     26  C   UNL     1      -0.802  12.511  18.479  0.00  0.00    +0.000 C 
ATOM     27  C   UNL     1       0.638  12.850  18.860  0.00  0.00    +0.000 C 
ATOM     28  C   UNL     1       0.812  13.104  20.355  0.00  0.00    +0.000 C 
ATOM     29  C   UNL     1       0.224  11.976  21.202  0.00  0.00    +0.000 C 
ENDBRANCH  23  24
ENDBRANCH   5  23
TORSDOF 3
ENDMDL
