MODEL 1
REMARK VINA RESULT:      -7.1      0.000      0.000
REMARK  Name = 
REMARK  14 active torsions:
REMARK  status: ('A' for Active; 'I' for Inactive)
REMARK    1  A    between atoms: C_1  and  C_2
REMARK    2  A    between atoms: C_2  and  C_3
REMARK    3  A    between atoms: C_3  and  C_4
REMARK    4  A    between atoms: C_4  and  C_5
REMARK    5  A    between atoms: C_5  and  C_6
REMARK    6  A    between atoms: N_8  and  C_9
REMARK    7  A    between atoms: C_9  and  C_10
REMARK    8  A    between atoms: C_9  and  C_11
REMARK    9  A    between atoms: C_9  and  C_12
REMARK   10  A    between atoms: C_12  and  C_13
REMARK   11  A    between atoms: N_15  and  C_16
REMARK   12  A    between atoms: C_20  and  C_21
REMARK   13  A    between atoms: C_21  and  O_23
REMARK   14  A    between atoms: C_24  and  N_25
REMARK                            x       y       z     vdW  Elec       q    Type
REMARK                         _______ _______ _______ _____ _____    ______ ____
ROOT
ATOM      1  C   UNL     1       6.196   4.948  18.951  0.00  0.00    +0.000 C 
ATOM      2  O   UNL     1       5.713   5.653  19.838  0.00  0.00    +0.000 OA
ATOM      3  N   UNL     1       5.692   3.709  18.584  0.00  0.00    +0.000 N 
ATOM      4  H   UNL     1       6.387   3.073  18.199  0.00  0.00    +0.000 HD
ENDROOT
BRANCH   3   5
ATOM      5  C   UNL     1       4.596   3.128  19.275  0.00  0.00    +0.000 A 
ATOM      6  C   UNL     1       4.846   2.400  20.435  0.00  0.00    +0.000 A 
ATOM      7  N   UNL     1       3.882   1.888  21.231  0.00  0.00    +0.000 NA
ATOM      8  C   UNL     1       2.599   2.102  20.849  0.00  0.00    +0.000 A 
ATOM      9  C   UNL     1       2.230   2.758  19.679  0.00  0.00    +0.000 A 
ATOM     10  C   UNL     1       3.255   3.238  18.839  0.00  0.00    +0.000 A 
BRANCH  10  11
ATOM     11  N   UNL     1       2.924   3.971  17.651  0.00  0.00    +0.000 N 
ATOM     12  H   UNL     1       2.353   4.780  17.953  0.00  0.00    +0.000 HD
ATOM     13  H   UNL     1       3.785   4.406  17.307  0.00  0.00    +0.000 HD
ENDBRANCH  10  11
BRANCH   9  14
ATOM     14  C   UNL     1       0.780   2.862  19.391  0.00  0.00    +0.000 C 
ATOM     15  O   UNL     1       0.251   2.265  18.458  0.00  0.00    +0.000 OA
BRANCH  14  16
ATOM     16  O   UNL     1       0.091   3.682  20.209  0.00  0.00    +0.000 OA
ATOM     17  H   UNL     1      -0.173   4.518  19.745  0.00  0.00    +0.000 HD
ENDBRANCH  14  16
ENDBRANCH   9  14
ENDBRANCH   3   5
BRANCH   1  18
ATOM     18  C   UNL     1       7.374   5.430  18.125  0.00  0.00    +0.000 C 
BRANCH  18  19
ATOM     19  C   UNL     1       6.931   6.486  17.082  0.00  0.00    +0.000 C 
ATOM     20  C   UNL     1       7.760   7.773  17.258  0.00  0.00    +0.000 C 
ATOM     21  C   UNL     1       5.451   6.867  17.310  0.00  0.00    +0.000 C 
BRANCH  19  24
ATOM     22  C   UNL     1       6.241   5.057  15.127  0.00  0.00    +0.000 C 
ATOM     23  O   UNL     1       5.210   4.651  15.655  0.00  0.00    +0.000 OA
ATOM     24  N   UNL     1       7.082   5.985  15.704  0.00  0.00    +0.000 N 
ATOM     25  H   UNL     1       7.909   6.262  15.192  0.00  0.00    +0.000 HD
BRANCH  22  26
ATOM     26  C   UNL     1       6.639   4.624  13.734  0.00  0.00    +0.000 C 
BRANCH  26  27
ATOM     27  C   UNL     1       6.056   3.262  13.373  0.00  0.00    +0.000 C 
BRANCH  27  28
ATOM     28  C   UNL     1       5.844   3.124  11.867  0.00  0.00    +0.000 C 
BRANCH  28  30
ATOM     29  C   UNL     1       3.549   2.889  10.851  0.00  0.00    +0.000 C 
ATOM     30  C   UNL     1       4.568   3.848  11.443  0.00  0.00    +0.000 C 
ENDBRANCH  28  30
ENDBRANCH  27  28
ENDBRANCH  26  27
ENDBRANCH  22  26
ENDBRANCH  19  24
ENDBRANCH  18  19
ENDBRANCH   1  18
TORSDOF 11
ENDMDL
MODEL 2
REMARK VINA RESULT:      -7.0      2.020      3.052
REMARK  Name = 
REMARK  14 active torsions:
REMARK  status: ('A' for Active; 'I' for Inactive)
REMARK    1  A    between atoms: C_1  and  C_2
REMARK    2  A    between atoms: C_2  and  C_3
REMARK    3  A    between atoms: C_3  and  C_4
REMARK    4  A    between atoms: C_4  and  C_5
REMARK    5  A    between atoms: C_5  and  C_6
REMARK    6  A    between atoms: N_8  and  C_9
REMARK    7  A    between atoms: C_9  and  C_10
REMARK    8  A    between atoms: C_9  and  C_11
REMARK    9  A    between atoms: C_9  and  C_12
REMARK   10  A    between atoms: C_12  and  C_13
REMARK   11  A    between atoms: N_15  and  C_16
REMARK   12  A    between atoms: C_20  and  C_21
REMARK   13  A    between atoms: C_21  and  O_23
REMARK   14  A    between atoms: C_24  and  N_25
REMARK                            x       y       z     vdW  Elec       q    Type
REMARK                         _______ _______ _______ _____ _____    ______ ____
ROOT
ATOM      1  C   UNL     1       5.681   4.183  17.053  0.00  0.00    +0.000 C 
ATOM      2  O   UNL     1       5.685   5.142  17.827  0.00  0.00    +0.000 OA
ATOM      3  N   UNL     1       4.657   3.251  16.980  0.00  0.00    +0.000 N 
ATOM      4  H   UNL     1       4.953   2.329  16.665  0.00  0.00    +0.000 HD
ENDROOT
BRANCH   3   5
ATOM      5  C   UNL     1       3.549   3.305  17.866  0.00  0.00    +0.000 A 
ATOM      6  C   UNL     1       2.314   3.713  17.370  0.00  0.00    +0.000 A 
ATOM      7  N   UNL     1       1.169   3.709  18.088  0.00  0.00    +0.000 NA
ATOM      8  C   UNL     1       1.258   3.284  19.372  0.00  0.00    +0.000 A 
ATOM      9  C   UNL     1       2.445   2.914  19.994  0.00  0.00    +0.000 A 
ATOM     10  C   UNL     1       3.634   2.976  19.240  0.00  0.00    +0.000 A 
BRANCH  10  11
ATOM     11  N   UNL     1       4.875   2.550  19.819  0.00  0.00    +0.000 N 
ATOM     12  H   UNL     1       4.932   1.527  19.676  0.00  0.00    +0.000 HD
ATOM     13  H   UNL     1       5.631   2.912  19.231  0.00  0.00    +0.000 HD
ENDBRANCH  10  11
BRANCH   9  14
ATOM     14  C   UNL     1       2.368   2.520  21.421  0.00  0.00    +0.000 C 
ATOM     15  O   UNL     1       1.356   2.687  22.095  0.00  0.00    +0.000 OA
BRANCH  14  16
ATOM     16  O   UNL     1       3.498   1.991  21.932  0.00  0.00    +0.000 OA
ATOM     17  H   UNL     1       3.622   1.052  21.640  0.00  0.00    +0.000 HD
ENDBRANCH  14  16
ENDBRANCH   9  14
ENDBRANCH   3   5
BRANCH   1  18
ATOM     18  C   UNL     1       6.799   3.987  16.046  0.00  0.00    +0.000 C 
BRANCH  18  19
ATOM     19  C   UNL     1       6.448   4.637  14.686  0.00  0.00    +0.000 C 
ATOM     20  C   UNL     1       7.717   5.238  14.051  0.00  0.00    +0.000 C 
ATOM     21  C   UNL     1       5.454   5.802  14.896  0.00  0.00    +0.000 C 
BRANCH  19  24
ATOM     22  C   UNL     1       6.190   3.552  12.428  0.00  0.00    +0.000 C 
ATOM     23  O   UNL     1       7.123   4.163  11.914  0.00  0.00    +0.000 OA
ATOM     24  N   UNL     1       5.844   3.664  13.758  0.00  0.00    +0.000 N 
ATOM     25  H   UNL     1       5.060   3.119  14.094  0.00  0.00    +0.000 HD
BRANCH  22  26
ATOM     26  C   UNL     1       5.378   2.545  11.646  0.00  0.00    +0.000 C 
BRANCH  26  27
ATOM     27  C   UNL     1       3.969   3.052  11.356  0.00  0.00    +0.000 C 
BRANCH  27  28
ATOM     28  C   UNL     1       3.906   3.805  10.029  0.00  0.00    +0.000 C 
BRANCH  28  30
ATOM     29  C   UNL     1       2.332   5.192   8.632  0.00  0.00    +0.000 C 
ATOM     30  C   UNL     1       2.452   4.054   9.630  0.00  0.00    +0.000 C 
ENDBRANCH  28  30
ENDBRANCH  27  28
ENDBRANCH  26  27
ENDBRANCH  22  26
ENDBRANCH  19  24
ENDBRANCH  18  19
ENDBRANCH   1  18
TORSDOF 11
ENDMDL
MODEL 3
REMARK VINA RESULT:      -6.8      2.647      7.023
REMARK  Name = 
REMARK  14 active torsions:
REMARK  status: ('A' for Active; 'I' for Inactive)
REMARK    1  A    between atoms: C_1  and  C_2
REMARK    2  A    between atoms: C_2  and  C_3
REMARK    3  A    between atoms: C_3  and  C_4
REMARK    4  A    between atoms: C_4  and  C_5
REMARK    5  A    between atoms: C_5  and  C_6
REMARK    6  A    between atoms: N_8  and  C_9
REMARK    7  A    between atoms: C_9  and  C_10
REMARK    8  A    between atoms: C_9  and  C_11
REMARK    9  A    between atoms: C_9  and  C_12
REMARK   10  A    between atoms: C_12  and  C_13
REMARK   11  A    between atoms: N_15  and  C_16
REMARK   12  A    between atoms: C_20  and  C_21
REMARK   13  A    between atoms: C_21  and  O_23
REMARK   14  A    between atoms: C_24  and  N_25
REMARK                            x       y       z     vdW  Elec       q    Type
REMARK                         _______ _______ _______ _____ _____    ______ ____
ROOT
ATOM      1  C   UNL     1       3.561   3.067  17.844  0.00  0.00    +0.000 C 
ATOM      2  O   UNL     1       3.046   3.682  16.908  0.00  0.00    +0.000 OA
ATOM      3  N   UNL     1       4.878   3.227  18.247  0.00  0.00    +0.000 N 
ATOM      4  H   UNL     1       5.284   2.404  18.685  0.00  0.00    +0.000 HD
ENDROOT
BRANCH   3   5
ATOM      5  C   UNL     1       5.762   4.086  17.542  0.00  0.00    +0.000 A 
ATOM      6  C   UNL     1       6.051   3.803  16.210  0.00  0.00    +0.000 A 
ATOM      7  N   UNL     1       6.794   4.598  15.409  0.00  0.00    +0.000 NA
ATOM      8  C   UNL     1       7.285   5.733  15.965  0.00  0.00    +0.000 A 
ATOM      9  C   UNL     1       7.117   6.087  17.299  0.00  0.00    +0.000 A 
ATOM     10  C   UNL     1       6.381   5.216  18.127  0.00  0.00    +0.000 A 
BRANCH  10  11
ATOM     11  N   UNL     1       6.132   5.566  19.495  0.00  0.00    +0.000 N 
ATOM     12  H   UNL     1       5.305   5.021  19.794  0.00  0.00    +0.000 HD
ATOM     13  H   UNL     1       6.890   5.171  20.058  0.00  0.00    +0.000 HD
ENDBRANCH  10  11
BRANCH   9  14
ATOM     14  C   UNL     1       7.763   7.342  17.753  0.00  0.00    +0.000 C 
ATOM     15  O   UNL     1       7.694   8.386  17.112  0.00  0.00    +0.000 OA
BRANCH  14  16
ATOM     16  O   UNL     1       8.456   7.245  18.905  0.00  0.00    +0.000 OA
ATOM     17  H   UNL     1       7.866   7.369  19.694  0.00  0.00    +0.000 HD
ENDBRANCH  14  16
ENDBRANCH   9  14
ENDBRANCH   3   5
BRANCH   1  18
ATOM     18  C   UNL     1       2.744   2.109  18.691  0.00  0.00    +0.000 C 
BRANCH  18  19
ATOM     19  C   UNL     1       1.611   2.852  19.440  0.00  0.00    +0.000 C 
ATOM     20  C   UNL     1       1.635   2.472  20.933  0.00  0.00    +0.000 C 
ATOM     21  C   UNL     1       0.235   2.417  18.886  0.00  0.00    +0.000 C 
BRANCH  19  24
ATOM     22  C   UNL     1       2.125   5.154  20.321  0.00  0.00    +0.000 C 
ATOM     23  O   UNL     1       2.532   4.758  21.409  0.00  0.00    +0.000 OA
ATOM     24  N   UNL     1       1.734   4.314  19.300  0.00  0.00    +0.000 N 
ATOM     25  H   UNL     1       1.415   4.731  18.435  0.00  0.00    +0.000 HD
BRANCH  22  26
ATOM     26  C   UNL     1       2.096   6.625  19.975  0.00  0.00    +0.000 C 
BRANCH  26  27
ATOM     27  C   UNL     1       2.787   6.912  18.646  0.00  0.00    +0.000 C 
BRANCH  27  28
ATOM     28  C   UNL     1       2.259   8.192  18.003  0.00  0.00    +0.000 C 
BRANCH  28  30
ATOM     29  C   UNL     1       1.259  10.433  18.580  0.00  0.00    +0.000 C 
ATOM     30  C   UNL     1       1.426   8.985  19.009  0.00  0.00    +0.000 C 
ENDBRANCH  28  30
ENDBRANCH  27  28
ENDBRANCH  26  27
ENDBRANCH  22  26
ENDBRANCH  19  24
ENDBRANCH  18  19
ENDBRANCH   1  18
TORSDOF 11
ENDMDL
MODEL 4
REMARK VINA RESULT:      -6.8      3.320      4.275
REMARK  Name = 
REMARK  14 active torsions:
REMARK  status: ('A' for Active; 'I' for Inactive)
REMARK    1  A    between atoms: C_1  and  C_2
REMARK    2  A    between atoms: C_2  and  C_3
REMARK    3  A    between atoms: C_3  and  C_4
REMARK    4  A    between atoms: C_4  and  C_5
REMARK    5  A    between atoms: C_5  and  C_6
REMARK    6  A    between atoms: N_8  and  C_9
REMARK    7  A    between atoms: C_9  and  C_10
REMARK    8  A    between atoms: C_9  and  C_11
REMARK    9  A    between atoms: C_9  and  C_12
REMARK   10  A    between atoms: C_12  and  C_13
REMARK   11  A    between atoms: N_15  and  C_16
REMARK   12  A    between atoms: C_20  and  C_21
REMARK   13  A    between atoms: C_21  and  O_23
REMARK   14  A    between atoms: C_24  and  N_25
REMARK                            x       y       z     vdW  Elec       q    Type
REMARK                         _______ _______ _______ _____ _____    ______ ____
ROOT
ATOM      1  C   UNL     1       4.378   5.573  18.422  0.00  0.00    +0.000 C 
ATOM      2  O   UNL     1       5.011   6.083  19.348  0.00  0.00    +0.000 OA
ATOM      3  N   UNL     1       3.196   6.090  17.914  0.00  0.00    +0.000 N 
ATOM      4  H   UNL     1       2.576   5.394  17.506  0.00  0.00    +0.000 HD
ENDROOT
BRANCH   3   5
ATOM      5  C   UNL     1       2.587   7.236  18.491  0.00  0.00    +0.000 A 
ATOM      6  C   UNL     1       2.479   8.393  17.725  0.00  0.00    +0.000 A 
ATOM      7  N   UNL     1       1.832   9.511  18.126  0.00  0.00    +0.000 NA
ATOM      8  C   UNL     1       1.270   9.479  19.360  0.00  0.00    +0.000 A 
ATOM      9  C   UNL     1       1.369   8.405  20.237  0.00  0.00    +0.000 A 
ATOM     10  C   UNL     1       2.092   7.271  19.816  0.00  0.00    +0.000 A 
BRANCH  10  11
ATOM     11  N   UNL     1       2.173   6.116  20.663  0.00  0.00    +0.000 N 
ATOM     12  H   UNL     1       1.199   5.820  20.851  0.00  0.00    +0.000 HD
ATOM     13  H   UNL     1       2.548   5.347  20.100  0.00  0.00    +0.000 HD
ENDBRANCH  10  11
BRANCH   9  14
ATOM     14  C   UNL     1       0.735   8.558  21.568  0.00  0.00    +0.000 C 
ATOM     15  O   UNL     1      -0.480   8.489  21.728  0.00  0.00    +0.000 OA
BRANCH  14  16
ATOM     16  O   UNL     1       1.585   8.805  22.583  0.00  0.00    +0.000 OA
ATOM     17  H   UNL     1       1.179   8.580  23.460  0.00  0.00    +0.000 HD
ENDBRANCH  14  16
ENDBRANCH   9  14
ENDBRANCH   3   5
BRANCH   1  18
ATOM     18  C   UNL     1       4.898   4.341  17.706  0.00  0.00    +0.000 C 
BRANCH  18  19
ATOM     19  C   UNL     1       5.982   4.714  16.666  0.00  0.00    +0.000 C 
ATOM     20  C   UNL     1       7.383   4.543  17.288  0.00  0.00    +0.000 C 
ATOM     21  C   UNL     1       5.845   6.201  16.267  0.00  0.00    +0.000 C 
BRANCH  19  24
ATOM     22  C   UNL     1       6.427   4.234  14.235  0.00  0.00    +0.000 C 
ATOM     23  O   UNL     1       7.168   5.200  14.074  0.00  0.00    +0.000 OA
ATOM     24  N   UNL     1       5.877   3.888  15.450  0.00  0.00    +0.000 N 
ATOM     25  H   UNL     1       5.279   3.072  15.488  0.00  0.00    +0.000 HD
BRANCH  22  26
ATOM     26  C   UNL     1       6.117   3.279  13.105  0.00  0.00    +0.000 C 
BRANCH  26  27
ATOM     27  C   UNL     1       5.118   3.870  12.117  0.00  0.00    +0.000 C 
BRANCH  27  28
ATOM     28  C   UNL     1       4.558   2.804  11.179  0.00  0.00    +0.000 C 
BRANCH  28  30
ATOM     29  C   UNL     1       3.075   4.130   9.630  0.00  0.00    +0.000 C 
ATOM     30  C   UNL     1       3.121   3.146  10.786  0.00  0.00    +0.000 C 
ENDBRANCH  28  30
ENDBRANCH  27  28
ENDBRANCH  26  27
ENDBRANCH  22  26
ENDBRANCH  19  24
ENDBRANCH  18  19
ENDBRANCH   1  18
TORSDOF 11
ENDMDL
MODEL 5
REMARK VINA RESULT:      -6.8      2.448      5.276
REMARK  Name = 
REMARK  14 active torsions:
REMARK  status: ('A' for Active; 'I' for Inactive)
REMARK    1  A    between atoms: C_1  and  C_2
REMARK    2  A    between atoms: C_2  and  C_3
REMARK    3  A    between atoms: C_3  and  C_4
REMARK    4  A    between atoms: C_4  and  C_5
REMARK    5  A    between atoms: C_5  and  C_6
REMARK    6  A    between atoms: N_8  and  C_9
REMARK    7  A    between atoms: C_9  and  C_10
REMARK    8  A    between atoms: C_9  and  C_11
REMARK    9  A    between atoms: C_9  and  C_12
REMARK   10  A    between atoms: C_12  and  C_13
REMARK   11  A    between atoms: N_15  and  C_16
REMARK   12  A    between atoms: C_20  and  C_21
REMARK   13  A    between atoms: C_21  and  O_23
REMARK   14  A    between atoms: C_24  and  N_25
REMARK                            x       y       z     vdW  Elec       q    Type
REMARK                         _______ _______ _______ _____ _____    ______ ____
ROOT
ATOM      1  C   UNL     1       4.565   5.424  16.580  0.00  0.00    +0.000 C 
ATOM      2  O   UNL     1       4.313   6.271  17.439  0.00  0.00    +0.000 OA
ATOM      3  N   UNL     1       4.059   4.133  16.593  0.00  0.00    +0.000 N 
ATOM      4  H   UNL     1       4.653   3.446  16.133  0.00  0.00    +0.000 HD
ENDROOT
BRANCH   3   5
ATOM      5  C   UNL     1       3.253   3.670  17.667  0.00  0.00    +0.000 A 
ATOM      6  C   UNL     1       1.889   3.494  17.452  0.00  0.00    +0.000 A 
ATOM      7  N   UNL     1       1.040   2.966  18.361  0.00  0.00    +0.000 NA
ATOM      8  C   UNL     1       1.573   2.601  19.552  0.00  0.00    +0.000 A 
ATOM      9  C   UNL     1       2.906   2.788  19.903  0.00  0.00    +0.000 A 
ATOM     10  C   UNL     1       3.761   3.389  18.957  0.00  0.00    +0.000 A 
BRANCH  10  11
ATOM     11  N   UNL     1       5.155   3.550  19.251  0.00  0.00    +0.000 N 
ATOM     12  H   UNL     1       5.213   4.171  20.076  0.00  0.00    +0.000 HD
ATOM     13  H   UNL     1       5.501   2.654  19.607  0.00  0.00    +0.000 HD
ENDBRANCH  10  11
BRANCH   9  14
ATOM     14  C   UNL     1       3.311   2.375  21.268  0.00  0.00    +0.000 C 
ATOM     15  O   UNL     1       4.366   1.789  21.490  0.00  0.00    +0.000 OA
BRANCH  14  16
ATOM     16  O   UNL     1       2.425   2.664  22.241  0.00  0.00    +0.000 OA
ATOM     17  H   UNL     1       2.413   3.635  22.443  0.00  0.00    +0.000 HD
ENDBRANCH  14  16
ENDBRANCH   9  14
ENDBRANCH   3   5
BRANCH   1  18
ATOM     18  C   UNL     1       5.417   5.765  15.372  0.00  0.00    +0.000 C 
BRANCH  18  19
ATOM     19  C   UNL     1       6.914   5.487  15.648  0.00  0.00    +0.000 C 
ATOM     20  C   UNL     1       7.672   5.336  14.314  0.00  0.00    +0.000 C 
ATOM     21  C   UNL     1       7.074   4.152  16.410  0.00  0.00    +0.000 C 
BRANCH  19  24
ATOM     22  C   UNL     1       7.640   6.534  17.820  0.00  0.00    +0.000 C 
ATOM     23  O   UNL     1       7.355   5.555  18.505  0.00  0.00    +0.000 OA
ATOM     24  N   UNL     1       7.529   6.563  16.446  0.00  0.00    +0.000 N 
ATOM     25  H   UNL     1       7.790   7.414  15.964  0.00  0.00    +0.000 HD
BRANCH  22  26
ATOM     26  C   UNL     1       8.225   7.785  18.433  0.00  0.00    +0.000 C 
BRANCH  26  27
ATOM     27  C   UNL     1       7.969   9.016  17.570  0.00  0.00    +0.000 C 
BRANCH  27  28
ATOM     28  C   UNL     1       8.450  10.292  18.255  0.00  0.00    +0.000 C 
BRANCH  28  30
ATOM     29  C   UNL     1       9.633  11.171  20.300  0.00  0.00    +0.000 C 
ATOM     30  C   UNL     1       9.345   9.950  19.445  0.00  0.00    +0.000 C 
ENDBRANCH  28  30
ENDBRANCH  27  28
ENDBRANCH  26  27
ENDBRANCH  22  26
ENDBRANCH  19  24
ENDBRANCH  18  19
ENDBRANCH   1  18
TORSDOF 11
ENDMDL
MODEL 6
REMARK VINA RESULT:      -6.7      2.310      5.293
REMARK  Name = 
REMARK  14 active torsions:
REMARK  status: ('A' for Active; 'I' for Inactive)
REMARK    1  A    between atoms: C_1  and  C_2
REMARK    2  A    between atoms: C_2  and  C_3
REMARK    3  A    between atoms: C_3  and  C_4
REMARK    4  A    between atoms: C_4  and  C_5
REMARK    5  A    between atoms: C_5  and  C_6
REMARK    6  A    between atoms: N_8  and  C_9
REMARK    7  A    between atoms: C_9  and  C_10
REMARK    8  A    between atoms: C_9  and  C_11
REMARK    9  A    between atoms: C_9  and  C_12
REMARK   10  A    between atoms: C_12  and  C_13
REMARK   11  A    between atoms: N_15  and  C_16
REMARK   12  A    between atoms: C_20  and  C_21
REMARK   13  A    between atoms: C_21  and  O_23
REMARK   14  A    between atoms: C_24  and  N_25
REMARK                            x       y       z     vdW  Elec       q    Type
REMARK                         _______ _______ _______ _____ _____    ______ ____
ROOT
ATOM      1  C   UNL     1       4.880   3.943  16.842  0.00  0.00    +0.000 C 
ATOM      2  O   UNL     1       3.801   3.460  16.493  0.00  0.00    +0.000 OA
ATOM      3  N   UNL     1       5.102   4.531  18.078  0.00  0.00    +0.000 N 
ATOM      4  H   UNL     1       5.827   5.246  18.076  0.00  0.00    +0.000 HD
ENDROOT
BRANCH   3   5
ATOM      5  C   UNL     1       4.051   4.680  19.021  0.00  0.00    +0.000 A 
ATOM      6  C   UNL     1       3.391   5.903  19.099  0.00  0.00    +0.000 A 
ATOM      7  N   UNL     1       2.313   6.134  19.881  0.00  0.00    +0.000 NA
ATOM      8  C   UNL     1       1.873   5.096  20.634  0.00  0.00    +0.000 A 
ATOM      9  C   UNL     1       2.489   3.851  20.686  0.00  0.00    +0.000 A 
ATOM     10  C   UNL     1       3.642   3.650  19.900  0.00  0.00    +0.000 A 
BRANCH  10  11
ATOM     11  N   UNL     1       4.279   2.365  19.877  0.00  0.00    +0.000 N 
ATOM     12  H   UNL     1       3.522   1.661  19.857  0.00  0.00    +0.000 HD
ATOM     13  H   UNL     1       4.723   2.258  18.960  0.00  0.00    +0.000 HD
ENDBRANCH  10  11
BRANCH   9  14
ATOM     14  C   UNL     1       1.903   2.843  21.601  0.00  0.00    +0.000 C 
ATOM     15  O   UNL     1       0.694   2.643  21.670  0.00  0.00    +0.000 OA
BRANCH  14  16
ATOM     16  O   UNL     1       2.790   2.182  22.370  0.00  0.00    +0.000 OA
ATOM     17  H   UNL     1       2.727   2.464  23.319  0.00  0.00    +0.000 HD
ENDBRANCH  14  16
ENDBRANCH   9  14
ENDBRANCH   3   5
BRANCH   1  18
ATOM     18  C   UNL     1       6.098   3.865  15.942  0.00  0.00    +0.000 C 
BRANCH  18  19
ATOM     19  C   UNL     1       6.505   5.267  15.428  0.00  0.00    +0.000 C 
ATOM     20  C   UNL     1       5.245   6.119  15.180  0.00  0.00    +0.000 C 
ATOM     21  C   UNL     1       7.240   5.144  14.075  0.00  0.00    +0.000 C 
BRANCH  19  24
ATOM     22  C   UNL     1       6.982   6.999  17.194  0.00  0.00    +0.000 C 
ATOM     23  O   UNL     1       5.815   7.367  17.294  0.00  0.00    +0.000 OA
ATOM     24  N   UNL     1       7.389   5.960  16.384  0.00  0.00    +0.000 N 
ATOM     25  H   UNL     1       8.373   5.725  16.367  0.00  0.00    +0.000 HD
BRANCH  22  26
ATOM     26  C   UNL     1       8.081   7.616  18.030  0.00  0.00    +0.000 C 
BRANCH  26  27
ATOM     27  C   UNL     1       8.160   9.126  17.841  0.00  0.00    +0.000 C 
BRANCH  27  28
ATOM     28  C   UNL     1       9.113   9.769  18.846  0.00  0.00    +0.000 C 
BRANCH  28  30
ATOM     29  C   UNL     1      10.682  11.735  19.013  0.00  0.00    +0.000 C 
ATOM     30  C   UNL     1       9.345  11.237  18.492  0.00  0.00    +0.000 C 
ENDBRANCH  28  30
ENDBRANCH  27  28
ENDBRANCH  26  27
ENDBRANCH  22  26
ENDBRANCH  19  24
ENDBRANCH  18  19
ENDBRANCH   1  18
TORSDOF 11
ENDMDL
MODEL 7
REMARK VINA RESULT:      -6.7      3.467      5.590
REMARK  Name = 
REMARK  14 active torsions:
REMARK  status: ('A' for Active; 'I' for Inactive)
REMARK    1  A    between atoms: C_1  and  C_2
REMARK    2  A    between atoms: C_2  and  C_3
REMARK    3  A    between atoms: C_3  and  C_4
REMARK    4  A    between atoms: C_4  and  C_5
REMARK    5  A    between atoms: C_5  and  C_6
REMARK    6  A    between atoms: N_8  and  C_9
REMARK    7  A    between atoms: C_9  and  C_10
REMARK    8  A    between atoms: C_9  and  C_11
REMARK    9  A    between atoms: C_9  and  C_12
REMARK   10  A    between atoms: C_12  and  C_13
REMARK   11  A    between atoms: N_15  and  C_16
REMARK   12  A    between atoms: C_20  and  C_21
REMARK   13  A    between atoms: C_21  and  O_23
REMARK   14  A    between atoms: C_24  and  N_25
REMARK                            x       y       z     vdW  Elec       q    Type
REMARK                         _______ _______ _______ _____ _____    ______ ____
ROOT
ATOM      1  C   UNL     1       2.309   5.105  17.998  0.00  0.00    +0.000 C 
ATOM      2  O   UNL     1       1.172   4.941  18.445  0.00  0.00    +0.000 OA
ATOM      3  N   UNL     1       2.987   6.315  18.029  0.00  0.00    +0.000 N 
ATOM      4  H   UNL     1       3.666   6.432  17.281  0.00  0.00    +0.000 HD
ENDROOT
BRANCH   3   5
ATOM      5  C   UNL     1       2.369   7.491  18.530  0.00  0.00    +0.000 A 
ATOM      6  C   UNL     1       2.162   8.560  17.664  0.00  0.00    +0.000 A 
ATOM      7  N   UNL     1       1.496   9.688  17.996  0.00  0.00    +0.000 NA
ATOM      8  C   UNL     1       1.016   9.762  19.261  0.00  0.00    +0.000 A 
ATOM      9  C   UNL     1       1.216   8.786  20.232  0.00  0.00    +0.000 A 
ATOM     10  C   UNL     1       1.958   7.641  19.876  0.00  0.00    +0.000 A 
BRANCH  10  11
ATOM     11  N   UNL     1       2.142   6.582  20.825  0.00  0.00    +0.000 N 
ATOM     12  H   UNL     1       1.572   5.785  20.491  0.00  0.00    +0.000 HD
ATOM     13  H   UNL     1       3.103   6.242  20.726  0.00  0.00    +0.000 HD
ENDBRANCH  10  11
BRANCH   9  14
ATOM     14  C   UNL     1       0.662   9.050  21.581  0.00  0.00    +0.000 C 
ATOM     15  O   UNL     1       1.186   9.836  22.364  0.00  0.00    +0.000 OA
BRANCH  14  16
ATOM     16  O   UNL     1      -0.441   8.343  21.896  0.00  0.00    +0.000 OA
ATOM     17  H   UNL     1      -0.365   7.400  21.596  0.00  0.00    +0.000 HD
ENDBRANCH  14  16
ENDBRANCH   9  14
ENDBRANCH   3   5
BRANCH   1  18
ATOM     18  C   UNL     1       3.099   3.944  17.426  0.00  0.00    +0.000 C 
BRANCH  18  19
ATOM     19  C   UNL     1       3.863   3.185  18.538  0.00  0.00    +0.000 C 
ATOM     20  C   UNL     1       3.714   1.665  18.331  0.00  0.00    +0.000 C 
ATOM     21  C   UNL     1       3.254   3.513  19.919  0.00  0.00    +0.000 C 
BRANCH  19  24
ATOM     22  C   UNL     1       5.784   4.720  19.080  0.00  0.00    +0.000 C 
ATOM     23  O   UNL     1       5.098   5.529  19.699  0.00  0.00    +0.000 OA
ATOM     24  N   UNL     1       5.293   3.543  18.556  0.00  0.00    +0.000 N 
ATOM     25  H   UNL     1       5.935   2.936  18.063  0.00  0.00    +0.000 HD
BRANCH  22  26
ATOM     26  C   UNL     1       7.274   4.915  18.910  0.00  0.00    +0.000 C 
BRANCH  26  27
ATOM     27  C   UNL     1       7.724   4.636  17.480  0.00  0.00    +0.000 C 
BRANCH  27  28
ATOM     28  C   UNL     1       6.973   5.506  16.475  0.00  0.00    +0.000 C 
BRANCH  28  30
ATOM     29  C   UNL     1       5.807   4.030  14.797  0.00  0.00    +0.000 C 
ATOM     30  C   UNL     1       7.033   4.880  15.083  0.00  0.00    +0.000 C 
ENDBRANCH  28  30
ENDBRANCH  27  28
ENDBRANCH  26  27
ENDBRANCH  22  26
ENDBRANCH  19  24
ENDBRANCH  18  19
ENDBRANCH   1  18
TORSDOF 11
ENDMDL
MODEL 8
REMARK VINA RESULT:      -6.6      3.817      5.978
REMARK  Name = 
REMARK  14 active torsions:
REMARK  status: ('A' for Active; 'I' for Inactive)
REMARK    1  A    between atoms: C_1  and  C_2
REMARK    2  A    between atoms: C_2  and  C_3
REMARK    3  A    between atoms: C_3  and  C_4
REMARK    4  A    between atoms: C_4  and  C_5
REMARK    5  A    between atoms: C_5  and  C_6
REMARK    6  A    between atoms: N_8  and  C_9
REMARK    7  A    between atoms: C_9  and  C_10
REMARK    8  A    between atoms: C_9  and  C_11
REMARK    9  A    between atoms: C_9  and  C_12
REMARK   10  A    between atoms: C_12  and  C_13
REMARK   11  A    between atoms: N_15  and  C_16
REMARK   12  A    between atoms: C_20  and  C_21
REMARK   13  A    between atoms: C_21  and  O_23
REMARK   14  A    between atoms: C_24  and  N_25
REMARK                            x       y       z     vdW  Elec       q    Type
REMARK                         _______ _______ _______ _____ _____    ______ ____
ROOT
ATOM      1  C   UNL     1       2.421   4.773  19.979  0.00  0.00    +0.000 C 
ATOM      2  O   UNL     1       1.284   4.565  20.408  0.00  0.00    +0.000 OA
ATOM      3  N   UNL     1       2.949   6.036  19.762  0.00  0.00    +0.000 N 
ATOM      4  H   UNL     1       3.657   6.074  19.033  0.00  0.00    +0.000 HD
ENDROOT
BRANCH   3   5
ATOM      5  C   UNL     1       2.165   7.204  19.962  0.00  0.00    +0.000 A 
ATOM      6  C   UNL     1       1.505   7.368  21.176  0.00  0.00    +0.000 A 
ATOM      7  N   UNL     1       0.815   8.478  21.521  0.00  0.00    +0.000 NA
ATOM      8  C   UNL     1       0.773   9.477  20.605  0.00  0.00    +0.000 A 
ATOM      9  C   UNL     1       1.339   9.401  19.338  0.00  0.00    +0.000 A 
ATOM     10  C   UNL     1       2.009   8.213  18.982  0.00  0.00    +0.000 A 
BRANCH  10  11
ATOM     11  N   UNL     1       2.659   8.110  17.708  0.00  0.00    +0.000 N 
ATOM     12  H   UNL     1       3.454   8.772  17.727  0.00  0.00    +0.000 HD
ATOM     13  H   UNL     1       3.116   7.194  17.668  0.00  0.00    +0.000 HD
ENDBRANCH  10  11
BRANCH   9  14
ATOM     14  C   UNL     1       1.157  10.569  18.444  0.00  0.00    +0.000 C 
ATOM     15  O   UNL     1       0.284  11.411  18.633  0.00  0.00    +0.000 OA
BRANCH  14  16
ATOM     16  O   UNL     1       1.999  10.625  17.393  0.00  0.00    +0.000 OA
ATOM     17  H   UNL     1       2.809  11.156  17.607  0.00  0.00    +0.000 HD
ENDBRANCH  14  16
ENDBRANCH   9  14
ENDBRANCH   3   5
BRANCH   1  18
ATOM     18  C   UNL     1       3.376   3.625  19.713  0.00  0.00    +0.000 C 
BRANCH  18  19
ATOM     19  C   UNL     1       3.142   3.016  18.309  0.00  0.00    +0.000 C 
ATOM     20  C   UNL     1       1.988   3.756  17.605  0.00  0.00    +0.000 C 
ATOM     21  C   UNL     1       2.717   1.536  18.437  0.00  0.00    +0.000 C 
BRANCH  19  24
ATOM     22  C   UNL     1       4.790   4.235  16.846  0.00  0.00    +0.000 C 
ATOM     23  O   UNL     1       4.282   5.339  17.018  0.00  0.00    +0.000 OA
ATOM     24  N   UNL     1       4.356   3.088  17.476  0.00  0.00    +0.000 N 
ATOM     25  H   UNL     1       4.839   2.221  17.275  0.00  0.00    +0.000 HD
BRANCH  22  26
ATOM     26  C   UNL     1       6.011   4.053  15.973  0.00  0.00    +0.000 C 
BRANCH  26  27
ATOM     27  C   UNL     1       7.155   4.966  16.397  0.00  0.00    +0.000 C 
BRANCH  27  28
ATOM     28  C   UNL     1       7.631   4.650  17.813  0.00  0.00    +0.000 C 
BRANCH  28  30
ATOM     29  C   UNL     1       7.896   7.124  18.219  0.00  0.00    +0.000 C 
ATOM     30  C   UNL     1       7.327   5.819  18.748  0.00  0.00    +0.000 C 
ENDBRANCH  28  30
ENDBRANCH  27  28
ENDBRANCH  26  27
ENDBRANCH  22  26
ENDBRANCH  19  24
ENDBRANCH  18  19
ENDBRANCH   1  18
TORSDOF 11
ENDMDL
MODEL 9
REMARK VINA RESULT:      -6.6      3.879      6.348
REMARK  Name = 
REMARK  14 active torsions:
REMARK  status: ('A' for Active; 'I' for Inactive)
REMARK    1  A    between atoms: C_1  and  C_2
REMARK    2  A    between atoms: C_2  and  C_3
REMARK    3  A    between atoms: C_3  and  C_4
REMARK    4  A    between atoms: C_4  and  C_5
REMARK    5  A    between atoms: C_5  and  C_6
REMARK    6  A    between atoms: N_8  and  C_9
REMARK    7  A    between atoms: C_9  and  C_10
REMARK    8  A    between atoms: C_9  and  C_11
REMARK    9  A    between atoms: C_9  and  C_12
REMARK   10  A    between atoms: C_12  and  C_13
REMARK   11  A    between atoms: N_15  and  C_16
REMARK   12  A    between atoms: C_20  and  C_21
REMARK   13  A    between atoms: C_21  and  O_23
REMARK   14  A    between atoms: C_24  and  N_25
REMARK                            x       y       z     vdW  Elec       q    Type
REMARK                         _______ _______ _______ _____ _____    ______ ____
ROOT
ATOM      1  C   UNL     1       2.210   5.073  19.814  0.00  0.00    +0.000 C 
ATOM      2  O   UNL     1       1.272   4.944  19.025  0.00  0.00    +0.000 OA
ATOM      3  N   UNL     1       2.751   6.295  20.182  0.00  0.00    +0.000 N 
ATOM      4  H   UNL     1       3.732   6.255  20.450  0.00  0.00    +0.000 HD
ENDROOT
BRANCH   3   5
ATOM      5  C   UNL     1       2.290   7.507  19.602  0.00  0.00    +0.000 A 
ATOM      6  C   UNL     1       2.544   7.744  18.254  0.00  0.00    +0.000 A 
ATOM      7  N   UNL     1       2.070   8.808  17.569  0.00  0.00    +0.000 NA
ATOM      8  C   UNL     1       1.310   9.690  18.263  0.00  0.00    +0.000 A 
ATOM      9  C   UNL     1       1.043   9.592  19.624  0.00  0.00    +0.000 A 
ATOM     10  C   UNL     1       1.591   8.501  20.328  0.00  0.00    +0.000 A 
BRANCH  10  11
ATOM     11  N   UNL     1       1.296   8.325  21.721  0.00  0.00    +0.000 N 
ATOM     12  H   UNL     1       1.797   7.472  22.023  0.00  0.00    +0.000 HD
ATOM     13  H   UNL     1       1.774   9.072  22.233  0.00  0.00    +0.000 HD
ENDBRANCH  10  11
BRANCH   9  14
ATOM     14  C   UNL     1       0.232  10.672  20.234  0.00  0.00    +0.000 C 
ATOM     15  O   UNL     1      -0.866  10.998  19.794  0.00  0.00    +0.000 OA
BRANCH  14  16
ATOM     16  O   UNL     1       0.800  11.288  21.289  0.00  0.00    +0.000 OA
ATOM     17  H   UNL     1       1.740  10.997  21.417  0.00  0.00    +0.000 HD
ENDBRANCH  14  16
ENDBRANCH   9  14
ENDBRANCH   3   5
BRANCH   1  18
ATOM     18  C   UNL     1       2.814   3.870  20.513  0.00  0.00    +0.000 C 
BRANCH  18  19
ATOM     19  C   UNL     1       3.244   2.788  19.493  0.00  0.00    +0.000 C 
ATOM     20  C   UNL     1       2.041   1.889  19.145  0.00  0.00    +0.000 C 
ATOM     21  C   UNL     1       4.325   1.874  20.112  0.00  0.00    +0.000 C 
BRANCH  19  24
ATOM     22  C   UNL     1       5.000   4.035  18.187  0.00  0.00    +0.000 C 
ATOM     23  O   UNL     1       5.811   4.064  19.109  0.00  0.00    +0.000 OA
ATOM     24  N   UNL     1       3.785   3.388  18.260  0.00  0.00    +0.000 N 
ATOM     25  H   UNL     1       3.181   3.415  17.448  0.00  0.00    +0.000 HD
BRANCH  22  26
ATOM     26  C   UNL     1       5.310   4.650  16.842  0.00  0.00    +0.000 C 
BRANCH  26  27
ATOM     27  C   UNL     1       5.546   6.153  16.943  0.00  0.00    +0.000 C 
BRANCH  27  28
ATOM     28  C   UNL     1       6.954   6.532  16.493  0.00  0.00    +0.000 C 
BRANCH  28  30
ATOM     29  C   UNL     1       7.969   6.577  18.800  0.00  0.00    +0.000 C 
ATOM     30  C   UNL     1       7.639   7.387  17.559  0.00  0.00    +0.000 C 
ENDBRANCH  28  30
ENDBRANCH  27  28
ENDBRANCH  26  27
ENDBRANCH  22  26
ENDBRANCH  19  24
ENDBRANCH  18  19
ENDBRANCH   1  18
TORSDOF 11
ENDMDL
