MODEL 1
REMARK VINA RESULT:      -7.8      0.000      0.000
REMARK  Name = 
REMARK  9 active torsions:
REMARK  status: ('A' for Active; 'I' for Inactive)
REMARK    1  A    between atoms: C_1  and  C_2
REMARK    2  A    between atoms: C_2  and  C_3
REMARK    3  A    between atoms: C_3  and  C_4
REMARK    4  A    between atoms: C_4  and  N_5
REMARK    5  A    between atoms: N_5  and  C_6
REMARK    6  A    between atoms: C_11  and  C_12
REMARK    7  A    between atoms: C_13  and  C_14
REMARK    8  A    between atoms: C_14  and  C_15
REMARK    9  A    between atoms: C_15  and  C_16
REMARK                            x       y       z     vdW  Elec       q    Type
REMARK                         _______ _______ _______ _____ _____    ______ ____
ROOT
ATOM      1  C   UNL     1       5.906   4.778  16.064  0.00  0.00    +0.000 A 
ATOM      2  N   UNL     1       6.851   5.738  16.103  0.00  0.00    +0.000 NA
ATOM      3  C   UNL     1       6.738   6.688  17.026  0.00  0.00    +0.000 A 
ATOM      4  N   UNL     1       7.686   7.692  17.055  0.00  0.00    +0.000 N 
ATOM      5  N   UNL     1       5.757   6.764  17.905  0.00  0.00    +0.000 NA
ATOM      6  C   UNL     1       4.798   5.815  17.869  0.00  0.00    +0.000 A 
ATOM      7  C   UNL     1       3.819   5.962  18.993  0.00  0.00    +0.000 C 
ATOM      8  C   UNL     1       4.781   4.797  16.910  0.00  0.00    +0.000 A 
ATOM      9  H   UNL     1       8.056   7.824  16.127  0.00  0.00    +0.000 HD
ATOM     10  H   UNL     1       7.277   8.499  17.508  0.00  0.00    +0.000 HD
ENDROOT
BRANCH   1  11
ATOM     11  N   UNL     1       6.054   3.763  15.082  0.00  0.00    +0.000 N 
ATOM     12  H   UNL     1       7.032   3.509  14.996  0.00  0.00    +0.000 HD
BRANCH  11  13
ATOM     13  C   UNL     1       5.531   4.158  13.765  0.00  0.00    +0.000 C 
BRANCH  13  14
ATOM     14  C   UNL     1       6.343   3.495  12.645  0.00  0.00    +0.000 C 
BRANCH  14  16
ATOM     15  C   UNL     1       4.184   3.220  11.336  0.00  0.00    +0.000 C 
ATOM     16  C   UNL     1       5.461   2.550  11.821  0.00  0.00    +0.000 C 
ENDBRANCH  14  16
ENDBRANCH  13  14
ENDBRANCH  11  13
ENDBRANCH   1  11
BRANCH   8  17
ATOM     17  C   UNL     1       3.749   3.687  16.826  0.00  0.00    +0.000 C 
BRANCH  17  18
ATOM     18  C   UNL     1       3.852   2.462  17.747  0.00  0.00    +0.000 C 
BRANCH  18  19
ATOM     19  C   UNL     1       2.936   2.592  18.941  0.00  0.00    +0.000 A 
ATOM     20  C   UNL     1       1.575   2.877  18.753  0.00  0.00    +0.000 A 
ATOM     21  C   UNL     1       0.734   3.059  19.852  0.00  0.00    +0.000 A 
ATOM     22  C   UNL     1       1.245   2.958  21.142  0.00  0.00    +0.000 A 
ATOM     23  C   UNL     1       2.592   2.657  21.337  0.00  0.00    +0.000 A 
ATOM     24  C   UNL     1       3.435   2.471  20.242  0.00  0.00    +0.000 A 
ENDBRANCH  18  19
ENDBRANCH  17  18
ENDBRANCH   8  17
TORSDOF 7
ENDMDL
MODEL 2
REMARK VINA RESULT:      -7.5      1.050      1.312
REMARK  Name = 
REMARK  9 active torsions:
REMARK  status: ('A' for Active; 'I' for Inactive)
REMARK    1  A    between atoms: C_1  and  C_2
REMARK    2  A    between atoms: C_2  and  C_3
REMARK    3  A    between atoms: C_3  and  C_4
REMARK    4  A    between atoms: C_4  and  N_5
REMARK    5  A    between atoms: N_5  and  C_6
REMARK    6  A    between atoms: C_11  and  C_12
REMARK    7  A    between atoms: C_13  and  C_14
REMARK    8  A    between atoms: C_14  and  C_15
REMARK    9  A    between atoms: C_15  and  C_16
REMARK                            x       y       z     vdW  Elec       q    Type
REMARK                         _______ _______ _______ _____ _____    ______ ____
ROOT
ATOM      1  C   UNL     1       5.724   5.175  15.808  0.00  0.00    +0.000 A 
ATOM      2  N   UNL     1       6.551   6.238  15.855  0.00  0.00    +0.000 NA
ATOM      3  C   UNL     1       6.906   6.700  17.049  0.00  0.00    +0.000 A 
ATOM      4  N   UNL     1       7.730   7.807  17.107  0.00  0.00    +0.000 N 
ATOM      5  N   UNL     1       6.497   6.197  18.198  0.00  0.00    +0.000 NA
ATOM      6  C   UNL     1       5.659   5.139  18.166  0.00  0.00    +0.000 A 
ATOM      7  C   UNL     1       5.375   4.605  19.535  0.00  0.00    +0.000 C 
ATOM      8  C   UNL     1       5.175   4.599  16.970  0.00  0.00    +0.000 A 
ATOM      9  H   UNL     1       7.584   8.371  16.284  0.00  0.00    +0.000 HD
ATOM     10  H   UNL     1       7.595   8.255  18.004  0.00  0.00    +0.000 HD
ENDROOT
BRANCH   1  11
ATOM     11  N   UNL     1       5.371   4.685  14.523  0.00  0.00    +0.000 N 
ATOM     12  H   UNL     1       4.537   4.111  14.592  0.00  0.00    +0.000 HD
BRANCH  11  13
ATOM     13  C   UNL     1       6.448   3.912  13.887  0.00  0.00    +0.000 C 
BRANCH  13  14
ATOM     14  C   UNL     1       6.071   3.554  12.444  0.00  0.00    +0.000 C 
BRANCH  14  16
ATOM     15  C   UNL     1       4.060   3.360  10.905  0.00  0.00    +0.000 C 
ATOM     16  C   UNL     1       4.573   3.251  12.333  0.00  0.00    +0.000 C 
ENDBRANCH  14  16
ENDBRANCH  13  14
ENDBRANCH  11  13
ENDBRANCH   1  11
BRANCH   8  17
ATOM     17  C   UNL     1       4.252   3.399  16.859  0.00  0.00    +0.000 C 
BRANCH  17  18
ATOM     18  C   UNL     1       2.730   3.580  16.962  0.00  0.00    +0.000 C 
BRANCH  18  19
ATOM     19  C   UNL     1       2.270   3.561  18.401  0.00  0.00    +0.000 A 
ATOM     20  C   UNL     1       2.236   2.351  19.110  0.00  0.00    +0.000 A 
ATOM     21  C   UNL     1       1.754   2.313  20.420  0.00  0.00    +0.000 A 
ATOM     22  C   UNL     1       1.306   3.481  21.028  0.00  0.00    +0.000 A 
ATOM     23  C   UNL     1       1.353   4.691  20.337  0.00  0.00    +0.000 A 
ATOM     24  C   UNL     1       1.836   4.733  19.029  0.00  0.00    +0.000 A 
ENDBRANCH  18  19
ENDBRANCH  17  18
ENDBRANCH   8  17
TORSDOF 7
ENDMDL
MODEL 3
REMARK VINA RESULT:      -7.5      0.399      1.143
REMARK  Name = 
REMARK  9 active torsions:
REMARK  status: ('A' for Active; 'I' for Inactive)
REMARK    1  A    between atoms: C_1  and  C_2
REMARK    2  A    between atoms: C_2  and  C_3
REMARK    3  A    between atoms: C_3  and  C_4
REMARK    4  A    between atoms: C_4  and  N_5
REMARK    5  A    between atoms: N_5  and  C_6
REMARK    6  A    between atoms: C_11  and  C_12
REMARK    7  A    between atoms: C_13  and  C_14
REMARK    8  A    between atoms: C_14  and  C_15
REMARK    9  A    between atoms: C_15  and  C_16
REMARK                            x       y       z     vdW  Elec       q    Type
REMARK                         _______ _______ _______ _____ _____    ______ ____
ROOT
ATOM      1  C   UNL     1       6.012   4.783  16.095  0.00  0.00    +0.000 A 
ATOM      2  N   UNL     1       6.962   5.736  16.161  0.00  0.00    +0.000 NA
ATOM      3  C   UNL     1       6.782   6.739  17.015  0.00  0.00    +0.000 A 
ATOM      4  N   UNL     1       7.736   7.735  17.068  0.00  0.00    +0.000 N 
ATOM      5  N   UNL     1       5.730   6.873  17.800  0.00  0.00    +0.000 NA
ATOM      6  C   UNL     1       4.766   5.931  17.735  0.00  0.00    +0.000 A 
ATOM      7  C   UNL     1       3.696   6.150  18.760  0.00  0.00    +0.000 C 
ATOM      8  C   UNL     1       4.819   4.859  16.838  0.00  0.00    +0.000 A 
ATOM      9  H   UNL     1       8.187   7.811  16.170  0.00  0.00    +0.000 HD
ATOM     10  H   UNL     1       7.300   8.571  17.438  0.00  0.00    +0.000 HD
ENDROOT
BRANCH   1  11
ATOM     11  N   UNL     1       6.231   3.711  15.188  0.00  0.00    +0.000 N 
ATOM     12  H   UNL     1       7.014   3.151  15.504  0.00  0.00    +0.000 HD
BRANCH  11  13
ATOM     13  C   UNL     1       6.474   4.165  13.811  0.00  0.00    +0.000 C 
BRANCH  13  14
ATOM     14  C   UNL     1       5.838   3.197  12.807  0.00  0.00    +0.000 C 
BRANCH  14  16
ATOM     15  C   UNL     1       3.957   2.965  11.116  0.00  0.00    +0.000 C 
ATOM     16  C   UNL     1       4.822   3.925  11.919  0.00  0.00    +0.000 C 
ENDBRANCH  14  16
ENDBRANCH  13  14
ENDBRANCH  11  13
ENDBRANCH   1  11
BRANCH   8  17
ATOM     17  C   UNL     1       3.784   3.754  16.728  0.00  0.00    +0.000 C 
BRANCH  17  18
ATOM     18  C   UNL     1       3.840   2.544  17.672  0.00  0.00    +0.000 C 
BRANCH  18  19
ATOM     19  C   UNL     1       2.950   2.744  18.877  0.00  0.00    +0.000 A 
ATOM     20  C   UNL     1       3.477   2.605  20.169  0.00  0.00    +0.000 A 
ATOM     21  C   UNL     1       2.650   2.728  21.287  0.00  0.00    +0.000 A 
ATOM     22  C   UNL     1       1.294   2.990  21.120  0.00  0.00    +0.000 A 
ATOM     23  C   UNL     1       0.765   3.148  19.840  0.00  0.00    +0.000 A 
ATOM     24  C   UNL     1       1.589   3.029  18.722  0.00  0.00    +0.000 A 
ENDBRANCH  18  19
ENDBRANCH  17  18
ENDBRANCH   8  17
TORSDOF 7
ENDMDL
MODEL 4
REMARK VINA RESULT:      -7.4      0.900      1.011
REMARK  Name = 
REMARK  9 active torsions:
REMARK  status: ('A' for Active; 'I' for Inactive)
REMARK    1  A    between atoms: C_1  and  C_2
REMARK    2  A    between atoms: C_2  and  C_3
REMARK    3  A    between atoms: C_3  and  C_4
REMARK    4  A    between atoms: C_4  and  N_5
REMARK    5  A    between atoms: N_5  and  C_6
REMARK    6  A    between atoms: C_11  and  C_12
REMARK    7  A    between atoms: C_13  and  C_14
REMARK    8  A    between atoms: C_14  and  C_15
REMARK    9  A    between atoms: C_15  and  C_16
REMARK                            x       y       z     vdW  Elec       q    Type
REMARK                         _______ _______ _______ _____ _____    ______ ____
ROOT
ATOM      1  C   UNL     1       6.077   4.803  15.903  0.00  0.00    +0.000 A 
ATOM      2  N   UNL     1       6.904   5.866  15.868  0.00  0.00    +0.000 NA
ATOM      3  C   UNL     1       7.047   6.581  16.979  0.00  0.00    +0.000 A 
ATOM      4  N   UNL     1       7.870   7.690  16.945  0.00  0.00    +0.000 N 
ATOM      5  N   UNL     1       6.428   6.329  18.117  0.00  0.00    +0.000 NA
ATOM      6  C   UNL     1       5.588   5.274  18.161  0.00  0.00    +0.000 A 
ATOM      7  C   UNL     1       5.050   5.041  19.540  0.00  0.00    +0.000 C 
ATOM      8  C   UNL     1       5.316   4.480  17.043  0.00  0.00    +0.000 A 
ATOM      9  H   UNL     1       7.887   8.061  16.008  0.00  0.00    +0.000 HD
ATOM     10  H   UNL     1       7.585   8.318  17.686  0.00  0.00    +0.000 HD
ENDROOT
BRANCH   1  11
ATOM     11  N   UNL     1       5.950   4.041  14.710  0.00  0.00    +0.000 N 
ATOM     12  H   UNL     1       6.224   3.081  14.887  0.00  0.00    +0.000 HD
BRANCH  11  13
ATOM     13  C   UNL     1       6.743   4.583  13.597  0.00  0.00    +0.000 C 
BRANCH  13  14
ATOM     14  C   UNL     1       6.614   3.685  12.360  0.00  0.00    +0.000 C 
BRANCH  14  16
ATOM     15  C   UNL     1       4.286   3.427  11.379  0.00  0.00    +0.000 C 
ATOM     16  C   UNL     1       5.295   2.905  12.390  0.00  0.00    +0.000 C 
ENDBRANCH  14  16
ENDBRANCH  13  14
ENDBRANCH  11  13
ENDBRANCH   1  11
BRANCH   8  17
ATOM     17  C   UNL     1       4.403   3.268  17.027  0.00  0.00    +0.000 C 
BRANCH  17  18
ATOM     18  C   UNL     1       2.879   3.446  16.957  0.00  0.00    +0.000 C 
BRANCH  18  19
ATOM     19  C   UNL     1       2.252   3.370  18.330  0.00  0.00    +0.000 A 
ATOM     20  C   UNL     1       1.592   4.489  18.861  0.00  0.00    +0.000 A 
ATOM     21  C   UNL     1       1.063   4.448  20.152  0.00  0.00    +0.000 A 
ATOM     22  C   UNL     1       1.188   3.293  20.917  0.00  0.00    +0.000 A 
ATOM     23  C   UNL     1       1.826   2.172  20.390  0.00  0.00    +0.000 A 
ATOM     24  C   UNL     1       2.354   2.207  19.100  0.00  0.00    +0.000 A 
ENDBRANCH  18  19
ENDBRANCH  17  18
ENDBRANCH   8  17
TORSDOF 7
ENDMDL
MODEL 5
REMARK VINA RESULT:      -7.3      1.611      4.198
REMARK  Name = 
REMARK  9 active torsions:
REMARK  status: ('A' for Active; 'I' for Inactive)
REMARK    1  A    between atoms: C_1  and  C_2
REMARK    2  A    between atoms: C_2  and  C_3
REMARK    3  A    between atoms: C_3  and  C_4
REMARK    4  A    between atoms: C_4  and  N_5
REMARK    5  A    between atoms: N_5  and  C_6
REMARK    6  A    between atoms: C_11  and  C_12
REMARK    7  A    between atoms: C_13  and  C_14
REMARK    8  A    between atoms: C_14  and  C_15
REMARK    9  A    between atoms: C_15  and  C_16
REMARK                            x       y       z     vdW  Elec       q    Type
REMARK                         _______ _______ _______ _____ _____    ______ ____
ROOT
ATOM      1  C   UNL     1       4.722   5.779  17.787  0.00  0.00    +0.000 A 
ATOM      2  N   UNL     1       5.663   6.742  17.829  0.00  0.00    +0.000 NA
ATOM      3  C   UNL     1       6.646   6.693  16.935  0.00  0.00    +0.000 A 
ATOM      4  N   UNL     1       7.630   7.661  16.988  0.00  0.00    +0.000 N 
ATOM      5  N   UNL     1       6.772   5.759  16.013  0.00  0.00    +0.000 NA
ATOM      6  C   UNL     1       5.843   4.781  15.968  0.00  0.00    +0.000 A 
ATOM      7  C   UNL     1       6.049   3.862  14.803  0.00  0.00    +0.000 C 
ATOM      8  C   UNL     1       4.794   4.697  16.888  0.00  0.00    +0.000 A 
ATOM      9  H   UNL     1       7.722   7.988  17.937  0.00  0.00    +0.000 HD
ATOM     10  H   UNL     1       8.461   7.290  16.544  0.00  0.00    +0.000 HD
ENDROOT
BRANCH   1  11
ATOM     11  N   UNL     1       3.670   5.858  18.739  0.00  0.00    +0.000 N 
ATOM     12  H   UNL     1       3.431   4.928  19.064  0.00  0.00    +0.000 HD
BRANCH  11  13
ATOM     13  C   UNL     1       2.468   6.521  18.212  0.00  0.00    +0.000 C 
BRANCH  13  14
ATOM     14  C   UNL     1       2.271   7.886  18.883  0.00  0.00    +0.000 C 
BRANCH  14  16
ATOM     15  C   UNL     1       0.741   9.719  18.018  0.00  0.00    +0.000 C 
ATOM     16  C   UNL     1       2.057   8.981  17.831  0.00  0.00    +0.000 C 
ENDBRANCH  14  16
ENDBRANCH  13  14
ENDBRANCH  11  13
ENDBRANCH   1  11
BRANCH   8  17
ATOM     17  C   UNL     1       3.703   3.641  16.883  0.00  0.00    +0.000 C 
BRANCH  17  18
ATOM     18  C   UNL     1       3.799   2.424  17.814  0.00  0.00    +0.000 C 
BRANCH  18  19
ATOM     19  C   UNL     1       2.913   2.587  19.026  0.00  0.00    +0.000 A 
ATOM     20  C   UNL     1       1.550   2.878  18.865  0.00  0.00    +0.000 A 
ATOM     21  C   UNL     1       0.737   3.091  19.980  0.00  0.00    +0.000 A 
ATOM     22  C   UNL     1       1.279   3.013  21.258  0.00  0.00    +0.000 A 
ATOM     23  C   UNL     1       2.627   2.706  21.428  0.00  0.00    +0.000 A 
ATOM     24  C   UNL     1       3.442   2.490  20.317  0.00  0.00    +0.000 A 
ENDBRANCH  18  19
ENDBRANCH  17  18
ENDBRANCH   8  17
TORSDOF 7
ENDMDL
MODEL 6
REMARK VINA RESULT:      -7.3      1.563      4.810
REMARK  Name = 
REMARK  9 active torsions:
REMARK  status: ('A' for Active; 'I' for Inactive)
REMARK    1  A    between atoms: C_1  and  C_2
REMARK    2  A    between atoms: C_2  and  C_3
REMARK    3  A    between atoms: C_3  and  C_4
REMARK    4  A    between atoms: C_4  and  N_5
REMARK    5  A    between atoms: N_5  and  C_6
REMARK    6  A    between atoms: C_11  and  C_12
REMARK    7  A    between atoms: C_13  and  C_14
REMARK    8  A    between atoms: C_14  and  C_15
REMARK    9  A    between atoms: C_15  and  C_16
REMARK                            x       y       z     vdW  Elec       q    Type
REMARK                         _______ _______ _______ _____ _____    ______ ____
ROOT
ATOM      1  C   UNL     1       4.314   6.024  17.530  0.00  0.00    +0.000 A 
ATOM      2  N   UNL     1       5.221   7.016  17.611  0.00  0.00    +0.000 NA
ATOM      3  C   UNL     1       6.371   6.865  16.961  0.00  0.00    +0.000 A 
ATOM      4  N   UNL     1       7.318   7.865  17.061  0.00  0.00    +0.000 N 
ATOM      5  N   UNL     1       6.693   5.804  16.247  0.00  0.00    +0.000 NA
ATOM      6  C   UNL     1       5.798   4.797  16.168  0.00  0.00    +0.000 A 
ATOM      7  C   UNL     1       6.248   3.716  15.235  0.00  0.00    +0.000 C 
ATOM      8  C   UNL     1       4.578   4.819  16.851  0.00  0.00    +0.000 A 
ATOM      9  H   UNL     1       7.207   8.340  17.943  0.00  0.00    +0.000 HD
ATOM     10  H   UNL     1       8.225   7.462  16.865  0.00  0.00    +0.000 HD
ENDROOT
BRANCH   1  11
ATOM     11  N   UNL     1       3.085   6.212  18.218  0.00  0.00    +0.000 N 
ATOM     12  H   UNL     1       2.694   7.115  17.978  0.00  0.00    +0.000 HD
BRANCH  11  13
ATOM     13  C   UNL     1       3.222   6.106  19.678  0.00  0.00    +0.000 C 
BRANCH  13  14
ATOM     14  C   UNL     1       1.910   6.495  20.370  0.00  0.00    +0.000 C 
BRANCH  14  16
ATOM     15  C   UNL     1       0.795   8.514  21.433  0.00  0.00    +0.000 C 
ATOM     16  C   UNL     1       1.698   8.013  20.317  0.00  0.00    +0.000 C 
ENDBRANCH  14  16
ENDBRANCH  13  14
ENDBRANCH  11  13
ENDBRANCH   1  11
BRANCH   8  17
ATOM     17  C   UNL     1       3.517   3.735  16.789  0.00  0.00    +0.000 C 
BRANCH  17  18
ATOM     18  C   UNL     1       3.618   2.499  17.696  0.00  0.00    +0.000 C 
BRANCH  18  19
ATOM     19  C   UNL     1       2.814   2.678  18.962  0.00  0.00    +0.000 A 
ATOM     20  C   UNL     1       3.435   2.542  20.212  0.00  0.00    +0.000 A 
ATOM     21  C   UNL     1       2.689   2.645  21.387  0.00  0.00    +0.000 A 
ATOM     22  C   UNL     1       1.320   2.885  21.320  0.00  0.00    +0.000 A 
ATOM     23  C   UNL     1       0.698   3.040  20.083  0.00  0.00    +0.000 A 
ATOM     24  C   UNL     1       1.441   2.941  18.907  0.00  0.00    +0.000 A 
ENDBRANCH  18  19
ENDBRANCH  17  18
ENDBRANCH   8  17
TORSDOF 7
ENDMDL
MODEL 7
REMARK VINA RESULT:      -7.3      3.263      5.523
REMARK  Name = 
REMARK  9 active torsions:
REMARK  status: ('A' for Active; 'I' for Inactive)
REMARK    1  A    between atoms: C_1  and  C_2
REMARK    2  A    between atoms: C_2  and  C_3
REMARK    3  A    between atoms: C_3  and  C_4
REMARK    4  A    between atoms: C_4  and  N_5
REMARK    5  A    between atoms: N_5  and  C_6
REMARK    6  A    between atoms: C_11  and  C_12
REMARK    7  A    between atoms: C_13  and  C_14
REMARK    8  A    between atoms: C_14  and  C_15
REMARK    9  A    between atoms: C_15  and  C_16
REMARK                            x       y       z     vdW  Elec       q    Type
REMARK                         _______ _______ _______ _____ _____    ______ ____
ROOT
ATOM      1  C   UNL     1       4.292   4.299  18.093  0.00  0.00    +0.000 A 
ATOM      2  N   UNL     1       4.945   3.280  18.685  0.00  0.00    +0.000 NA
ATOM      3  C   UNL     1       4.403   2.738  19.771  0.00  0.00    +0.000 A 
ATOM      4  N   UNL     1       5.081   1.713  20.401  0.00  0.00    +0.000 N 
ATOM      5  N   UNL     1       3.271   3.134  20.319  0.00  0.00    +0.000 NA
ATOM      6  C   UNL     1       2.612   4.162  19.742  0.00  0.00    +0.000 A 
ATOM      7  C   UNL     1       1.292   4.423  20.400  0.00  0.00    +0.000 C 
ATOM      8  C   UNL     1       3.110   4.845  18.629  0.00  0.00    +0.000 A 
ATOM      9  H   UNL     1       6.069   1.818  20.235  0.00  0.00    +0.000 HD
ATOM     10  H   UNL     1       4.775   1.679  21.365  0.00  0.00    +0.000 HD
ENDROOT
BRANCH   1  11
ATOM     11  N   UNL     1       4.878   4.853  16.924  0.00  0.00    +0.000 N 
ATOM     12  H   UNL     1       4.640   4.285  16.119  0.00  0.00    +0.000 HD
BRANCH  11  13
ATOM     13  C   UNL     1       6.340   4.981  17.021  0.00  0.00    +0.000 C 
BRANCH  13  14
ATOM     14  C   UNL     1       6.757   6.454  16.930  0.00  0.00    +0.000 C 
BRANCH  14  16
ATOM     15  C   UNL     1       7.734   5.731  19.159  0.00  0.00    +0.000 C 
ATOM     16  C   UNL     1       7.609   6.853  18.141  0.00  0.00    +0.000 C 
ENDBRANCH  14  16
ENDBRANCH  13  14
ENDBRANCH  11  13
ENDBRANCH   1  11
BRANCH   8  17
ATOM     17  C   UNL     1       2.412   5.991  17.917  0.00  0.00    +0.000 C 
BRANCH  17  18
ATOM     18  C   UNL     1       2.943   7.425  18.053  0.00  0.00    +0.000 C 
BRANCH  18  19
ATOM     19  C   UNL     1       1.955   8.313  18.771  0.00  0.00    +0.000 A 
ATOM     20  C   UNL     1       1.329   9.365  18.085  0.00  0.00    +0.000 A 
ATOM     21  C   UNL     1       0.461  10.228  18.755  0.00  0.00    +0.000 A 
ATOM     22  C   UNL     1       0.211  10.045  20.112  0.00  0.00    +0.000 A 
ATOM     23  C   UNL     1       0.814   8.991  20.797  0.00  0.00    +0.000 A 
ATOM     24  C   UNL     1       1.680   8.125  20.130  0.00  0.00    +0.000 A 
ENDBRANCH  18  19
ENDBRANCH  17  18
ENDBRANCH   8  17
TORSDOF 7
ENDMDL
MODEL 8
REMARK VINA RESULT:      -7.3      3.210      5.495
REMARK  Name = 
REMARK  9 active torsions:
REMARK  status: ('A' for Active; 'I' for Inactive)
REMARK    1  A    between atoms: C_1  and  C_2
REMARK    2  A    between atoms: C_2  and  C_3
REMARK    3  A    between atoms: C_3  and  C_4
REMARK    4  A    between atoms: C_4  and  N_5
REMARK    5  A    between atoms: N_5  and  C_6
REMARK    6  A    between atoms: C_11  and  C_12
REMARK    7  A    between atoms: C_13  and  C_14
REMARK    8  A    between atoms: C_14  and  C_15
REMARK    9  A    between atoms: C_15  and  C_16
REMARK                            x       y       z     vdW  Elec       q    Type
REMARK                         _______ _______ _______ _____ _____    ______ ____
ROOT
ATOM      1  C   UNL     1       4.347   4.240  18.196  0.00  0.00    +0.000 A 
ATOM      2  N   UNL     1       5.011   3.233  18.797  0.00  0.00    +0.000 NA
ATOM      3  C   UNL     1       4.461   2.674  19.869  0.00  0.00    +0.000 A 
ATOM      4  N   UNL     1       5.149   1.661  20.508  0.00  0.00    +0.000 N 
ATOM      5  N   UNL     1       3.309   3.042  20.397  0.00  0.00    +0.000 NA
ATOM      6  C   UNL     1       2.639   4.057  19.812  0.00  0.00    +0.000 A 
ATOM      7  C   UNL     1       1.301   4.286  20.445  0.00  0.00    +0.000 C 
ATOM      8  C   UNL     1       3.143   4.757  18.712  0.00  0.00    +0.000 A 
ATOM      9  H   UNL     1       6.138   1.789  20.362  0.00  0.00    +0.000 HD
ATOM     10  H   UNL     1       4.826   1.615  21.466  0.00  0.00    +0.000 HD
ENDROOT
BRANCH   1  11
ATOM     11  N   UNL     1       4.943   4.813  17.041  0.00  0.00    +0.000 N 
ATOM     12  H   UNL     1       4.492   4.452  16.208  0.00  0.00    +0.000 HD
BRANCH  11  13
ATOM     13  C   UNL     1       6.391   4.568  16.962  0.00  0.00    +0.000 C 
BRANCH  13  14
ATOM     14  C   UNL     1       7.134   5.856  16.588  0.00  0.00    +0.000 C 
BRANCH  14  16
ATOM     15  C   UNL     1       7.816   8.068  17.633  0.00  0.00    +0.000 C 
ATOM     16  C   UNL     1       6.735   7.004  17.523  0.00  0.00    +0.000 C 
ENDBRANCH  14  16
ENDBRANCH  13  14
ENDBRANCH  11  13
ENDBRANCH   1  11
BRANCH   8  17
ATOM     17  C   UNL     1       2.434   5.890  17.992  0.00  0.00    +0.000 C 
BRANCH  17  18
ATOM     18  C   UNL     1       2.992   7.319  18.057  0.00  0.00    +0.000 C 
BRANCH  18  19
ATOM     19  C   UNL     1       2.034   8.254  18.757  0.00  0.00    +0.000 A 
ATOM     20  C   UNL     1       1.745   8.071  20.118  0.00  0.00    +0.000 A 
ATOM     21  C   UNL     1       0.815   8.892  20.758  0.00  0.00    +0.000 A 
ATOM     22  C   UNL     1       0.171   9.897  20.045  0.00  0.00    +0.000 A 
ATOM     23  C   UNL     1       0.465  10.098  18.698  0.00  0.00    +0.000 A 
ATOM     24  C   UNL     1       1.396   9.282  18.055  0.00  0.00    +0.000 A 
ENDBRANCH  18  19
ENDBRANCH  17  18
ENDBRANCH   8  17
TORSDOF 7
ENDMDL
MODEL 9
REMARK VINA RESULT:      -7.3      2.793      5.645
REMARK  Name = 
REMARK  9 active torsions:
REMARK  status: ('A' for Active; 'I' for Inactive)
REMARK    1  A    between atoms: C_1  and  C_2
REMARK    2  A    between atoms: C_2  and  C_3
REMARK    3  A    between atoms: C_3  and  C_4
REMARK    4  A    between atoms: C_4  and  N_5
REMARK    5  A    between atoms: N_5  and  C_6
REMARK    6  A    between atoms: C_11  and  C_12
REMARK    7  A    between atoms: C_13  and  C_14
REMARK    8  A    between atoms: C_14  and  C_15
REMARK    9  A    between atoms: C_15  and  C_16
REMARK                            x       y       z     vdW  Elec       q    Type
REMARK                         _______ _______ _______ _____ _____    ______ ____
ROOT
ATOM      1  C   UNL     1       4.877   5.276  18.916  0.00  0.00    +0.000 A 
ATOM      2  N   UNL     1       6.098   4.706  18.931  0.00  0.00    +0.000 NA
ATOM      3  C   UNL     1       6.851   4.816  17.842  0.00  0.00    +0.000 A 
ATOM      4  N   UNL     1       8.092   4.210  17.838  0.00  0.00    +0.000 N 
ATOM      5  N   UNL     1       6.484   5.437  16.738  0.00  0.00    +0.000 NA
ATOM      6  C   UNL     1       5.259   6.003  16.705  0.00  0.00    +0.000 A 
ATOM      7  C   UNL     1       5.027   6.769  15.440  0.00  0.00    +0.000 C 
ATOM      8  C   UNL     1       4.357   5.907  17.770  0.00  0.00    +0.000 A 
ATOM      9  H   UNL     1       8.074   3.413  18.455  0.00  0.00    +0.000 HD
ATOM     10  H   UNL     1       8.360   4.044  16.877  0.00  0.00    +0.000 HD
ENDROOT
BRANCH   1  11
ATOM     11  N   UNL     1       4.094   5.163  20.096  0.00  0.00    +0.000 N 
ATOM     12  H   UNL     1       4.679   5.311  20.910  0.00  0.00    +0.000 HD
BRANCH  11  13
ATOM     13  C   UNL     1       3.412   3.865  20.209  0.00  0.00    +0.000 C 
BRANCH  13  14
ATOM     14  C   UNL     1       2.131   4.003  21.042  0.00  0.00    +0.000 C 
BRANCH  14  16
ATOM     15  C   UNL     1       1.181   3.353  18.779  0.00  0.00    +0.000 C 
ATOM     16  C   UNL     1       0.891   3.959  20.143  0.00  0.00    +0.000 C 
ENDBRANCH  14  16
ENDBRANCH  13  14
ENDBRANCH  11  13
ENDBRANCH   1  11
BRANCH   8  17
ATOM     17  C   UNL     1       2.977   6.537  17.810  0.00  0.00    +0.000 C 
BRANCH  17  18
ATOM     18  C   UNL     1       2.823   8.063  17.876  0.00  0.00    +0.000 C 
BRANCH  18  19
ATOM     19  C   UNL     1       1.907   8.476  19.005  0.00  0.00    +0.000 A 
ATOM     20  C   UNL     1       1.876   7.727  20.191  0.00  0.00    +0.000 A 
ATOM     21  C   UNL     1       0.990   8.064  21.216  0.00  0.00    +0.000 A 
ATOM     22  C   UNL     1       0.133   9.150  21.062  0.00  0.00    +0.000 A 
ATOM     23  C   UNL     1       0.171   9.910  19.895  0.00  0.00    +0.000 A 
ATOM     24  C   UNL     1       1.056   9.578  18.870  0.00  0.00    +0.000 A 
ENDBRANCH  18  19
ENDBRANCH  17  18
ENDBRANCH   8  17
TORSDOF 7
ENDMDL
