MODEL 1
REMARK VINA RESULT:      -7.0      0.000      0.000
REMARK  Name = 
REMARK  14 active torsions:
REMARK  status: ('A' for Active; 'I' for Inactive)
REMARK    1  A    between atoms: C_1  and  O_2
REMARK    2  A    between atoms: O_2  and  C_3
REMARK    3  A    between atoms: C_6  and  C_7
REMARK    4  A    between atoms: C_7  and  C_9
REMARK    5  A    between atoms: C_12  and  C_13
REMARK    6  A    between atoms: C_13  and  N_14
REMARK    7  A    between atoms: N_14  and  C_15
REMARK    8  A    between atoms: N_14  and  C_16
REMARK    9  A    between atoms: C_16  and  C_17
REMARK   10  A    between atoms: C_17  and  N_18
REMARK   11  A    between atoms: N_18  and  C_19
REMARK   12  A    between atoms: N_18  and  C_20
REMARK   13  A    between atoms: C_24  and  O_25
REMARK   14  A    between atoms: O_25  and  C_26
REMARK                            x       y       z     vdW  Elec       q    Type
REMARK                         _______ _______ _______ _____ _____    ______ ____
ROOT
ATOM      1  C   UNL     1       2.293   7.054  19.483  0.00  0.00    +0.000 A 
ATOM      2  C   UNL     1       2.351   7.632  18.207  0.00  0.00    +0.000 A 
ATOM      3  C   UNL     1       1.781   8.886  17.998  0.00  0.00    +0.000 A 
ATOM      4  C   UNL     1       1.124   9.557  19.039  0.00  0.00    +0.000 A 
ATOM      5  C   UNL     1       1.083   8.976  20.315  0.00  0.00    +0.000 A 
ATOM      6  C   UNL     1       1.696   7.747  20.537  0.00  0.00    +0.000 A 
ENDROOT
BRANCH   1   7
ATOM      7  C   UNL     1       2.859   5.691  19.665  0.00  0.00    +0.000 C 
ATOM      8  O   UNL     1       2.387   4.946  20.524  0.00  0.00    +0.000 OA
BRANCH   7  12
ATOM      9  C   UNL     1       6.033   4.440  17.062  0.00  0.00    +0.000 A 
ATOM     10  C   UNL     1       4.710   4.005  16.862  0.00  0.00    +0.000 A 
ATOM     11  C   UNL     1       3.680   4.418  17.704  0.00  0.00    +0.000 A 
ATOM     12  C   UNL     1       3.974   5.201  18.814  0.00  0.00    +0.000 A 
ATOM     13  C   UNL     1       5.308   5.506  19.101  0.00  0.00    +0.000 A 
ATOM     14  C   UNL     1       6.344   5.162  18.223  0.00  0.00    +0.000 A 
BRANCH   9  16
ATOM     15  C   UNL     1       6.881   4.873  14.902  0.00  0.00    +0.000 C 
ATOM     16  O   UNL     1       7.004   4.161  16.139  0.00  0.00    +0.000 OA
ENDBRANCH   9  16
BRANCH  14  17
ATOM     17  O   UNL     1       7.539   5.654  18.667  0.00  0.00    +0.000 OA
ATOM     18  C   UNL     1       7.944   6.961  18.310  0.00  0.00    +0.000 C 
ENDBRANCH  14  17
ENDBRANCH   7  12
ENDBRANCH   1   7
BRANCH   4  19
ATOM     19  C   UNL     1       0.520  10.923  18.821  0.00  0.00    +0.000 C 
BRANCH  19  20
ATOM     20  N   UNL     1      -0.863  11.066  19.312  0.00  0.00    +0.000 NA
ATOM     21  C   UNL     1      -1.215  12.477  19.523  0.00  0.00    +0.000 C 
BRANCH  20  22
ATOM     22  C   UNL     1      -1.815  10.473  18.338  0.00  0.00    +0.000 C 
BRANCH  22  23
ATOM     23  C   UNL     1      -2.149  11.400  17.142  0.00  0.00    +0.000 C 
BRANCH  23  24
ATOM     24  N   UNL     1      -3.538  11.326  16.643  0.00  0.00    +0.000 NA
ATOM     25  C   UNL     1      -3.645  10.518  15.427  0.00  0.00    +0.000 C 
ATOM     26  C   UNL     1      -4.383  10.741  17.693  0.00  0.00    +0.000 C 
ENDBRANCH  23  24
ENDBRANCH  22  23
ENDBRANCH  20  22
ENDBRANCH  19  20
ENDBRANCH   4  19
TORSDOF 9
ENDMDL
MODEL 2
REMARK VINA RESULT:      -6.9      2.088      2.716
REMARK  Name = 
REMARK  14 active torsions:
REMARK  status: ('A' for Active; 'I' for Inactive)
REMARK    1  A    between atoms: C_1  and  O_2
REMARK    2  A    between atoms: O_2  and  C_3
REMARK    3  A    between atoms: C_6  and  C_7
REMARK    4  A    between atoms: C_7  and  C_9
REMARK    5  A    between atoms: C_12  and  C_13
REMARK    6  A    between atoms: C_13  and  N_14
REMARK    7  A    between atoms: N_14  and  C_15
REMARK    8  A    between atoms: N_14  and  C_16
REMARK    9  A    between atoms: C_16  and  C_17
REMARK   10  A    between atoms: C_17  and  N_18
REMARK   11  A    between atoms: N_18  and  C_19
REMARK   12  A    between atoms: N_18  and  C_20
REMARK   13  A    between atoms: C_24  and  O_25
REMARK   14  A    between atoms: O_25  and  C_26
REMARK                            x       y       z     vdW  Elec       q    Type
REMARK                         _______ _______ _______ _____ _____    ______ ____
ROOT
ATOM      1  C   UNL     1       2.339   7.114  19.473  0.00  0.00    +0.000 A 
ATOM      2  C   UNL     1       2.450   7.701  18.204  0.00  0.00    +0.000 A 
ATOM      3  C   UNL     1       1.901   8.963  17.985  0.00  0.00    +0.000 A 
ATOM      4  C   UNL     1       1.214   9.632  19.007  0.00  0.00    +0.000 A 
ATOM      5  C   UNL     1       1.121   9.043  20.276  0.00  0.00    +0.000 A 
ATOM      6  C   UNL     1       1.713   7.805  20.510  0.00  0.00    +0.000 A 
ENDROOT
BRANCH   1   7
ATOM      7  C   UNL     1       2.885   5.744  19.664  0.00  0.00    +0.000 C 
ATOM      8  O   UNL     1       2.496   5.062  20.612  0.00  0.00    +0.000 OA
BRANCH   7  12
ATOM      9  C   UNL     1       5.703   4.257  16.790  0.00  0.00    +0.000 A 
ATOM     10  C   UNL     1       4.341   3.913  16.723  0.00  0.00    +0.000 A 
ATOM     11  C   UNL     1       3.426   4.402  17.653  0.00  0.00    +0.000 A 
ATOM     12  C   UNL     1       3.878   5.171  18.718  0.00  0.00    +0.000 A 
ATOM     13  C   UNL     1       5.250   5.385  18.874  0.00  0.00    +0.000 A 
ATOM     14  C   UNL     1       6.172   4.964  17.906  0.00  0.00    +0.000 A 
BRANCH   9  16
ATOM     15  C   UNL     1       6.665   4.859  14.720  0.00  0.00    +0.000 C 
ATOM     16  O   UNL     1       6.560   3.904  15.783  0.00  0.00    +0.000 OA
ENDBRANCH   9  16
BRANCH  14  17
ATOM     17  O   UNL     1       7.435   5.376  18.227  0.00  0.00    +0.000 OA
ATOM     18  C   UNL     1       7.749   6.755  18.239  0.00  0.00    +0.000 C 
ENDBRANCH  14  17
ENDBRANCH   7  12
ENDBRANCH   1   7
BRANCH   4  19
ATOM     19  C   UNL     1       0.632  11.007  18.778  0.00  0.00    +0.000 C 
BRANCH  19  20
ATOM     20  N   UNL     1       1.095  12.034  19.730  0.00  0.00    +0.000 NA
ATOM     21  C   UNL     1       1.903  13.061  19.059  0.00  0.00    +0.000 C 
BRANCH  20  22
ATOM     22  C   UNL     1      -0.068  12.687  20.383  0.00  0.00    +0.000 C 
BRANCH  22  23
ATOM     23  C   UNL     1      -0.219  12.341  21.887  0.00  0.00    +0.000 C 
BRANCH  23  24
ATOM     24  N   UNL     1      -1.312  11.405  22.221  0.00  0.00    +0.000 NA
ATOM     25  C   UNL     1      -0.863  10.325  23.103  0.00  0.00    +0.000 C 
ATOM     26  C   UNL     1      -2.389  12.157  22.879  0.00  0.00    +0.000 C 
ENDBRANCH  23  24
ENDBRANCH  22  23
ENDBRANCH  20  22
ENDBRANCH  19  20
ENDBRANCH   4  19
TORSDOF 9
ENDMDL
MODEL 3
REMARK VINA RESULT:      -6.8      2.231      3.026
REMARK  Name = 
REMARK  14 active torsions:
REMARK  status: ('A' for Active; 'I' for Inactive)
REMARK    1  A    between atoms: C_1  and  O_2
REMARK    2  A    between atoms: O_2  and  C_3
REMARK    3  A    between atoms: C_6  and  C_7
REMARK    4  A    between atoms: C_7  and  C_9
REMARK    5  A    between atoms: C_12  and  C_13
REMARK    6  A    between atoms: C_13  and  N_14
REMARK    7  A    between atoms: N_14  and  C_15
REMARK    8  A    between atoms: N_14  and  C_16
REMARK    9  A    between atoms: C_16  and  C_17
REMARK   10  A    between atoms: C_17  and  N_18
REMARK   11  A    between atoms: N_18  and  C_19
REMARK   12  A    between atoms: N_18  and  C_20
REMARK   13  A    between atoms: C_24  and  O_25
REMARK   14  A    between atoms: O_25  and  C_26
REMARK                            x       y       z     vdW  Elec       q    Type
REMARK                         _______ _______ _______ _____ _____    ______ ____
ROOT
ATOM      1  C   UNL     1       2.515   7.200  19.031  0.00  0.00    +0.000 A 
ATOM      2  C   UNL     1       1.938   7.598  20.246  0.00  0.00    +0.000 A 
ATOM      3  C   UNL     1       1.186   8.770  20.293  0.00  0.00    +0.000 A 
ATOM      4  C   UNL     1       1.030   9.567  19.150  0.00  0.00    +0.000 A 
ATOM      5  C   UNL     1       1.599   9.153  17.938  0.00  0.00    +0.000 A 
ATOM      6  C   UNL     1       2.308   7.956  17.878  0.00  0.00    +0.000 A 
ENDROOT
BRANCH   1   7
ATOM      7  C   UNL     1       3.358   5.975  19.022  0.00  0.00    +0.000 C 
ATOM      8  O   UNL     1       3.251   5.157  19.936  0.00  0.00    +0.000 OA
BRANCH   7  12
ATOM      9  C   UNL     1       5.985   5.312  15.693  0.00  0.00    +0.000 A 
ATOM     10  C   UNL     1       4.901   4.453  15.951  0.00  0.00    +0.000 A 
ATOM     11  C   UNL     1       4.045   4.674  17.028  0.00  0.00    +0.000 A 
ATOM     12  C   UNL     1       4.315   5.707  17.917  0.00  0.00    +0.000 A 
ATOM     13  C   UNL     1       5.478   6.465  17.751  0.00  0.00    +0.000 A 
ATOM     14  C   UNL     1       6.305   6.304  16.632  0.00  0.00    +0.000 A 
BRANCH   9  16
ATOM     15  C   UNL     1       6.404   4.026  13.759  0.00  0.00    +0.000 C 
ATOM     16  O   UNL     1       6.719   5.181  14.546  0.00  0.00    +0.000 OA
ENDBRANCH   9  16
BRANCH  14  17
ATOM     17  O   UNL     1       7.317   7.222  16.640  0.00  0.00    +0.000 OA
ATOM     18  C   UNL     1       7.791   7.744  17.866  0.00  0.00    +0.000 C 
ENDBRANCH  14  17
ENDBRANCH   7  12
ENDBRANCH   1   7
BRANCH   4  19
ATOM     19  C   UNL     1       0.202  10.829  19.192  0.00  0.00    +0.000 C 
BRANCH  19  20
ATOM     20  N   UNL     1       0.772  11.908  20.020  0.00  0.00    +0.000 NA
ATOM     21  C   UNL     1       1.730  12.720  19.258  0.00  0.00    +0.000 C 
BRANCH  20  22
ATOM     22  C   UNL     1      -0.310  12.789  20.528  0.00  0.00    +0.000 C 
BRANCH  22  23
ATOM     23  C   UNL     1      -0.299  12.973  22.068  0.00  0.00    +0.000 C 
BRANCH  23  24
ATOM     24  N   UNL     1      -1.390  12.296  22.800  0.00  0.00    +0.000 NA
ATOM     25  C   UNL     1      -2.670  12.392  22.095  0.00  0.00    +0.000 C 
ATOM     26  C   UNL     1      -1.032  10.881  22.972  0.00  0.00    +0.000 C 
ENDBRANCH  23  24
ENDBRANCH  22  23
ENDBRANCH  20  22
ENDBRANCH  19  20
ENDBRANCH   4  19
TORSDOF 9
ENDMDL
MODEL 4
REMARK VINA RESULT:      -6.8      2.085      2.971
REMARK  Name = 
REMARK  14 active torsions:
REMARK  status: ('A' for Active; 'I' for Inactive)
REMARK    1  A    between atoms: C_1  and  O_2
REMARK    2  A    between atoms: O_2  and  C_3
REMARK    3  A    between atoms: C_6  and  C_7
REMARK    4  A    between atoms: C_7  and  C_9
REMARK    5  A    between atoms: C_12  and  C_13
REMARK    6  A    between atoms: C_13  and  N_14
REMARK    7  A    between atoms: N_14  and  C_15
REMARK    8  A    between atoms: N_14  and  C_16
REMARK    9  A    between atoms: C_16  and  C_17
REMARK   10  A    between atoms: C_17  and  N_18
REMARK   11  A    between atoms: N_18  and  C_19
REMARK   12  A    between atoms: N_18  and  C_20
REMARK   13  A    between atoms: C_24  and  O_25
REMARK   14  A    between atoms: O_25  and  C_26
REMARK                            x       y       z     vdW  Elec       q    Type
REMARK                         _______ _______ _______ _____ _____    ______ ____
ROOT
ATOM      1  C   UNL     1       2.281   7.089  19.454  0.00  0.00    +0.000 A 
ATOM      2  C   UNL     1       1.588   7.731  20.491  0.00  0.00    +0.000 A 
ATOM      3  C   UNL     1       1.048   8.996  20.271  0.00  0.00    +0.000 A 
ATOM      4  C   UNL     1       1.219   9.644  19.039  0.00  0.00    +0.000 A 
ATOM      5  C   UNL     1       1.902   8.988  18.005  0.00  0.00    +0.000 A 
ATOM      6  C   UNL     1       2.398   7.703  18.207  0.00  0.00    +0.000 A 
ENDROOT
BRANCH   1   7
ATOM      7  C   UNL     1       2.895   5.764  19.733  0.00  0.00    +0.000 C 
ATOM      8  O   UNL     1       2.608   5.168  20.771  0.00  0.00    +0.000 OA
BRANCH   7  12
ATOM      9  C   UNL     1       5.605   4.129  16.835  0.00  0.00    +0.000 A 
ATOM     10  C   UNL     1       4.212   4.060  16.653  0.00  0.00    +0.000 A 
ATOM     11  C   UNL     1       3.334   4.598  17.591  0.00  0.00    +0.000 A 
ATOM     12  C   UNL     1       3.836   5.133  18.772  0.00  0.00    +0.000 A 
ATOM     13  C   UNL     1       5.209   5.062  19.024  0.00  0.00    +0.000 A 
ATOM     14  C   UNL     1       6.109   4.594  18.058  0.00  0.00    +0.000 A 
BRANCH   9  16
ATOM     15  C   UNL     1       6.919   4.810  14.996  0.00  0.00    +0.000 C 
ATOM     16  O   UNL     1       6.457   3.745  15.835  0.00  0.00    +0.000 OA
ENDBRANCH   9  16
BRANCH  14  17
ATOM     17  O   UNL     1       7.397   4.716  18.495  0.00  0.00    +0.000 OA
ATOM     18  C   UNL     1       7.821   5.909  19.127  0.00  0.00    +0.000 C 
ENDBRANCH  14  17
ENDBRANCH   7  12
ENDBRANCH   1   7
BRANCH   4  19
ATOM     19  C   UNL     1       0.621  11.008  18.791  0.00  0.00    +0.000 C 
BRANCH  19  20
ATOM     20  N   UNL     1       1.011  12.035  19.775  0.00  0.00    +0.000 NA
ATOM     21  C   UNL     1       2.111  12.869  19.272  0.00  0.00    +0.000 C 
BRANCH  20  22
ATOM     22  C   UNL     1      -0.149  12.907  20.090  0.00  0.00    +0.000 C 
BRANCH  22  23
ATOM     23  C   UNL     1      -1.169  12.266  21.067  0.00  0.00    +0.000 C 
BRANCH  23  24
ATOM     24  N   UNL     1      -0.742  12.195  22.480  0.00  0.00    +0.000 NA
ATOM     25  C   UNL     1      -1.379  13.226  23.301  0.00  0.00    +0.000 C 
ATOM     26  C   UNL     1      -1.086  10.868  23.008  0.00  0.00    +0.000 C 
ENDBRANCH  23  24
ENDBRANCH  22  23
ENDBRANCH  20  22
ENDBRANCH  19  20
ENDBRANCH   4  19
TORSDOF 9
ENDMDL
MODEL 5
REMARK VINA RESULT:      -6.8      1.156      1.353
REMARK  Name = 
REMARK  14 active torsions:
REMARK  status: ('A' for Active; 'I' for Inactive)
REMARK    1  A    between atoms: C_1  and  O_2
REMARK    2  A    between atoms: O_2  and  C_3
REMARK    3  A    between atoms: C_6  and  C_7
REMARK    4  A    between atoms: C_7  and  C_9
REMARK    5  A    between atoms: C_12  and  C_13
REMARK    6  A    between atoms: C_13  and  N_14
REMARK    7  A    between atoms: N_14  and  C_15
REMARK    8  A    between atoms: N_14  and  C_16
REMARK    9  A    between atoms: C_16  and  C_17
REMARK   10  A    between atoms: C_17  and  N_18
REMARK   11  A    between atoms: N_18  and  C_19
REMARK   12  A    between atoms: N_18  and  C_20
REMARK   13  A    between atoms: C_24  and  O_25
REMARK   14  A    between atoms: O_25  and  C_26
REMARK                            x       y       z     vdW  Elec       q    Type
REMARK                         _______ _______ _______ _____ _____    ______ ____
ROOT
ATOM      1  C   UNL     1       2.514   7.152  18.854  0.00  0.00    +0.000 A 
ATOM      2  C   UNL     1       2.574   7.982  17.725  0.00  0.00    +0.000 A 
ATOM      3  C   UNL     1       2.033   9.264  17.789  0.00  0.00    +0.000 A 
ATOM      4  C   UNL     1       1.403   9.717  18.957  0.00  0.00    +0.000 A 
ATOM      5  C   UNL     1       1.360   8.884  20.084  0.00  0.00    +0.000 A 
ATOM      6  C   UNL     1       1.945   7.622  20.037  0.00  0.00    +0.000 A 
ENDROOT
BRANCH   1   7
ATOM      7  C   UNL     1       3.049   5.769  18.739  0.00  0.00    +0.000 C 
ATOM      8  O   UNL     1       2.553   4.868  19.415  0.00  0.00    +0.000 OA
BRANCH   7  12
ATOM      9  C   UNL     1       6.132   4.918  15.878  0.00  0.00    +0.000 A 
ATOM     10  C   UNL     1       5.101   3.996  16.137  0.00  0.00    +0.000 A 
ATOM     11  C   UNL     1       4.097   4.278  17.061  0.00  0.00    +0.000 A 
ATOM     12  C   UNL     1       4.161   5.448  17.807  0.00  0.00    +0.000 A 
ATOM     13  C   UNL     1       5.266   6.292  17.662  0.00  0.00    +0.000 A 
ATOM     14  C   UNL     1       6.242   6.060  16.684  0.00  0.00    +0.000 A 
BRANCH   9  16
ATOM     15  C   UNL     1       6.469   4.027  13.718  0.00  0.00    +0.000 C 
ATOM     16  O   UNL     1       7.017   4.702  14.857  0.00  0.00    +0.000 OA
ENDBRANCH   9  16
BRANCH  14  17
ATOM     17  O   UNL     1       7.162   7.070  16.668  0.00  0.00    +0.000 OA
ATOM     18  C   UNL     1       7.723   7.537  17.880  0.00  0.00    +0.000 C 
ENDBRANCH  14  17
ENDBRANCH   7  12
ENDBRANCH   1   7
BRANCH   4  19
ATOM     19  C   UNL     1       0.829  11.112  19.037  0.00  0.00    +0.000 C 
BRANCH  19  20
ATOM     20  N   UNL     1      -0.635  11.163  19.196  0.00  0.00    +0.000 NA
ATOM     21  C   UNL     1      -1.014  11.463  20.583  0.00  0.00    +0.000 C 
BRANCH  20  22
ATOM     22  C   UNL     1      -1.211  12.202  18.304  0.00  0.00    +0.000 C 
BRANCH  22  23
ATOM     23  C   UNL     1      -2.426  11.713  17.474  0.00  0.00    +0.000 C 
BRANCH  23  24
ATOM     24  N   UNL     1      -2.374  10.303  17.034  0.00  0.00    +0.000 NA
ATOM     25  C   UNL     1      -3.337   9.466  17.753  0.00  0.00    +0.000 C 
ATOM     26  C   UNL     1      -2.659  10.249  15.594  0.00  0.00    +0.000 C 
ENDBRANCH  23  24
ENDBRANCH  22  23
ENDBRANCH  20  22
ENDBRANCH  19  20
ENDBRANCH   4  19
TORSDOF 9
ENDMDL
MODEL 6
REMARK VINA RESULT:      -6.8      4.083      8.925
REMARK  Name = 
REMARK  14 active torsions:
REMARK  status: ('A' for Active; 'I' for Inactive)
REMARK    1  A    between atoms: C_1  and  O_2
REMARK    2  A    between atoms: O_2  and  C_3
REMARK    3  A    between atoms: C_6  and  C_7
REMARK    4  A    between atoms: C_7  and  C_9
REMARK    5  A    between atoms: C_12  and  C_13
REMARK    6  A    between atoms: C_13  and  N_14
REMARK    7  A    between atoms: N_14  and  C_15
REMARK    8  A    between atoms: N_14  and  C_16
REMARK    9  A    between atoms: C_16  and  C_17
REMARK   10  A    between atoms: C_17  and  N_18
REMARK   11  A    between atoms: N_18  and  C_19
REMARK   12  A    between atoms: N_18  and  C_20
REMARK   13  A    between atoms: C_24  and  O_25
REMARK   14  A    between atoms: O_25  and  C_26
REMARK                            x       y       z     vdW  Elec       q    Type
REMARK                         _______ _______ _______ _____ _____    ______ ____
ROOT
ATOM      1  C   UNL     1       1.400   9.412  18.966  0.00  0.00    +0.000 A 
ATOM      2  C   UNL     1       2.096   9.109  17.786  0.00  0.00    +0.000 A 
ATOM      3  C   UNL     1       2.785   7.903  17.690  0.00  0.00    +0.000 A 
ATOM      4  C   UNL     1       2.817   7.008  18.769  0.00  0.00    +0.000 A 
ATOM      5  C   UNL     1       2.107   7.314  19.939  0.00  0.00    +0.000 A 
ATOM      6  C   UNL     1       1.377   8.496  20.018  0.00  0.00    +0.000 A 
ENDROOT
BRANCH   1   7
ATOM      7  C   UNL     1       0.720  10.731  19.063  0.00  0.00    +0.000 C 
ATOM      8  O   UNL     1       1.356  11.716  19.437  0.00  0.00    +0.000 OA
BRANCH   7  12
ATOM      9  C   UNL     1      -3.457  10.998  18.116  0.00  0.00    +0.000 A 
ATOM     10  C   UNL     1      -2.581  10.217  17.341  0.00  0.00    +0.000 A 
ATOM     11  C   UNL     1      -1.227  10.126  17.654  0.00  0.00    +0.000 A 
ATOM     12  C   UNL     1      -0.711  10.888  18.695  0.00  0.00    +0.000 A 
ATOM     13  C   UNL     1      -1.549  11.782  19.368  0.00  0.00    +0.000 A 
ATOM     14  C   UNL     1      -2.926  11.828  19.114  0.00  0.00    +0.000 A 
BRANCH   9  16
ATOM     15  C   UNL     1      -5.306  11.947  16.997  0.00  0.00    +0.000 C 
ATOM     16  O   UNL     1      -4.808  10.952  17.899  0.00  0.00    +0.000 OA
ENDBRANCH   9  16
BRANCH  14  17
ATOM     17  O   UNL     1      -3.547  12.701  19.962  0.00  0.00    +0.000 OA
ATOM     18  C   UNL     1      -2.795  13.693  20.634  0.00  0.00    +0.000 C 
ENDBRANCH  14  17
ENDBRANCH   7  12
ENDBRANCH   1   7
BRANCH   4  19
ATOM     19  C   UNL     1       3.549   5.692  18.663  0.00  0.00    +0.000 C 
BRANCH  19  20
ATOM     20  N   UNL     1       3.130   4.848  17.529  0.00  0.00    +0.000 NA
ATOM     21  C   UNL     1       4.133   3.818  17.227  0.00  0.00    +0.000 C 
BRANCH  20  22
ATOM     22  C   UNL     1       1.837   4.185  17.836  0.00  0.00    +0.000 C 
BRANCH  22  23
ATOM     23  C   UNL     1       1.986   2.753  18.411  0.00  0.00    +0.000 C 
BRANCH  23  24
ATOM     24  N   UNL     1       1.727   2.617  19.860  0.00  0.00    +0.000 NA
ATOM     25  C   UNL     1       2.963   2.631  20.645  0.00  0.00    +0.000 C 
ATOM     26  C   UNL     1       0.864   3.725  20.289  0.00  0.00    +0.000 C 
ENDBRANCH  23  24
ENDBRANCH  22  23
ENDBRANCH  20  22
ENDBRANCH  19  20
ENDBRANCH   4  19
TORSDOF 9
ENDMDL
MODEL 7
REMARK VINA RESULT:      -6.8      0.981      1.097
REMARK  Name = 
REMARK  14 active torsions:
REMARK  status: ('A' for Active; 'I' for Inactive)
REMARK    1  A    between atoms: C_1  and  O_2
REMARK    2  A    between atoms: O_2  and  C_3
REMARK    3  A    between atoms: C_6  and  C_7
REMARK    4  A    between atoms: C_7  and  C_9
REMARK    5  A    between atoms: C_12  and  C_13
REMARK    6  A    between atoms: C_13  and  N_14
REMARK    7  A    between atoms: N_14  and  C_15
REMARK    8  A    between atoms: N_14  and  C_16
REMARK    9  A    between atoms: C_16  and  C_17
REMARK   10  A    between atoms: C_17  and  N_18
REMARK   11  A    between atoms: N_18  and  C_19
REMARK   12  A    between atoms: N_18  and  C_20
REMARK   13  A    between atoms: C_24  and  O_25
REMARK   14  A    between atoms: O_25  and  C_26
REMARK                            x       y       z     vdW  Elec       q    Type
REMARK                         _______ _______ _______ _____ _____    ______ ____
ROOT
ATOM      1  C   UNL     1       2.537   6.842  19.101  0.00  0.00    +0.000 A 
ATOM      2  C   UNL     1       2.494   7.630  17.941  0.00  0.00    +0.000 A 
ATOM      3  C   UNL     1       1.906   8.892  17.993  0.00  0.00    +0.000 A 
ATOM      4  C   UNL     1       1.331   9.365  19.180  0.00  0.00    +0.000 A 
ATOM      5  C   UNL     1       1.390   8.576  20.338  0.00  0.00    +0.000 A 
ATOM      6  C   UNL     1       2.022   7.336  20.300  0.00  0.00    +0.000 A 
ENDROOT
BRANCH   1   7
ATOM      7  C   UNL     1       3.120   5.478  19.004  0.00  0.00    +0.000 C 
ATOM      8  O   UNL     1       2.597   4.549  19.620  0.00  0.00    +0.000 OA
BRANCH   7  12
ATOM      9  C   UNL     1       6.479   4.842  16.410  0.00  0.00    +0.000 A 
ATOM     10  C   UNL     1       5.282   4.120  16.246  0.00  0.00    +0.000 A 
ATOM     11  C   UNL     1       4.190   4.333  17.085  0.00  0.00    +0.000 A 
ATOM     12  C   UNL     1       4.311   5.207  18.158  0.00  0.00    +0.000 A 
ATOM     13  C   UNL     1       5.546   5.808  18.415  0.00  0.00    +0.000 A 
ATOM     14  C   UNL     1       6.629   5.663  17.537  0.00  0.00    +0.000 A 
BRANCH   9  16
ATOM     15  C   UNL     1       7.055   4.830  14.121  0.00  0.00    +0.000 C 
ATOM     16  O   UNL     1       7.483   4.743  15.485  0.00  0.00    +0.000 OA
ENDBRANCH   9  16
BRANCH  14  17
ATOM     17  O   UNL     1       7.689   6.422  17.944  0.00  0.00    +0.000 OA
ATOM     18  C   UNL     1       7.712   7.810  17.673  0.00  0.00    +0.000 C 
ENDBRANCH  14  17
ENDBRANCH   7  12
ENDBRANCH   1   7
BRANCH   4  19
ATOM     19  C   UNL     1       0.707  10.739  19.245  0.00  0.00    +0.000 C 
BRANCH  19  20
ATOM     20  N   UNL     1      -0.727  10.745  19.588  0.00  0.00    +0.000 NA
ATOM     21  C   UNL     1      -0.967  11.395  20.884  0.00  0.00    +0.000 C 
BRANCH  20  22
ATOM     22  C   UNL     1      -1.500  11.459  18.540  0.00  0.00    +0.000 C 
BRANCH  22  23
ATOM     23  C   UNL     1      -2.860  12.017  19.035  0.00  0.00    +0.000 C 
BRANCH  23  24
ATOM     24  N   UNL     1      -4.029  11.690  18.192  0.00  0.00    +0.000 NA
ATOM     25  C   UNL     1      -3.957  10.331  17.653  0.00  0.00    +0.000 C 
ATOM     26  C   UNL     1      -5.246  11.829  19.004  0.00  0.00    +0.000 C 
ENDBRANCH  23  24
ENDBRANCH  22  23
ENDBRANCH  20  22
ENDBRANCH  19  20
ENDBRANCH   4  19
TORSDOF 9
ENDMDL
MODEL 8
REMARK VINA RESULT:      -6.6      1.384      2.736
REMARK  Name = 
REMARK  14 active torsions:
REMARK  status: ('A' for Active; 'I' for Inactive)
REMARK    1  A    between atoms: C_1  and  O_2
REMARK    2  A    between atoms: O_2  and  C_3
REMARK    3  A    between atoms: C_6  and  C_7
REMARK    4  A    between atoms: C_7  and  C_9
REMARK    5  A    between atoms: C_12  and  C_13
REMARK    6  A    between atoms: C_13  and  N_14
REMARK    7  A    between atoms: N_14  and  C_15
REMARK    8  A    between atoms: N_14  and  C_16
REMARK    9  A    between atoms: C_16  and  C_17
REMARK   10  A    between atoms: C_17  and  N_18
REMARK   11  A    between atoms: N_18  and  C_19
REMARK   12  A    between atoms: N_18  and  C_20
REMARK   13  A    between atoms: C_24  and  O_25
REMARK   14  A    between atoms: O_25  and  C_26
REMARK                            x       y       z     vdW  Elec       q    Type
REMARK                         _______ _______ _______ _____ _____    ______ ____
ROOT
ATOM      1  C   UNL     1       2.163   7.223  19.639  0.00  0.00    +0.000 A 
ATOM      2  C   UNL     1       2.340   7.806  18.376  0.00  0.00    +0.000 A 
ATOM      3  C   UNL     1       1.901   9.110  18.157  0.00  0.00    +0.000 A 
ATOM      4  C   UNL     1       1.256   9.828  19.174  0.00  0.00    +0.000 A 
ATOM      5  C   UNL     1       1.096   9.241  20.437  0.00  0.00    +0.000 A 
ATOM      6  C   UNL     1       1.580   7.958  20.672  0.00  0.00    +0.000 A 
ENDROOT
BRANCH   1   7
ATOM      7  C   UNL     1       2.592   5.812  19.829  0.00  0.00    +0.000 C 
ATOM      8  O   UNL     1       2.139   5.161  20.770  0.00  0.00    +0.000 OA
BRANCH   7  12
ATOM      9  C   UNL     1       5.331   4.122  16.990  0.00  0.00    +0.000 A 
ATOM     10  C   UNL     1       3.940   4.046  16.797  0.00  0.00    +0.000 A 
ATOM     11  C   UNL     1       3.052   4.602  17.716  0.00  0.00    +0.000 A 
ATOM     12  C   UNL     1       3.542   5.162  18.889  0.00  0.00    +0.000 A 
ATOM     13  C   UNL     1       4.913   5.101  19.156  0.00  0.00    +0.000 A 
ATOM     14  C   UNL     1       5.823   4.615  18.208  0.00  0.00    +0.000 A 
BRANCH   9  16
ATOM     15  C   UNL     1       6.804   4.784  15.269  0.00  0.00    +0.000 C 
ATOM     16  O   UNL     1       6.193   3.719  16.007  0.00  0.00    +0.000 OA
ENDBRANCH   9  16
BRANCH  14  17
ATOM     17  O   UNL     1       7.107   4.750  18.654  0.00  0.00    +0.000 OA
ATOM     18  C   UNL     1       7.665   6.038  18.830  0.00  0.00    +0.000 C 
ENDBRANCH  14  17
ENDBRANCH   7  12
ENDBRANCH   1   7
BRANCH   4  19
ATOM     19  C   UNL     1       0.792  11.247  18.946  0.00  0.00    +0.000 C 
BRANCH  19  20
ATOM     20  N   UNL     1      -0.669  11.402  18.830  0.00  0.00    +0.000 NA
ATOM     21  C   UNL     1      -1.302  10.173  18.332  0.00  0.00    +0.000 C 
BRANCH  20  22
ATOM     22  C   UNL     1      -1.254  11.744  20.152  0.00  0.00    +0.000 C 
BRANCH  22  23
ATOM     23  C   UNL     1      -0.343  12.642  21.028  0.00  0.00    +0.000 C 
BRANCH  23  24
ATOM     24  N   UNL     1      -0.446  12.428  22.486  0.00  0.00    +0.000 NA
ATOM     25  C   UNL     1      -1.231  13.474  23.143  0.00  0.00    +0.000 C 
ATOM     26  C   UNL     1      -1.075  11.122  22.726  0.00  0.00    +0.000 C 
ENDBRANCH  23  24
ENDBRANCH  22  23
ENDBRANCH  20  22
ENDBRANCH  19  20
ENDBRANCH   4  19
TORSDOF 9
ENDMDL
MODEL 9
REMARK VINA RESULT:      -6.6      4.127      9.071
REMARK  Name = 
REMARK  14 active torsions:
REMARK  status: ('A' for Active; 'I' for Inactive)
REMARK    1  A    between atoms: C_1  and  O_2
REMARK    2  A    between atoms: O_2  and  C_3
REMARK    3  A    between atoms: C_6  and  C_7
REMARK    4  A    between atoms: C_7  and  C_9
REMARK    5  A    between atoms: C_12  and  C_13
REMARK    6  A    between atoms: C_13  and  N_14
REMARK    7  A    between atoms: N_14  and  C_15
REMARK    8  A    between atoms: N_14  and  C_16
REMARK    9  A    between atoms: C_16  and  C_17
REMARK   10  A    between atoms: C_17  and  N_18
REMARK   11  A    between atoms: N_18  and  C_19
REMARK   12  A    between atoms: N_18  and  C_20
REMARK   13  A    between atoms: C_24  and  O_25
REMARK   14  A    between atoms: O_25  and  C_26
REMARK                            x       y       z     vdW  Elec       q    Type
REMARK                         _______ _______ _______ _____ _____    ______ ____
ROOT
ATOM      1  C   UNL     1       1.151   9.308  19.766  0.00  0.00    +0.000 A 
ATOM      2  C   UNL     1       1.797   8.959  18.571  0.00  0.00    +0.000 A 
ATOM      3  C   UNL     1       2.389   7.704  18.455  0.00  0.00    +0.000 A 
ATOM      4  C   UNL     1       2.374   6.803  19.530  0.00  0.00    +0.000 A 
ATOM      5  C   UNL     1       1.713   7.156  20.715  0.00  0.00    +0.000 A 
ATOM      6  C   UNL     1       1.077   8.390  20.814  0.00  0.00    +0.000 A 
ENDROOT
BRANCH   1   7
ATOM      7  C   UNL     1       0.576  10.674  19.882  0.00  0.00    +0.000 C 
ATOM      8  O   UNL     1       1.209  11.552  20.469  0.00  0.00    +0.000 OA
BRANCH   7  12
ATOM      9  C   UNL     1      -3.316  11.459  18.251  0.00  0.00    +0.000 A 
ATOM     10  C   UNL     1      -2.415  10.592  17.606  0.00  0.00    +0.000 A 
ATOM     11  C   UNL     1      -1.155  10.333  18.141  0.00  0.00    +0.000 A 
ATOM     12  C   UNL     1      -0.742  11.009  19.283  0.00  0.00    +0.000 A 
ATOM     13  C   UNL     1      -1.575  11.985  19.837  0.00  0.00    +0.000 A 
ATOM     14  C   UNL     1      -2.873  12.201  19.355  0.00  0.00    +0.000 A 
BRANCH   9  16
ATOM     15  C   UNL     1      -5.536  10.672  18.408  0.00  0.00    +0.000 C 
ATOM     16  O   UNL     1      -4.604  11.579  17.806  0.00  0.00    +0.000 OA
ENDBRANCH   9  16
BRANCH  14  17
ATOM     17  O   UNL     1      -3.526  13.127  20.118  0.00  0.00    +0.000 OA
ATOM     18  C   UNL     1      -4.242  12.720  21.269  0.00  0.00    +0.000 C 
ENDBRANCH  14  17
ENDBRANCH   7  12
ENDBRANCH   1   7
BRANCH   4  19
ATOM     19  C   UNL     1       3.000   5.435  19.403  0.00  0.00    +0.000 C 
BRANCH  19  20
ATOM     20  N   UNL     1       4.124   5.362  18.452  0.00  0.00    +0.000 NA
ATOM     21  C   UNL     1       5.410   5.230  19.151  0.00  0.00    +0.000 C 
BRANCH  20  22
ATOM     22  C   UNL     1       3.949   4.203  17.541  0.00  0.00    +0.000 C 
BRANCH  22  23
ATOM     23  C   UNL     1       2.483   3.711  17.426  0.00  0.00    +0.000 C 
BRANCH  23  24
ATOM     24  N   UNL     1       2.254   2.297  17.791  0.00  0.00    +0.000 NA
ATOM     25  C   UNL     1       3.450   1.673  18.359  0.00  0.00    +0.000 C 
ATOM     26  C   UNL     1       1.160   2.236  18.770  0.00  0.00    +0.000 C 
ENDBRANCH  23  24
ENDBRANCH  22  23
ENDBRANCH  20  22
ENDBRANCH  19  20
ENDBRANCH   4  19
TORSDOF 9
ENDMDL
