MODEL 1
REMARK VINA RESULT:      -4.7      0.000      0.000
REMARK  Name = 
REMARK  16 active torsions:
REMARK  status: ('A' for Active; 'I' for Inactive)
REMARK    1  A    between atoms: C_1  and  C_2
REMARK    2  A    between atoms: C_2  and  C_3
REMARK    3  A    between atoms: C_2  and  C_4
REMARK    4  A    between atoms: C_2  and  S_5
REMARK    5  A    between atoms: S_5  and  C_6
REMARK    6  A    between atoms: C_9  and  S_10
REMARK    7  A    between atoms: S_10  and  C_11
REMARK    8  A    between atoms: C_11  and  C_12
REMARK    9  A    between atoms: C_11  and  C_13
REMARK   10  A    between atoms: C_11  and  C_14
REMARK   11  A    between atoms: C_16  and  S_17
REMARK   12  A    between atoms: S_17  and  C_18
REMARK   13  A    between atoms: C_18  and  C_19
REMARK   14  A    between atoms: C_18  and  C_20
REMARK   15  A    between atoms: C_18  and  C_21
REMARK   16  A    between atoms: C_24  and  O_25
REMARK                            x       y       z     vdW  Elec       q    Type
REMARK                         _______ _______ _______ _____ _____    ______ ____
ROOT
ATOM      1  C   UNL     1       5.218  15.385  18.171  0.00  0.00    +0.000 A 
ATOM      2  N   UNL     1       5.881  14.294  17.748  0.00  0.00    +0.000 NA
ATOM      3  N   UNL     1       7.224  14.246  17.842  0.00  0.00    +0.000 NA
ATOM      4  C   UNL     1       7.915  15.272  18.372  0.00  0.00    +0.000 A 
ATOM      5  C   UNL     1       7.260  16.337  19.079  0.00  0.00    +0.000 A 
ATOM      6  C   UNL     1       7.805  17.372  19.906  0.00  0.00    +0.000 A 
ATOM      7  N   UNL     1       7.071  18.422  20.360  0.00  0.00    +0.000 NA
ATOM      8  N   UNL     1       5.751  18.486  20.151  0.00  0.00    +0.000 NA
ATOM      9  C   UNL     1       5.173  17.488  19.485  0.00  0.00    +0.000 A 
ATOM     10  C   UNL     1       5.849  16.390  18.919  0.00  0.00    +0.000 A 
ENDROOT
BRANCH   9  11
ATOM     11  O   UNL     1       3.830  17.656  19.416  0.00  0.00    +0.000 OA
ATOM     12  H   UNL     1       3.559  16.870  18.910  0.00  0.00    +0.000 HD
ENDBRANCH   9  11
BRANCH   1  13
ATOM     13  S   UNL     1       3.550  15.439  17.538  0.00  0.00    +0.000 S 
BRANCH  13  15
ATOM     14  C   UNL     1       3.396  14.308  20.087  0.00  0.00    +0.000 C 
ATOM     15  C   UNL     1       2.697  14.289  18.727  0.00  0.00    +0.000 C 
ATOM     16  C   UNL     1       2.625  12.853  18.188  0.00  0.00    +0.000 C 
ATOM     17  C   UNL     1       1.268  14.819  18.889  0.00  0.00    +0.000 C 
ENDBRANCH  13  15
ENDBRANCH   1  13
BRANCH   4  18
ATOM     18  S   UNL     1       9.645  15.256  17.903  0.00  0.00    +0.000 S 
BRANCH  18  19
ATOM     19  C   UNL     1      10.441  13.709  18.691  0.00  0.00    +0.000 C 
ATOM     20  C   UNL     1      10.471  12.433  17.826  0.00  0.00    +0.000 C 
ATOM     21  C   UNL     1      11.908  14.117  18.936  0.00  0.00    +0.000 C 
ATOM     22  C   UNL     1       9.803  13.394  20.054  0.00  0.00    +0.000 C 
ENDBRANCH  18  19
ENDBRANCH   4  18
BRANCH   6  23
ATOM     23  S   UNL     1       9.441  17.473  20.587  0.00  0.00    +0.000 S 
BRANCH  23  24
ATOM     24  C   UNL     1       9.234  16.688  22.277  0.00  0.00    +0.000 C 
ATOM     25  C   UNL     1      10.557  15.975  22.561  0.00  0.00    +0.000 C 
ATOM     26  C   UNL     1       9.006  17.838  23.274  0.00  0.00    +0.000 C 
ATOM     27  C   UNL     1       8.073  15.696  22.476  0.00  0.00    +0.000 C 
ENDBRANCH  23  24
ENDBRANCH   6  23
TORSDOF 7
ENDMDL
MODEL 2
REMARK VINA RESULT:      -4.7      7.441     10.324
REMARK  Name = 
REMARK  16 active torsions:
REMARK  status: ('A' for Active; 'I' for Inactive)
REMARK    1  A    between atoms: C_1  and  C_2
REMARK    2  A    between atoms: C_2  and  C_3
REMARK    3  A    between atoms: C_2  and  C_4
REMARK    4  A    between atoms: C_2  and  S_5
REMARK    5  A    between atoms: S_5  and  C_6
REMARK    6  A    between atoms: C_9  and  S_10
REMARK    7  A    between atoms: S_10  and  C_11
REMARK    8  A    between atoms: C_11  and  C_12
REMARK    9  A    between atoms: C_11  and  C_13
REMARK   10  A    between atoms: C_11  and  C_14
REMARK   11  A    between atoms: C_16  and  S_17
REMARK   12  A    between atoms: S_17  and  C_18
REMARK   13  A    between atoms: C_18  and  C_19
REMARK   14  A    between atoms: C_18  and  C_20
REMARK   15  A    between atoms: C_18  and  C_21
REMARK   16  A    between atoms: C_24  and  O_25
REMARK                            x       y       z     vdW  Elec       q    Type
REMARK                         _______ _______ _______ _____ _____    ______ ____
ROOT
ATOM      1  C   UNL     1      -3.513  14.206  22.588  0.00  0.00    +0.000 A 
ATOM      2  N   UNL     1      -3.445  15.283  21.786  0.00  0.00    +0.000 NA
ATOM      3  N   UNL     1      -2.299  15.569  21.140  0.00  0.00    +0.000 NA
ATOM      4  C   UNL     1      -1.218  14.777  21.271  0.00  0.00    +0.000 A 
ATOM      5  C   UNL     1      -1.302  13.483  21.888  0.00  0.00    +0.000 A 
ATOM      6  C   UNL     1      -0.356  12.407  21.916  0.00  0.00    +0.000 A 
ATOM      7  N   UNL     1      -0.507  11.308  22.701  0.00  0.00    +0.000 NA
ATOM      8  N   UNL     1      -1.621  11.114  23.415  0.00  0.00    +0.000 NA
ATOM      9  C   UNL     1      -2.584  12.031  23.334  0.00  0.00    +0.000 A 
ATOM     10  C   UNL     1      -2.504  13.232  22.604  0.00  0.00    +0.000 A 
ENDROOT
BRANCH   9  11
ATOM     11  O   UNL     1      -3.674  11.662  24.051  0.00  0.00    +0.000 OA
ATOM     12  H   UNL     1      -4.247  11.287  23.359  0.00  0.00    +0.000 HD
ENDBRANCH   9  11
BRANCH   1  13
ATOM     13  S   UNL     1      -4.920  14.277  23.684  0.00  0.00    +0.000 S 
BRANCH  13  15
ATOM     14  C   UNL     1      -5.711  12.735  21.492  0.00  0.00    +0.000 C 
ATOM     15  C   UNL     1      -6.271  13.698  22.541  0.00  0.00    +0.000 C 
ATOM     16  C   UNL     1      -6.987  14.871  21.855  0.00  0.00    +0.000 C 
ATOM     17  C   UNL     1      -7.286  12.953  23.415  0.00  0.00    +0.000 C 
ENDBRANCH  13  15
ENDBRANCH   1  13
BRANCH   4  18
ATOM     18  S   UNL     1       0.304  15.604  20.810  0.00  0.00    +0.000 S 
BRANCH  18  19
ATOM     19  C   UNL     1       0.375  15.658  18.902  0.00  0.00    +0.000 C 
ATOM     20  C   UNL     1      -0.283  16.875  18.222  0.00  0.00    +0.000 C 
ATOM     21  C   UNL     1       1.881  15.725  18.577  0.00  0.00    +0.000 C 
ATOM     22  C   UNL     1      -0.183  14.361  18.293  0.00  0.00    +0.000 C 
ENDBRANCH  18  19
ENDBRANCH   4  18
BRANCH   6  23
ATOM     23  S   UNL     1       1.097  12.209  20.915  0.00  0.00    +0.000 S 
BRANCH  23  24
ATOM     24  C   UNL     1       0.635  10.778  19.796  0.00  0.00    +0.000 C 
ATOM     25  C   UNL     1      -0.847  10.975  19.471  0.00  0.00    +0.000 C 
ATOM     26  C   UNL     1       1.498  10.912  18.528  0.00  0.00    +0.000 C 
ATOM     27  C   UNL     1       0.849   9.348  20.325  0.00  0.00    +0.000 C 
ENDBRANCH  23  24
ENDBRANCH   6  23
TORSDOF 7
ENDMDL
MODEL 3
REMARK VINA RESULT:      -4.6      3.140      6.123
REMARK  Name = 
REMARK  16 active torsions:
REMARK  status: ('A' for Active; 'I' for Inactive)
REMARK    1  A    between atoms: C_1  and  C_2
REMARK    2  A    between atoms: C_2  and  C_3
REMARK    3  A    between atoms: C_2  and  C_4
REMARK    4  A    between atoms: C_2  and  S_5
REMARK    5  A    between atoms: S_5  and  C_6
REMARK    6  A    between atoms: C_9  and  S_10
REMARK    7  A    between atoms: S_10  and  C_11
REMARK    8  A    between atoms: C_11  and  C_12
REMARK    9  A    between atoms: C_11  and  C_13
REMARK   10  A    between atoms: C_11  and  C_14
REMARK   11  A    between atoms: C_16  and  S_17
REMARK   12  A    between atoms: S_17  and  C_18
REMARK   13  A    between atoms: C_18  and  C_19
REMARK   14  A    between atoms: C_18  and  C_20
REMARK   15  A    between atoms: C_18  and  C_21
REMARK   16  A    between atoms: C_24  and  O_25
REMARK                            x       y       z     vdW  Elec       q    Type
REMARK                         _______ _______ _______ _____ _____    ______ ____
ROOT
ATOM      1  C   UNL     1       9.716  14.345  19.838  0.00  0.00    +0.000 A 
ATOM      2  N   UNL     1      10.179  13.794  20.974  0.00  0.00    +0.000 NA
ATOM      3  N   UNL     1       9.410  13.784  22.079  0.00  0.00    +0.000 NA
ATOM      4  C   UNL     1       8.169  14.304  22.060  0.00  0.00    +0.000 A 
ATOM      5  C   UNL     1       7.520  14.661  20.829  0.00  0.00    +0.000 A 
ATOM      6  C   UNL     1       6.153  14.997  20.566  0.00  0.00    +0.000 A 
ATOM      7  N   UNL     1       5.727  15.493  19.375  0.00  0.00    +0.000 NA
ATOM      8  N   UNL     1       6.554  15.588  18.329  0.00  0.00    +0.000 NA
ATOM      9  C   UNL     1       7.812  15.180  18.486  0.00  0.00    +0.000 A 
ATOM     10  C   UNL     1       8.370  14.711  19.691  0.00  0.00    +0.000 A 
ENDROOT
BRANCH   9  11
ATOM     11  O   UNL     1       8.506  15.269  17.325  0.00  0.00    +0.000 OA
ATOM     12  H   UNL     1       8.063  16.018  16.887  0.00  0.00    +0.000 HD
ENDBRANCH   9  11
BRANCH   1  13
ATOM     13  S   UNL     1      11.026  14.672  18.672  0.00  0.00    +0.000 S 
BRANCH  13  15
ATOM     14  C   UNL     1      10.061  12.197  17.809  0.00  0.00    +0.000 C 
ATOM     15  C   UNL     1      11.369  12.950  18.053  0.00  0.00    +0.000 C 
ATOM     16  C   UNL     1      12.263  12.159  19.019  0.00  0.00    +0.000 C 
ATOM     17  C   UNL     1      12.113  13.111  16.723  0.00  0.00    +0.000 C 
ENDBRANCH  13  15
ENDBRANCH   1  13
BRANCH   4  18
ATOM     18  S   UNL     1       7.556  14.692  23.699  0.00  0.00    +0.000 S 
BRANCH  18  19
ATOM     19  C   UNL     1       6.918  13.067  24.474  0.00  0.00    +0.000 C 
ATOM     20  C   UNL     1       6.561  11.931  23.495  0.00  0.00    +0.000 C 
ATOM     21  C   UNL     1       8.098  12.564  25.331  0.00  0.00    +0.000 C 
ATOM     22  C   UNL     1       5.731  13.333  25.413  0.00  0.00    +0.000 C 
ENDBRANCH  18  19
ENDBRANCH   4  18
BRANCH   6  23
ATOM     23  S   UNL     1       4.750  14.760  21.629  0.00  0.00    +0.000 S 
BRANCH  23  24
ATOM     24  C   UNL     1       4.417  16.491  22.265  0.00  0.00    +0.000 C 
ATOM     25  C   UNL     1       3.177  16.973  21.509  0.00  0.00    +0.000 C 
ATOM     26  C   UNL     1       4.125  16.361  23.771  0.00  0.00    +0.000 C 
ATOM     27  C   UNL     1       5.534  17.542  22.122  0.00  0.00    +0.000 C 
ENDBRANCH  23  24
ENDBRANCH   6  23
TORSDOF 7
ENDMDL
MODEL 4
REMARK VINA RESULT:      -4.6      7.246     10.204
REMARK  Name = 
REMARK  16 active torsions:
REMARK  status: ('A' for Active; 'I' for Inactive)
REMARK    1  A    between atoms: C_1  and  C_2
REMARK    2  A    between atoms: C_2  and  C_3
REMARK    3  A    between atoms: C_2  and  C_4
REMARK    4  A    between atoms: C_2  and  S_5
REMARK    5  A    between atoms: S_5  and  C_6
REMARK    6  A    between atoms: C_9  and  S_10
REMARK    7  A    between atoms: S_10  and  C_11
REMARK    8  A    between atoms: C_11  and  C_12
REMARK    9  A    between atoms: C_11  and  C_13
REMARK   10  A    between atoms: C_11  and  C_14
REMARK   11  A    between atoms: C_16  and  S_17
REMARK   12  A    between atoms: S_17  and  C_18
REMARK   13  A    between atoms: C_18  and  C_19
REMARK   14  A    between atoms: C_18  and  C_20
REMARK   15  A    between atoms: C_18  and  C_21
REMARK   16  A    between atoms: C_24  and  O_25
REMARK                            x       y       z     vdW  Elec       q    Type
REMARK                         _______ _______ _______ _____ _____    ______ ____
ROOT
ATOM      1  C   UNL     1      -3.269  14.410  22.666  0.00  0.00    +0.000 A 
ATOM      2  N   UNL     1      -3.076  15.492  21.891  0.00  0.00    +0.000 NA
ATOM      3  N   UNL     1      -1.897  15.667  21.263  0.00  0.00    +0.000 NA
ATOM      4  C   UNL     1      -0.910  14.761  21.385  0.00  0.00    +0.000 A 
ATOM      5  C   UNL     1      -1.139  13.469  21.971  0.00  0.00    +0.000 A 
ATOM      6  C   UNL     1      -0.315  12.298  21.982  0.00  0.00    +0.000 A 
ATOM      7  N   UNL     1      -0.593  11.204  22.739  0.00  0.00    +0.000 NA
ATOM      8  N   UNL     1      -1.730  11.115  23.437  0.00  0.00    +0.000 NA
ATOM      9  C   UNL     1      -2.588  12.131  23.369  0.00  0.00    +0.000 A 
ATOM     10  C   UNL     1      -2.370  13.333  22.669  0.00  0.00    +0.000 A 
ENDROOT
BRANCH   9  11
ATOM     11  O   UNL     1      -3.719  11.866  24.066  0.00  0.00    +0.000 OA
ATOM     12  H   UNL     1      -4.212  12.700  23.966  0.00  0.00    +0.000 HD
ENDBRANCH   9  11
BRANCH   1  13
ATOM     13  S   UNL     1      -4.674  14.607  23.749  0.00  0.00    +0.000 S 
BRANCH  13  15
ATOM     14  C   UNL     1      -5.596  13.189  21.526  0.00  0.00    +0.000 C 
ATOM     15  C   UNL     1      -6.064  14.191  22.583  0.00  0.00    +0.000 C 
ATOM     16  C   UNL     1      -6.642  15.443  21.908  0.00  0.00    +0.000 C 
ATOM     17  C   UNL     1      -7.162  13.546  23.435  0.00  0.00    +0.000 C 
ENDBRANCH  13  15
ENDBRANCH   1  13
BRANCH   4  18
ATOM     18  S   UNL     1       0.698  15.429  20.959  0.00  0.00    +0.000 S 
BRANCH  18  19
ATOM     19  C   UNL     1       0.834  15.430  19.054  0.00  0.00    +0.000 C 
ATOM     20  C   UNL     1       2.201  15.035  18.460  0.00  0.00    +0.000 C 
ATOM     21  C   UNL     1      -0.177  14.357  18.599  0.00  0.00    +0.000 C 
ATOM     22  C   UNL     1       0.387  16.779  18.470  0.00  0.00    +0.000 C 
ENDBRANCH  18  19
ENDBRANCH   4  18
BRANCH   6  23
ATOM     23  S   UNL     1       1.121  11.967  20.991  0.00  0.00    +0.000 S 
BRANCH  23  24
ATOM     24  C   UNL     1       0.492  10.697  19.765  0.00  0.00    +0.000 C 
ATOM     25  C   UNL     1       1.370  10.859  18.522  0.00  0.00    +0.000 C 
ATOM     26  C   UNL     1       0.704   9.316  20.410  0.00  0.00    +0.000 C 
ATOM     27  C   UNL     1      -0.989  10.766  19.347  0.00  0.00    +0.000 C 
ENDBRANCH  23  24
ENDBRANCH   6  23
TORSDOF 7
ENDMDL
MODEL 5
REMARK VINA RESULT:      -4.6      7.284     10.192
REMARK  Name = 
REMARK  16 active torsions:
REMARK  status: ('A' for Active; 'I' for Inactive)
REMARK    1  A    between atoms: C_1  and  C_2
REMARK    2  A    between atoms: C_2  and  C_3
REMARK    3  A    between atoms: C_2  and  C_4
REMARK    4  A    between atoms: C_2  and  S_5
REMARK    5  A    between atoms: S_5  and  C_6
REMARK    6  A    between atoms: C_9  and  S_10
REMARK    7  A    between atoms: S_10  and  C_11
REMARK    8  A    between atoms: C_11  and  C_12
REMARK    9  A    between atoms: C_11  and  C_13
REMARK   10  A    between atoms: C_11  and  C_14
REMARK   11  A    between atoms: C_16  and  S_17
REMARK   12  A    between atoms: S_17  and  C_18
REMARK   13  A    between atoms: C_18  and  C_19
REMARK   14  A    between atoms: C_18  and  C_20
REMARK   15  A    between atoms: C_18  and  C_21
REMARK   16  A    between atoms: C_24  and  O_25
REMARK                            x       y       z     vdW  Elec       q    Type
REMARK                         _______ _______ _______ _____ _____    ______ ____
ROOT
ATOM      1  C   UNL     1      -3.394  14.030  22.123  0.00  0.00    +0.000 A 
ATOM      2  N   UNL     1      -3.368  14.956  21.148  0.00  0.00    +0.000 NA
ATOM      3  N   UNL     1      -2.246  15.140  20.425  0.00  0.00    +0.000 NA
ATOM      4  C   UNL     1      -1.150  14.393  20.653  0.00  0.00    +0.000 A 
ATOM      5  C   UNL     1      -1.194  13.221  21.483  0.00  0.00    +0.000 A 
ATOM      6  C   UNL     1      -0.232  12.176  21.662  0.00  0.00    +0.000 A 
ATOM      7  N   UNL     1      -0.341  11.225  22.627  0.00  0.00    +0.000 NA
ATOM      8  N   UNL     1      -1.430  11.145  23.400  0.00  0.00    +0.000 NA
ATOM      9  C   UNL     1      -2.409  12.024  23.196  0.00  0.00    +0.000 A 
ATOM     10  C   UNL     1      -2.370  13.084  22.271  0.00  0.00    +0.000 A 
ENDROOT
BRANCH   9  11
ATOM     11  O   UNL     1      -3.470  11.772  24.001  0.00  0.00    +0.000 OA
ATOM     12  H   UNL     1      -4.199  11.722  23.356  0.00  0.00    +0.000 HD
ENDBRANCH   9  11
BRANCH   1  13
ATOM     13  S   UNL     1      -4.768  14.273  23.236  0.00  0.00    +0.000 S 
BRANCH  13  15
ATOM     14  C   UNL     1      -5.600  12.489  21.253  0.00  0.00    +0.000 C 
ATOM     15  C   UNL     1      -6.150  13.520  22.241  0.00  0.00    +0.000 C 
ATOM     16  C   UNL     1      -6.968  14.584  21.496  0.00  0.00    +0.000 C 
ATOM     17  C   UNL     1      -7.068  12.814  23.244  0.00  0.00    +0.000 C 
ENDBRANCH  13  15
ENDBRANCH   1  13
BRANCH   4  18
ATOM     18  S   UNL     1       0.345  15.144  20.008  0.00  0.00    +0.000 S 
BRANCH  18  19
ATOM     19  C   UNL     1       1.158  16.122  21.432  0.00  0.00    +0.000 C 
ATOM     20  C   UNL     1       0.275  16.409  22.663  0.00  0.00    +0.000 C 
ATOM     21  C   UNL     1       2.309  15.214  21.910  0.00  0.00    +0.000 C 
ATOM     22  C   UNL     1       1.772  17.435  20.919  0.00  0.00    +0.000 C 
ENDBRANCH  18  19
ENDBRANCH   4  18
BRANCH   6  23
ATOM     23  S   UNL     1       1.193  11.825  20.662  0.00  0.00    +0.000 S 
BRANCH  23  24
ATOM     24  C   UNL     1       0.627  10.362  19.637  0.00  0.00    +0.000 C 
ATOM     25  C   UNL     1       1.474  10.403  18.364  0.00  0.00    +0.000 C 
ATOM     26  C   UNL     1       0.936   9.098  20.460  0.00  0.00    +0.000 C 
ATOM     27  C   UNL     1      -0.861  10.282  19.249  0.00  0.00    +0.000 C 
ENDBRANCH  23  24
ENDBRANCH   6  23
TORSDOF 7
ENDMDL
MODEL 6
REMARK VINA RESULT:      -4.6      7.392     10.284
REMARK  Name = 
REMARK  16 active torsions:
REMARK  status: ('A' for Active; 'I' for Inactive)
REMARK    1  A    between atoms: C_1  and  C_2
REMARK    2  A    between atoms: C_2  and  C_3
REMARK    3  A    between atoms: C_2  and  C_4
REMARK    4  A    between atoms: C_2  and  S_5
REMARK    5  A    between atoms: S_5  and  C_6
REMARK    6  A    between atoms: C_9  and  S_10
REMARK    7  A    between atoms: S_10  and  C_11
REMARK    8  A    between atoms: C_11  and  C_12
REMARK    9  A    between atoms: C_11  and  C_13
REMARK   10  A    between atoms: C_11  and  C_14
REMARK   11  A    between atoms: C_16  and  S_17
REMARK   12  A    between atoms: S_17  and  C_18
REMARK   13  A    between atoms: C_18  and  C_19
REMARK   14  A    between atoms: C_18  and  C_20
REMARK   15  A    between atoms: C_18  and  C_21
REMARK   16  A    between atoms: C_24  and  O_25
REMARK                            x       y       z     vdW  Elec       q    Type
REMARK                         _______ _______ _______ _____ _____    ______ ____
ROOT
ATOM      1  C   UNL     1      -3.483  14.220  22.572  0.00  0.00    +0.000 A 
ATOM      2  N   UNL     1      -3.388  15.290  21.763  0.00  0.00    +0.000 NA
ATOM      3  N   UNL     1      -2.229  15.552  21.128  0.00  0.00    +0.000 NA
ATOM      4  C   UNL     1      -1.164  14.743  21.277  0.00  0.00    +0.000 A 
ATOM      5  C   UNL     1      -1.276  13.455  21.904  0.00  0.00    +0.000 A 
ATOM      6  C   UNL     1      -0.349  12.365  21.951  0.00  0.00    +0.000 A 
ATOM      7  N   UNL     1      -0.527  11.274  22.743  0.00  0.00    +0.000 NA
ATOM      8  N   UNL     1      -1.652  11.105  23.445  0.00  0.00    +0.000 NA
ATOM      9  C   UNL     1      -2.598  12.036  23.346  0.00  0.00    +0.000 A 
ATOM     10  C   UNL     1      -2.490  13.230  22.608  0.00  0.00    +0.000 A 
ENDROOT
BRANCH   9  11
ATOM     11  O   UNL     1      -3.702  11.692  24.053  0.00  0.00    +0.000 OA
ATOM     12  H   UNL     1      -3.848  10.776  23.756  0.00  0.00    +0.000 HD
ENDBRANCH   9  11
BRANCH   1  13
ATOM     13  S   UNL     1      -4.901  14.323  23.651  0.00  0.00    +0.000 S 
BRANCH  13  15
ATOM     14  C   UNL     1      -6.861  15.033  21.791  0.00  0.00    +0.000 C 
ATOM     15  C   UNL     1      -6.256  13.810  22.482  0.00  0.00    +0.000 C 
ATOM     16  C   UNL     1      -7.354  13.005  23.193  0.00  0.00    +0.000 C 
ATOM     17  C   UNL     1      -5.598  12.911  21.429  0.00  0.00    +0.000 C 
ENDBRANCH  13  15
ENDBRANCH   1  13
BRANCH   4  18
ATOM     18  S   UNL     1       0.378  15.541  20.827  0.00  0.00    +0.000 S 
BRANCH  18  19
ATOM     19  C   UNL     1       0.460  15.599  18.920  0.00  0.00    +0.000 C 
ATOM     20  C   UNL     1      -0.106  16.863  18.244  0.00  0.00    +0.000 C 
ATOM     21  C   UNL     1       1.969  15.559  18.601  0.00  0.00    +0.000 C 
ATOM     22  C   UNL     1      -0.187  14.348  18.302  0.00  0.00    +0.000 C 
ENDBRANCH  18  19
ENDBRANCH   4  18
BRANCH   6  23
ATOM     23  S   UNL     1       1.112  12.134  20.968  0.00  0.00    +0.000 S 
BRANCH  23  24
ATOM     24  C   UNL     1       0.579  10.827  19.736  0.00  0.00    +0.000 C 
ATOM     25  C   UNL     1       1.464  11.040  18.505  0.00  0.00    +0.000 C 
ATOM     26  C   UNL     1       0.864   9.462  20.386  0.00  0.00    +0.000 C 
ATOM     27  C   UNL     1      -0.897  10.806  19.297  0.00  0.00    +0.000 C 
ENDBRANCH  23  24
ENDBRANCH   6  23
TORSDOF 7
ENDMDL
MODEL 7
REMARK VINA RESULT:      -4.5      2.417      3.712
REMARK  Name = 
REMARK  16 active torsions:
REMARK  status: ('A' for Active; 'I' for Inactive)
REMARK    1  A    between atoms: C_1  and  C_2
REMARK    2  A    between atoms: C_2  and  C_3
REMARK    3  A    between atoms: C_2  and  C_4
REMARK    4  A    between atoms: C_2  and  S_5
REMARK    5  A    between atoms: S_5  and  C_6
REMARK    6  A    between atoms: C_9  and  S_10
REMARK    7  A    between atoms: S_10  and  C_11
REMARK    8  A    between atoms: C_11  and  C_12
REMARK    9  A    between atoms: C_11  and  C_13
REMARK   10  A    between atoms: C_11  and  C_14
REMARK   11  A    between atoms: C_16  and  S_17
REMARK   12  A    between atoms: S_17  and  C_18
REMARK   13  A    between atoms: C_18  and  C_19
REMARK   14  A    between atoms: C_18  and  C_20
REMARK   15  A    between atoms: C_18  and  C_21
REMARK   16  A    between atoms: C_24  and  O_25
REMARK                            x       y       z     vdW  Elec       q    Type
REMARK                         _______ _______ _______ _____ _____    ______ ____
ROOT
ATOM      1  C   UNL     1       5.215  16.408  19.898  0.00  0.00    +0.000 A 
ATOM      2  N   UNL     1       5.665  17.297  18.994  0.00  0.00    +0.000 NA
ATOM      3  N   UNL     1       6.983  17.560  18.910  0.00  0.00    +0.000 NA
ATOM      4  C   UNL     1       7.864  16.931  19.709  0.00  0.00    +0.000 A 
ATOM      5  C   UNL     1       7.487  15.792  20.499  0.00  0.00    +0.000 A 
ATOM      6  C   UNL     1       8.296  14.852  21.214  0.00  0.00    +0.000 A 
ATOM      7  N   UNL     1       7.781  13.930  22.069  0.00  0.00    +0.000 NA
ATOM      8  N   UNL     1       6.460  13.773  22.205  0.00  0.00    +0.000 NA
ATOM      9  C   UNL     1       5.659  14.546  21.474  0.00  0.00    +0.000 A 
ATOM     10  C   UNL     1       6.087  15.571  20.609  0.00  0.00    +0.000 A 
ENDROOT
BRANCH   9  11
ATOM     11  O   UNL     1       4.357  14.223  21.665  0.00  0.00    +0.000 OA
ATOM     12  H   UNL     1       4.375  13.256  21.546  0.00  0.00    +0.000 HD
ENDBRANCH   9  11
BRANCH   1  13
ATOM     13  S   UNL     1       3.456  16.558  20.161  0.00  0.00    +0.000 S 
BRANCH  13  15
ATOM     14  C   UNL     1       2.851  16.752  17.441  0.00  0.00    +0.000 C 
ATOM     15  C   UNL     1       2.810  15.763  18.606  0.00  0.00    +0.000 C 
ATOM     16  C   UNL     1       1.387  15.216  18.788  0.00  0.00    +0.000 C 
ATOM     17  C   UNL     1       3.747  14.589  18.301  0.00  0.00    +0.000 C 
ENDBRANCH  13  15
ENDBRANCH   1  13
BRANCH   4  18
ATOM     18  S   UNL     1       9.428  17.799  19.832  0.00  0.00    +0.000 S 
BRANCH  18  19
ATOM     19  C   UNL     1      10.462  17.342  18.293  0.00  0.00    +0.000 C 
ATOM     20  C   UNL     1       9.901  16.223  17.393  0.00  0.00    +0.000 C 
ATOM     21  C   UNL     1      10.477  18.631  17.446  0.00  0.00    +0.000 C 
ATOM     22  C   UNL     1      11.913  17.013  18.681  0.00  0.00    +0.000 C 
ENDBRANCH  18  19
ENDBRANCH   4  18
BRANCH   6  23
ATOM     23  S   UNL     1      10.050  14.603  21.082  0.00  0.00    +0.000 S 
BRANCH  23  24
ATOM     24  C   UNL     1      10.173  13.142  19.914  0.00  0.00    +0.000 C 
ATOM     25  C   UNL     1      11.495  13.328  19.166  0.00  0.00    +0.000 C 
ATOM     26  C   UNL     1      10.211  11.877  20.790  0.00  0.00    +0.000 C 
ATOM     27  C   UNL     1       9.040  12.936  18.891  0.00  0.00    +0.000 C 
ENDBRANCH  23  24
ENDBRANCH   6  23
TORSDOF 7
ENDMDL
MODEL 8
REMARK VINA RESULT:      -4.5      0.256      1.443
REMARK  Name = 
REMARK  16 active torsions:
REMARK  status: ('A' for Active; 'I' for Inactive)
REMARK    1  A    between atoms: C_1  and  C_2
REMARK    2  A    between atoms: C_2  and  C_3
REMARK    3  A    between atoms: C_2  and  C_4
REMARK    4  A    between atoms: C_2  and  S_5
REMARK    5  A    between atoms: S_5  and  C_6
REMARK    6  A    between atoms: C_9  and  S_10
REMARK    7  A    between atoms: S_10  and  C_11
REMARK    8  A    between atoms: C_11  and  C_12
REMARK    9  A    between atoms: C_11  and  C_13
REMARK   10  A    between atoms: C_11  and  C_14
REMARK   11  A    between atoms: C_16  and  S_17
REMARK   12  A    between atoms: S_17  and  C_18
REMARK   13  A    between atoms: C_18  and  C_19
REMARK   14  A    between atoms: C_18  and  C_20
REMARK   15  A    between atoms: C_18  and  C_21
REMARK   16  A    between atoms: C_24  and  O_25
REMARK                            x       y       z     vdW  Elec       q    Type
REMARK                         _______ _______ _______ _____ _____    ______ ____
ROOT
ATOM      1  C   UNL     1       5.140  15.489  18.221  0.00  0.00    +0.000 A 
ATOM      2  N   UNL     1       5.817  14.430  17.743  0.00  0.00    +0.000 NA
ATOM      3  N   UNL     1       7.163  14.419  17.780  0.00  0.00    +0.000 NA
ATOM      4  C   UNL     1       7.846  15.452  18.308  0.00  0.00    +0.000 A 
ATOM      5  C   UNL     1       7.190  16.479  19.069  0.00  0.00    +0.000 A 
ATOM      6  C   UNL     1       7.739  17.509  19.899  0.00  0.00    +0.000 A 
ATOM      7  N   UNL     1       6.994  18.525  20.410  0.00  0.00    +0.000 NA
ATOM      8  N   UNL     1       5.666  18.555  20.256  0.00  0.00    +0.000 NA
ATOM      9  C   UNL     1       5.090  17.557  19.589  0.00  0.00    +0.000 A 
ATOM     10  C   UNL     1       5.773  16.494  18.968  0.00  0.00    +0.000 A 
ENDROOT
BRANCH   9  11
ATOM     11  O   UNL     1       3.741  17.687  19.580  0.00  0.00    +0.000 OA
ATOM     12  H   UNL     1       3.550  17.690  18.625  0.00  0.00    +0.000 HD
ENDBRANCH   9  11
BRANCH   1  13
ATOM     13  S   UNL     1       3.447  15.509  17.658  0.00  0.00    +0.000 S 
BRANCH  13  15
ATOM     14  C   UNL     1       1.232  14.799  19.206  0.00  0.00    +0.000 C 
ATOM     15  C   UNL     1       2.663  14.358  18.894  0.00  0.00    +0.000 C 
ATOM     16  C   UNL     1       3.483  14.262  20.189  0.00  0.00    +0.000 C 
ATOM     17  C   UNL     1       2.631  12.975  18.235  0.00  0.00    +0.000 C 
ENDBRANCH  13  15
ENDBRANCH   1  13
BRANCH   4  18
ATOM     18  S   UNL     1       9.555  15.499  17.768  0.00  0.00    +0.000 S 
BRANCH  18  19
ATOM     19  C   UNL     1      10.493  14.125  18.706  0.00  0.00    +0.000 C 
ATOM     20  C   UNL     1       9.769  13.498  19.914  0.00  0.00    +0.000 C 
ATOM     21  C   UNL     1      10.670  13.003  17.662  0.00  0.00    +0.000 C 
ATOM     22  C   UNL     1      11.891  14.602  19.130  0.00  0.00    +0.000 C 
ENDBRANCH  18  19
ENDBRANCH   4  18
BRANCH   6  23
ATOM     23  S   UNL     1       9.399  17.642  20.515  0.00  0.00    +0.000 S 
BRANCH  23  24
ATOM     24  C   UNL     1       9.283  16.819  22.195  0.00  0.00    +0.000 C 
ATOM     25  C   UNL     1       9.075  17.958  23.195  0.00  0.00    +0.000 C 
ATOM     26  C   UNL     1       8.053  15.895  22.152  0.00  0.00    +0.000 C 
ATOM     27  C   UNL     1      10.469  15.952  22.659  0.00  0.00    +0.000 C 
ENDBRANCH  23  24
ENDBRANCH   6  23
TORSDOF 7
ENDMDL
MODEL 9
REMARK VINA RESULT:      -4.5      8.098     11.448
REMARK  Name = 
REMARK  16 active torsions:
REMARK  status: ('A' for Active; 'I' for Inactive)
REMARK    1  A    between atoms: C_1  and  C_2
REMARK    2  A    between atoms: C_2  and  C_3
REMARK    3  A    between atoms: C_2  and  C_4
REMARK    4  A    between atoms: C_2  and  S_5
REMARK    5  A    between atoms: S_5  and  C_6
REMARK    6  A    between atoms: C_9  and  S_10
REMARK    7  A    between atoms: S_10  and  C_11
REMARK    8  A    between atoms: C_11  and  C_12
REMARK    9  A    between atoms: C_11  and  C_13
REMARK   10  A    between atoms: C_11  and  C_14
REMARK   11  A    between atoms: C_16  and  S_17
REMARK   12  A    between atoms: S_17  and  C_18
REMARK   13  A    between atoms: C_18  and  C_19
REMARK   14  A    between atoms: C_18  and  C_20
REMARK   15  A    between atoms: C_18  and  C_21
REMARK   16  A    between atoms: C_24  and  O_25
REMARK                            x       y       z     vdW  Elec       q    Type
REMARK                         _______ _______ _______ _____ _____    ______ ____
ROOT
ATOM      1  C   UNL     1      -1.652  13.251  20.148  0.00  0.00    +0.000 A 
ATOM      2  N   UNL     1      -2.917  12.884  19.875  0.00  0.00    +0.000 NA
ATOM      3  N   UNL     1      -3.841  12.876  20.855  0.00  0.00    +0.000 NA
ATOM      4  C   UNL     1      -3.519  13.249  22.108  0.00  0.00    +0.000 A 
ATOM      5  C   UNL     1      -2.273  13.899  22.405  0.00  0.00    +0.000 A 
ATOM      6  C   UNL     1      -1.842  14.576  23.591  0.00  0.00    +0.000 A 
ATOM      7  N   UNL     1      -0.560  14.983  23.788  0.00  0.00    +0.000 NA
ATOM      8  N   UNL     1       0.357  14.873  22.821  0.00  0.00    +0.000 NA
ATOM      9  C   UNL     1      -0.021  14.354  21.655  0.00  0.00    +0.000 A 
ATOM     10  C   UNL     1      -1.302  13.846  21.369  0.00  0.00    +0.000 A 
ENDROOT
BRANCH   9  11
ATOM     11  O   UNL     1       0.993  14.375  20.756  0.00  0.00    +0.000 OA
ATOM     12  H   UNL     1       1.436  15.214  20.978  0.00  0.00    +0.000 HD
ENDBRANCH   9  11
BRANCH   1  13
ATOM     13  S   UNL     1      -0.520  12.748  18.863  0.00  0.00    +0.000 S 
BRANCH  13  15
ATOM     14  C   UNL     1      -1.585  10.209  18.390  0.00  0.00    +0.000 C 
ATOM     15  C   UNL     1      -0.464  10.911  19.158  0.00  0.00    +0.000 C 
ATOM     16  C   UNL     1      -0.548  10.565  20.652  0.00  0.00    +0.000 C 
ATOM     17  C   UNL     1       0.889  10.430  18.623  0.00  0.00    +0.000 C 
ENDBRANCH  13  15
ENDBRANCH   1  13
BRANCH   4  18
ATOM     18  S   UNL     1      -4.687  12.649  23.329  0.00  0.00    +0.000 S 
BRANCH  18  19
ATOM     19  C   UNL     1      -6.406  13.346  22.873  0.00  0.00    +0.000 C 
ATOM     20  C   UNL     1      -7.199  12.576  21.799  0.00  0.00    +0.000 C 
ATOM     21  C   UNL     1      -7.216  13.250  24.182  0.00  0.00    +0.000 C 
ATOM     22  C   UNL     1      -6.313  14.830  22.482  0.00  0.00    +0.000 C 
ENDBRANCH  18  19
ENDBRANCH   4  18
BRANCH   6  23
ATOM     23  S   UNL     1      -2.836  15.114  24.960  0.00  0.00    +0.000 S 
BRANCH  23  24
ATOM     24  C   UNL     1      -3.309  16.860  24.468  0.00  0.00    +0.000 C 
ATOM     25  C   UNL     1      -4.725  17.068  25.008  0.00  0.00    +0.000 C 
ATOM     26  C   UNL     1      -2.311  17.802  25.165  0.00  0.00    +0.000 C 
ATOM     27  C   UNL     1      -3.283  17.221  22.970  0.00  0.00    +0.000 C 
ENDBRANCH  23  24
ENDBRANCH   6  23
TORSDOF 7
ENDMDL
