MODEL 1
REMARK VINA RESULT:      -6.5      0.000      0.000
REMARK  Name = 
REMARK  6 active torsions:
REMARK  status: ('A' for Active; 'I' for Inactive)
REMARK    1  A    between atoms: C_1  and  C_2
REMARK    2  A    between atoms: C_3  and  O_4
REMARK    3  A    between atoms: N_15  and  C_16
REMARK    4  A    between atoms: N_22  and  C_23
REMARK    5  A    between atoms: C_23  and  C_24
REMARK    6  A    between atoms: C_24  and  O_25
REMARK                            x       y       z     vdW  Elec       q    Type
REMARK                         _______ _______ _______ _____ _____    ______ ____
ROOT
ATOM      1  C   UNL     1      -5.187  11.925  17.846  0.00  0.00    +0.000 C 
ATOM      2  C   UNL     1      -3.801  11.672  18.378  0.00  0.00    +0.000 A 
ATOM      3  C   UNL     1      -2.841  10.906  17.715  0.00  0.00    +0.000 A 
ATOM      4  C   UNL     1      -1.577  10.647  18.265  0.00  0.00    +0.000 A 
ATOM      5  C   UNL     1      -0.645   9.902  17.512  0.00  0.00    +0.000 A 
ATOM      6  C   UNL     1       0.627   9.603  17.985  0.00  0.00    +0.000 A 
ATOM      7  C   UNL     1       1.000  10.053  19.236  0.00  0.00    +0.000 A 
ATOM      8  C   UNL     1       0.103  10.804  20.010  0.00  0.00    +0.000 A 
ATOM      9  C   UNL     1      -1.216  11.126  19.570  0.00  0.00    +0.000 A 
ATOM     10  C   UNL     1      -2.211  11.905  20.292  0.00  0.00    +0.000 A 
ATOM     11  C   UNL     1      -3.409  12.199  19.627  0.00  0.00    +0.000 A 
ATOM     12  S   UNL     1      -4.309  13.369  20.502  0.00  0.00    +0.000 S 
ATOM     13  C   UNL     1      -3.373  13.081  21.907  0.00  0.00    +0.000 A 
ATOM     14  N   UNL     1      -3.715  13.566  23.110  0.00  0.00    +0.000 N 
ATOM     15  N   UNL     1      -2.226  12.437  21.610  0.00  0.00    +0.000 N 
ATOM     16  H   UNL     1      -2.947  14.042  23.571  0.00  0.00    +0.000 HD
ENDROOT
BRANCH  14  17
ATOM     17  C   UNL     1      -5.015  13.804  23.497  0.00  0.00    +0.000 A 
ATOM     18  C   UNL     1      -5.888  12.751  23.821  0.00  0.00    +0.000 A 
ATOM     19  C   UNL     1      -7.245  12.981  24.051  0.00  0.00    +0.000 A 
ATOM     20  C   UNL     1      -7.746  14.277  24.000  0.00  0.00    +0.000 A 
ATOM     21  C   UNL     1      -6.882  15.339  23.770  0.00  0.00    +0.000 A 
ATOM     22  C   UNL     1      -5.514  15.108  23.533  0.00  0.00    +0.000 A 
ENDBRANCH  14  17
BRANCH   3  23
ATOM     23  O   UNL     1      -3.100  10.397  16.465  0.00  0.00    +0.000 OA
ATOM     24  H   UNL     1      -2.725   9.507  16.379  0.00  0.00    +0.000 HD
ENDBRANCH   3  23
BRANCH  15  25
ATOM     25  C   UNL     1      -1.158  12.237  22.599  0.00  0.00    +0.000 C 
BRANCH  25  26
ATOM     26  C   UNL     1      -1.294  10.863  23.262  0.00  0.00    +0.000 C 
BRANCH  26  27
ATOM     27  O   UNL     1       0.018  10.299  23.384  0.00  0.00    +0.000 OA
ATOM     28  H   UNL     1       0.031   9.499  22.821  0.00  0.00    +0.000 HD
ENDBRANCH  26  27
ENDBRANCH  25  26
ENDBRANCH  15  25
TORSDOF 5
ENDMDL
MODEL 2
REMARK VINA RESULT:      -6.4      5.276      9.890
REMARK  Name = 
REMARK  6 active torsions:
REMARK  status: ('A' for Active; 'I' for Inactive)
REMARK    1  A    between atoms: C_1  and  C_2
REMARK    2  A    between atoms: C_3  and  O_4
REMARK    3  A    between atoms: N_15  and  C_16
REMARK    4  A    between atoms: N_22  and  C_23
REMARK    5  A    between atoms: C_23  and  C_24
REMARK    6  A    between atoms: C_24  and  O_25
REMARK                            x       y       z     vdW  Elec       q    Type
REMARK                         _______ _______ _______ _____ _____    ______ ____
ROOT
ATOM      1  C   UNL     1       2.371  11.207  17.558  0.00  0.00    +0.000 C 
ATOM      2  C   UNL     1       1.759  10.480  18.727  0.00  0.00    +0.000 A 
ATOM      3  C   UNL     1       1.013  11.104  19.727  0.00  0.00    +0.000 A 
ATOM      4  C   UNL     1       0.502  10.404  20.830  0.00  0.00    +0.000 A 
ATOM      5  C   UNL     1      -0.282  11.097  21.776  0.00  0.00    +0.000 A 
ATOM      6  C   UNL     1      -0.825  10.477  22.894  0.00  0.00    +0.000 A 
ATOM      7  C   UNL     1      -0.596   9.129  23.090  0.00  0.00    +0.000 A 
ATOM      8  C   UNL     1       0.171   8.404  22.166  0.00  0.00    +0.000 A 
ATOM      9  C   UNL     1       0.757   9.002  21.009  0.00  0.00    +0.000 A 
ATOM     10  C   UNL     1       1.555   8.334  19.992  0.00  0.00    +0.000 A 
ATOM     11  C   UNL     1       1.941   9.088  18.876  0.00  0.00    +0.000 A 
ATOM     12  S   UNL     1       2.593   8.068  17.659  0.00  0.00    +0.000 S 
ATOM     13  C   UNL     1       2.800   6.801  18.792  0.00  0.00    +0.000 A 
ATOM     14  N   UNL     1       3.508   5.696  18.512  0.00  0.00    +0.000 N 
ATOM     15  N   UNL     1       2.069   7.012  19.905  0.00  0.00    +0.000 N 
ATOM     16  H   UNL     1       3.006   4.844  18.736  0.00  0.00    +0.000 HD
ENDROOT
BRANCH  14  17
ATOM     17  C   UNL     1       4.568   5.670  17.634  0.00  0.00    +0.000 A 
ATOM     18  C   UNL     1       4.521   4.917  16.448  0.00  0.00    +0.000 A 
ATOM     19  C   UNL     1       5.651   4.760  15.644  0.00  0.00    +0.000 A 
ATOM     20  C   UNL     1       6.840   5.388  15.992  0.00  0.00    +0.000 A 
ATOM     21  C   UNL     1       6.883   6.209  17.112  0.00  0.00    +0.000 A 
ATOM     22  C   UNL     1       5.745   6.365  17.926  0.00  0.00    +0.000 A 
ENDBRANCH  14  17
BRANCH   3  23
ATOM     23  O   UNL     1       0.727  12.445  19.646  0.00  0.00    +0.000 OA
ATOM     24  H   UNL     1       1.366  12.959  20.163  0.00  0.00    +0.000 HD
ENDBRANCH   3  23
BRANCH  15  25
ATOM     25  C   UNL     1       1.916   5.991  20.951  0.00  0.00    +0.000 C 
BRANCH  25  26
ATOM     26  C   UNL     1       1.087   4.814  20.431  0.00  0.00    +0.000 C 
BRANCH  26  27
ATOM     27  O   UNL     1       1.959   3.683  20.298  0.00  0.00    +0.000 OA
ATOM     28  H   UNL     1       2.867   4.037  20.228  0.00  0.00    +0.000 HD
ENDBRANCH  26  27
ENDBRANCH  25  26
ENDBRANCH  15  25
TORSDOF 5
ENDMDL
MODEL 3
REMARK VINA RESULT:      -6.4      0.408      1.044
REMARK  Name = 
REMARK  6 active torsions:
REMARK  status: ('A' for Active; 'I' for Inactive)
REMARK    1  A    between atoms: C_1  and  C_2
REMARK    2  A    between atoms: C_3  and  O_4
REMARK    3  A    between atoms: N_15  and  C_16
REMARK    4  A    between atoms: N_22  and  C_23
REMARK    5  A    between atoms: C_23  and  C_24
REMARK    6  A    between atoms: C_24  and  O_25
REMARK                            x       y       z     vdW  Elec       q    Type
REMARK                         _______ _______ _______ _____ _____    ______ ____
ROOT
ATOM      1  C   UNL     1      -4.671  11.821  17.593  0.00  0.00    +0.000 C 
ATOM      2  C   UNL     1      -3.330  11.539  18.215  0.00  0.00    +0.000 A 
ATOM      3  C   UNL     1      -2.341  10.760  17.614  0.00  0.00    +0.000 A 
ATOM      4  C   UNL     1      -1.122  10.475  18.247  0.00  0.00    +0.000 A 
ATOM      5  C   UNL     1      -0.153   9.717  17.554  0.00  0.00    +0.000 A 
ATOM      6  C   UNL     1       1.077   9.393  18.110  0.00  0.00    +0.000 A 
ATOM      7  C   UNL     1       1.372   9.828  19.387  0.00  0.00    +0.000 A 
ATOM      8  C   UNL     1       0.438  10.591  20.103  0.00  0.00    +0.000 A 
ATOM      9  C   UNL     1      -0.842  10.939  19.577  0.00  0.00    +0.000 A 
ATOM     10  C   UNL     1      -1.870  11.732  20.235  0.00  0.00    +0.000 A 
ATOM     11  C   UNL     1      -3.014  12.052  19.492  0.00  0.00    +0.000 A 
ATOM     12  S   UNL     1      -3.951  13.233  20.312  0.00  0.00    +0.000 S 
ATOM     13  C   UNL     1      -3.118  12.920  21.775  0.00  0.00    +0.000 A 
ATOM     14  N   UNL     1      -3.532  13.404  22.956  0.00  0.00    +0.000 N 
ATOM     15  N   UNL     1      -1.965  12.257  21.552  0.00  0.00    +0.000 N 
ATOM     16  H   UNL     1      -2.789  13.864  23.471  0.00  0.00    +0.000 HD
ENDROOT
BRANCH  14  17
ATOM     17  C   UNL     1      -4.851  13.663  23.255  0.00  0.00    +0.000 A 
ATOM     18  C   UNL     1      -5.343  14.978  23.327  0.00  0.00    +0.000 A 
ATOM     19  C   UNL     1      -6.633  15.244  23.790  0.00  0.00    +0.000 A 
ATOM     20  C   UNL     1      -7.469  14.194  24.151  0.00  0.00    +0.000 A 
ATOM     21  C   UNL     1      -7.032  12.884  24.000  0.00  0.00    +0.000 A 
ATOM     22  C   UNL     1      -5.730  12.615  23.539  0.00  0.00    +0.000 A 
ENDBRANCH  14  17
BRANCH   3  23
ATOM     23  O   UNL     1      -2.522  10.263  16.346  0.00  0.00    +0.000 OA
ATOM     24  H   UNL     1      -3.451  10.022  16.208  0.00  0.00    +0.000 HD
ENDBRANCH   3  23
BRANCH  15  25
ATOM     25  C   UNL     1      -0.970  12.031  22.611  0.00  0.00    +0.000 C 
BRANCH  25  26
ATOM     26  C   UNL     1      -1.204  10.676  23.283  0.00  0.00    +0.000 C 
BRANCH  26  27
ATOM     27  O   UNL     1       0.076  10.076  23.525  0.00  0.00    +0.000 OA
ATOM     28  H   UNL     1       0.156   9.328  22.899  0.00  0.00    +0.000 HD
ENDBRANCH  26  27
ENDBRANCH  25  26
ENDBRANCH  15  25
TORSDOF 5
ENDMDL
MODEL 4
REMARK VINA RESULT:      -6.2      2.715      4.189
REMARK  Name = 
REMARK  6 active torsions:
REMARK  status: ('A' for Active; 'I' for Inactive)
REMARK    1  A    between atoms: C_1  and  C_2
REMARK    2  A    between atoms: C_3  and  O_4
REMARK    3  A    between atoms: N_15  and  C_16
REMARK    4  A    between atoms: N_22  and  C_23
REMARK    5  A    between atoms: C_23  and  C_24
REMARK    6  A    between atoms: C_24  and  O_25
REMARK                            x       y       z     vdW  Elec       q    Type
REMARK                         _______ _______ _______ _____ _____    ______ ____
ROOT
ATOM      1  C   UNL     1       0.915  11.206  20.412  0.00  0.00    +0.000 C 
ATOM      2  C   UNL     1      -0.426  11.247  19.727  0.00  0.00    +0.000 A 
ATOM      3  C   UNL     1      -0.670  10.711  18.463  0.00  0.00    +0.000 A 
ATOM      4  C   UNL     1      -1.919  10.814  17.832  0.00  0.00    +0.000 A 
ATOM      5  C   UNL     1      -2.100  10.206  16.572  0.00  0.00    +0.000 A 
ATOM      6  C   UNL     1      -3.305  10.261  15.883  0.00  0.00    +0.000 A 
ATOM      7  C   UNL     1      -4.372  10.931  16.450  0.00  0.00    +0.000 A 
ATOM      8  C   UNL     1      -4.232  11.540  17.706  0.00  0.00    +0.000 A 
ATOM      9  C   UNL     1      -3.011  11.518  18.445  0.00  0.00    +0.000 A 
ATOM     10  C   UNL     1      -2.772  12.108  19.753  0.00  0.00    +0.000 A 
ATOM     11  C   UNL     1      -1.527  11.873  20.351  0.00  0.00    +0.000 A 
ATOM     12  S   UNL     1      -1.546  12.372  21.992  0.00  0.00    +0.000 S 
ATOM     13  C   UNL     1      -2.960  13.299  21.725  0.00  0.00    +0.000 A 
ATOM     14  N   UNL     1      -3.427  14.175  22.627  0.00  0.00    +0.000 N 
ATOM     15  N   UNL     1      -3.577  12.936  20.582  0.00  0.00    +0.000 N 
ATOM     16  H   UNL     1      -4.415  14.049  22.819  0.00  0.00    +0.000 HD
ENDROOT
BRANCH  14  17
ATOM     17  C   UNL     1      -2.625  14.854  23.518  0.00  0.00    +0.000 A 
ATOM     18  C   UNL     1      -2.692  14.610  24.900  0.00  0.00    +0.000 A 
ATOM     19  C   UNL     1      -2.003  15.410  25.812  0.00  0.00    +0.000 A 
ATOM     20  C   UNL     1      -1.200  16.448  25.353  0.00  0.00    +0.000 A 
ATOM     21  C   UNL     1      -1.050  16.648  23.987  0.00  0.00    +0.000 A 
ATOM     22  C   UNL     1      -1.749  15.845  23.067  0.00  0.00    +0.000 A 
ENDBRANCH  14  17
BRANCH   3  23
ATOM     23  O   UNL     1       0.317  10.028  17.794  0.00  0.00    +0.000 OA
ATOM     24  H   UNL     1      -0.072   9.432  17.135  0.00  0.00    +0.000 HD
ENDBRANCH   3  23
BRANCH  15  25
ATOM     25  C   UNL     1      -4.908  13.438  20.213  0.00  0.00    +0.000 C 
BRANCH  25  26
ATOM     26  C   UNL     1      -5.990  12.439  20.629  0.00  0.00    +0.000 C 
BRANCH  26  27
ATOM     27  O   UNL     1      -5.924  12.281  22.053  0.00  0.00    +0.000 OA
ATOM     28  H   UNL     1      -6.767  12.622  22.411  0.00  0.00    +0.000 HD
ENDBRANCH  26  27
ENDBRANCH  25  26
ENDBRANCH  15  25
TORSDOF 5
ENDMDL
MODEL 5
REMARK VINA RESULT:      -6.0      8.765     13.088
REMARK  Name = 
REMARK  6 active torsions:
REMARK  status: ('A' for Active; 'I' for Inactive)
REMARK    1  A    between atoms: C_1  and  C_2
REMARK    2  A    between atoms: C_3  and  O_4
REMARK    3  A    between atoms: N_15  and  C_16
REMARK    4  A    between atoms: N_22  and  C_23
REMARK    5  A    between atoms: C_23  and  C_24
REMARK    6  A    between atoms: C_24  and  O_25
REMARK                            x       y       z     vdW  Elec       q    Type
REMARK                         _______ _______ _______ _____ _____    ______ ____
ROOT
ATOM      1  C   UNL     1       3.403   1.436  17.915  0.00  0.00    +0.000 C 
ATOM      2  C   UNL     1       3.283   2.881  18.322  0.00  0.00    +0.000 A 
ATOM      3  C   UNL     1       2.430   3.339  19.326  0.00  0.00    +0.000 A 
ATOM      4  C   UNL     1       2.305   4.699  19.643  0.00  0.00    +0.000 A 
ATOM      5  C   UNL     1       1.454   5.079  20.703  0.00  0.00    +0.000 A 
ATOM      6  C   UNL     1       1.277   6.404  21.080  0.00  0.00    +0.000 A 
ATOM      7  C   UNL     1       1.960   7.392  20.398  0.00  0.00    +0.000 A 
ATOM      8  C   UNL     1       2.822   7.053  19.345  0.00  0.00    +0.000 A 
ATOM      9  C   UNL     1       3.027   5.706  18.916  0.00  0.00    +0.000 A 
ATOM     10  C   UNL     1       3.904   5.255  17.846  0.00  0.00    +0.000 A 
ATOM     11  C   UNL     1       4.042   3.873  17.664  0.00  0.00    +0.000 A 
ATOM     12  S   UNL     1       5.334   3.537  16.585  0.00  0.00    +0.000 S 
ATOM     13  C   UNL     1       5.334   5.157  16.033  0.00  0.00    +0.000 A 
ATOM     14  N   UNL     1       6.027   5.549  14.953  0.00  0.00    +0.000 N 
ATOM     15  N   UNL     1       4.671   5.967  16.885  0.00  0.00    +0.000 N 
ATOM     16  H   UNL     1       6.597   6.368  15.132  0.00  0.00    +0.000 HD
ENDROOT
BRANCH  14  17
ATOM     17  C   UNL     1       6.303   4.726  13.884  0.00  0.00    +0.000 A 
ATOM     18  C   UNL     1       7.496   4.850  13.152  0.00  0.00    +0.000 A 
ATOM     19  C   UNL     1       7.700   4.131  11.973  0.00  0.00    +0.000 A 
ATOM     20  C   UNL     1       6.729   3.243  11.527  0.00  0.00    +0.000 A 
ATOM     21  C   UNL     1       5.582   3.041  12.284  0.00  0.00    +0.000 A 
ATOM     22  C   UNL     1       5.373   3.769  13.470  0.00  0.00    +0.000 A 
ENDBRANCH  14  17
BRANCH   3  23
ATOM     23  O   UNL     1       1.691   2.450  20.069  0.00  0.00    +0.000 OA
ATOM     24  H   UNL     1       1.369   2.874  20.880  0.00  0.00    +0.000 HD
ENDBRANCH   3  23
BRANCH  15  25
ATOM     25  C   UNL     1       4.683   7.430  16.748  0.00  0.00    +0.000 C 
BRANCH  25  26
ATOM     26  C   UNL     1       5.868   8.028  17.511  0.00  0.00    +0.000 C 
BRANCH  26  27
ATOM     27  O   UNL     1       7.069   7.667  16.816  0.00  0.00    +0.000 OA
ATOM     28  H   UNL     1       7.056   8.152  15.966  0.00  0.00    +0.000 HD
ENDBRANCH  26  27
ENDBRANCH  25  26
ENDBRANCH  15  25
TORSDOF 5
ENDMDL
MODEL 6
REMARK VINA RESULT:      -6.0      0.896      1.042
REMARK  Name = 
REMARK  6 active torsions:
REMARK  status: ('A' for Active; 'I' for Inactive)
REMARK    1  A    between atoms: C_1  and  C_2
REMARK    2  A    between atoms: C_3  and  O_4
REMARK    3  A    between atoms: N_15  and  C_16
REMARK    4  A    between atoms: N_22  and  C_23
REMARK    5  A    between atoms: C_23  and  C_24
REMARK    6  A    between atoms: C_24  and  O_25
REMARK                            x       y       z     vdW  Elec       q    Type
REMARK                         _______ _______ _______ _____ _____    ______ ____
ROOT
ATOM      1  C   UNL     1      -5.294  11.761  17.951  0.00  0.00    +0.000 C 
ATOM      2  C   UNL     1      -3.892  11.621  18.482  0.00  0.00    +0.000 A 
ATOM      3  C   UNL     1      -2.899  10.858  17.865  0.00  0.00    +0.000 A 
ATOM      4  C   UNL     1      -1.618  10.707  18.416  0.00  0.00    +0.000 A 
ATOM      5  C   UNL     1      -0.655   9.957  17.710  0.00  0.00    +0.000 A 
ATOM      6  C   UNL     1       0.635   9.762  18.186  0.00  0.00    +0.000 A 
ATOM      7  C   UNL     1       0.996  10.324  19.395  0.00  0.00    +0.000 A 
ATOM      8  C   UNL     1       0.068  11.083  20.122  0.00  0.00    +0.000 A 
ATOM      9  C   UNL     1      -1.271  11.302  19.676  0.00  0.00    +0.000 A 
ATOM     10  C   UNL     1      -2.299  12.081  20.351  0.00  0.00    +0.000 A 
ATOM     11  C   UNL     1      -3.516  12.261  19.683  0.00  0.00    +0.000 A 
ATOM     12  S   UNL     1      -4.469  13.445  20.479  0.00  0.00    +0.000 S 
ATOM     13  C   UNL     1      -3.506  13.314  21.889  0.00  0.00    +0.000 A 
ATOM     14  N   UNL     1      -3.861  13.870  23.056  0.00  0.00    +0.000 N 
ATOM     15  N   UNL     1      -2.329  12.709  21.625  0.00  0.00    +0.000 N 
ATOM     16  H   UNL     1      -3.115  14.419  23.470  0.00  0.00    +0.000 HD
ENDROOT
BRANCH  14  17
ATOM     17  C   UNL     1      -5.169  14.068  23.441  0.00  0.00    +0.000 A 
ATOM     18  C   UNL     1      -5.982  13.000  23.856  0.00  0.00    +0.000 A 
ATOM     19  C   UNL     1      -7.347  13.175  24.087  0.00  0.00    +0.000 A 
ATOM     20  C   UNL     1      -7.916  14.435  23.945  0.00  0.00    +0.000 A 
ATOM     21  C   UNL     1      -7.112  15.521  23.624  0.00  0.00    +0.000 A 
ATOM     22  C   UNL     1      -5.736  15.344  23.386  0.00  0.00    +0.000 A 
ENDBRANCH  14  17
BRANCH   3  23
ATOM     23  O   UNL     1      -3.142  10.243  16.661  0.00  0.00    +0.000 OA
ATOM     24  H   UNL     1      -2.481  10.512  16.005  0.00  0.00    +0.000 HD
ENDBRANCH   3  23
BRANCH  15  25
ATOM     25  C   UNL     1      -1.242  12.641  22.613  0.00  0.00    +0.000 C 
BRANCH  25  26
ATOM     26  C   UNL     1      -0.483  13.969  22.664  0.00  0.00    +0.000 C 
BRANCH  26  27
ATOM     27  O   UNL     1       0.743  13.806  21.938  0.00  0.00    +0.000 OA
ATOM     28  H   UNL     1       1.352  13.316  22.526  0.00  0.00    +0.000 HD
ENDBRANCH  26  27
ENDBRANCH  25  26
ENDBRANCH  15  25
TORSDOF 5
ENDMDL
MODEL 7
REMARK VINA RESULT:      -5.9      2.955      4.940
REMARK  Name = 
REMARK  6 active torsions:
REMARK  status: ('A' for Active; 'I' for Inactive)
REMARK    1  A    between atoms: C_1  and  C_2
REMARK    2  A    between atoms: C_3  and  O_4
REMARK    3  A    between atoms: N_15  and  C_16
REMARK    4  A    between atoms: N_22  and  C_23
REMARK    5  A    between atoms: C_23  and  C_24
REMARK    6  A    between atoms: C_24  and  O_25
REMARK                            x       y       z     vdW  Elec       q    Type
REMARK                         _______ _______ _______ _____ _____    ______ ____
ROOT
ATOM      1  C   UNL     1      -1.119  13.276  20.031  0.00  0.00    +0.000 C 
ATOM      2  C   UNL     1      -2.567  12.907  20.216  0.00  0.00    +0.000 A 
ATOM      3  C   UNL     1      -3.351  12.313  19.226  0.00  0.00    +0.000 A 
ATOM      4  C   UNL     1      -4.712  12.030  19.416  0.00  0.00    +0.000 A 
ATOM      5  C   UNL     1      -5.427  11.387  18.383  0.00  0.00    +0.000 A 
ATOM      6  C   UNL     1      -6.775  11.071  18.493  0.00  0.00    +0.000 A 
ATOM      7  C   UNL     1      -7.446  11.393  19.656  0.00  0.00    +0.000 A 
ATOM      8  C   UNL     1      -6.767  12.025  20.707  0.00  0.00    +0.000 A 
ATOM      9  C   UNL     1      -5.386  12.377  20.636  0.00  0.00    +0.000 A 
ATOM     10  C   UNL     1      -4.594  13.022  21.673  0.00  0.00    +0.000 A 
ATOM     11  C   UNL     1      -3.222  13.177  21.437  0.00  0.00    +0.000 A 
ATOM     12  S   UNL     1      -2.417  13.660  22.873  0.00  0.00    +0.000 S 
ATOM     13  C   UNL     1      -3.904  14.116  23.588  0.00  0.00    +0.000 A 
ATOM     14  N   UNL     1      -3.967  14.818  24.730  0.00  0.00    +0.000 N 
ATOM     15  N   UNL     1      -4.952  13.575  22.932  0.00  0.00    +0.000 N 
ATOM     16  H   UNL     1      -4.595  14.401  25.409  0.00  0.00    +0.000 HD
ENDROOT
BRANCH  14  17
ATOM     17  C   UNL     1      -3.001  15.713  25.131  0.00  0.00    +0.000 A 
ATOM     18  C   UNL     1      -1.901  15.308  25.905  0.00  0.00    +0.000 A 
ATOM     19  C   UNL     1      -1.014  16.239  26.448  0.00  0.00    +0.000 A 
ATOM     20  C   UNL     1      -1.191  17.594  26.190  0.00  0.00    +0.000 A 
ATOM     21  C   UNL     1      -2.219  18.006  25.353  0.00  0.00    +0.000 A 
ATOM     22  C   UNL     1      -3.116  17.068  24.810  0.00  0.00    +0.000 A 
ENDBRANCH  14  17
BRANCH   3  23
ATOM     23  O   UNL     1      -2.796  11.954  18.022  0.00  0.00    +0.000 OA
ATOM     24  H   UNL     1      -1.877  12.259  17.969  0.00  0.00    +0.000 HD
ENDBRANCH   3  23
BRANCH  15  25
ATOM     25  C   UNL     1      -6.326  13.651  23.448  0.00  0.00    +0.000 C 
BRANCH  25  26
ATOM     26  C   UNL     1      -6.665  12.393  24.252  0.00  0.00    +0.000 C 
BRANCH  26  27
ATOM     27  O   UNL     1      -5.488  11.996  24.969  0.00  0.00    +0.000 OA
ATOM     28  H   UNL     1      -5.631  11.069  25.248  0.00  0.00    +0.000 HD
ENDBRANCH  26  27
ENDBRANCH  25  26
ENDBRANCH  15  25
TORSDOF 5
ENDMDL
MODEL 8
REMARK VINA RESULT:      -5.8      3.135      5.179
REMARK  Name = 
REMARK  6 active torsions:
REMARK  status: ('A' for Active; 'I' for Inactive)
REMARK    1  A    between atoms: C_1  and  C_2
REMARK    2  A    between atoms: C_3  and  O_4
REMARK    3  A    between atoms: N_15  and  C_16
REMARK    4  A    between atoms: N_22  and  C_23
REMARK    5  A    between atoms: C_23  and  C_24
REMARK    6  A    between atoms: C_24  and  O_25
REMARK                            x       y       z     vdW  Elec       q    Type
REMARK                         _______ _______ _______ _____ _____    ______ ____
ROOT
ATOM      1  C   UNL     1      -1.017  13.108  20.322  0.00  0.00    +0.000 C 
ATOM      2  C   UNL     1      -2.505  12.876  20.326  0.00  0.00    +0.000 A 
ATOM      3  C   UNL     1      -3.212  12.340  19.250  0.00  0.00    +0.000 A 
ATOM      4  C   UNL     1      -4.606  12.187  19.269  0.00  0.00    +0.000 A 
ATOM      5  C   UNL     1      -5.243  11.594  18.158  0.00  0.00    +0.000 A 
ATOM      6  C   UNL     1      -6.618  11.406  18.100  0.00  0.00    +0.000 A 
ATOM      7  C   UNL     1      -7.396  11.808  19.168  0.00  0.00    +0.000 A 
ATOM      8  C   UNL     1      -6.797  12.393  20.293  0.00  0.00    +0.000 A 
ATOM      9  C   UNL     1      -5.391  12.615  20.393  0.00  0.00    +0.000 A 
ATOM     10  C   UNL     1      -4.678  13.202  21.518  0.00  0.00    +0.000 A 
ATOM     11  C   UNL     1      -3.279  13.226  21.455  0.00  0.00    +0.000 A 
ATOM     12  S   UNL     1      -2.616  13.658  22.977  0.00  0.00    +0.000 S 
ATOM     13  C   UNL     1      -4.132  14.261  23.498  0.00  0.00    +0.000 A 
ATOM     14  N   UNL     1      -4.271  14.985  24.619  0.00  0.00    +0.000 N 
ATOM     15  N   UNL     1      -5.135  13.807  22.719  0.00  0.00    +0.000 N 
ATOM     16  H   UNL     1      -5.014  14.639  25.217  0.00  0.00    +0.000 HD
ENDROOT
BRANCH  14  17
ATOM     17  C   UNL     1      -3.282  15.794  25.133  0.00  0.00    +0.000 A 
ATOM     18  C   UNL     1      -3.251  17.174  24.867  0.00  0.00    +0.000 A 
ATOM     19  C   UNL     1      -2.164  17.961  25.249  0.00  0.00    +0.000 A 
ATOM     20  C   UNL     1      -1.104  17.387  25.941  0.00  0.00    +0.000 A 
ATOM     21  C   UNL     1      -1.158  16.044  26.292  0.00  0.00    +0.000 A 
ATOM     22  C   UNL     1      -2.251  15.249  25.903  0.00  0.00    +0.000 A 
ENDBRANCH  14  17
BRANCH   3  23
ATOM     23  O   UNL     1      -2.547  11.911  18.127  0.00  0.00    +0.000 OA
ATOM     24  H   UNL     1      -3.156  11.448  17.530  0.00  0.00    +0.000 HD
ENDBRANCH   3  23
BRANCH  15  25
ATOM     25  C   UNL     1      -6.550  14.018  23.058  0.00  0.00    +0.000 C 
BRANCH  25  26
ATOM     26  C   UNL     1      -7.051  12.900  23.976  0.00  0.00    +0.000 C 
BRANCH  26  27
ATOM     27  O   UNL     1      -7.916  13.487  24.958  0.00  0.00    +0.000 OA
ATOM     28  H   UNL     1      -7.861  12.919  25.752  0.00  0.00    +0.000 HD
ENDBRANCH  26  27
ENDBRANCH  25  26
ENDBRANCH  15  25
TORSDOF 5
ENDMDL
MODEL 9
REMARK VINA RESULT:      -5.7      2.985      3.530
REMARK  Name = 
REMARK  6 active torsions:
REMARK  status: ('A' for Active; 'I' for Inactive)
REMARK    1  A    between atoms: C_1  and  C_2
REMARK    2  A    between atoms: C_3  and  O_4
REMARK    3  A    between atoms: N_15  and  C_16
REMARK    4  A    between atoms: N_22  and  C_23
REMARK    5  A    between atoms: C_23  and  C_24
REMARK    6  A    between atoms: C_24  and  O_25
REMARK                            x       y       z     vdW  Elec       q    Type
REMARK                         _______ _______ _______ _____ _____    ______ ____
ROOT
ATOM      1  C   UNL     1       0.937  14.747  18.926  0.00  0.00    +0.000 C 
ATOM      2  C   UNL     1       1.019  13.272  19.219  0.00  0.00    +0.000 A 
ATOM      3  C   UNL     1       1.613  12.341  18.366  0.00  0.00    +0.000 A 
ATOM      4  C   UNL     1       1.625  10.967  18.646  0.00  0.00    +0.000 A 
ATOM      5  C   UNL     1       2.286  10.093  17.756  0.00  0.00    +0.000 A 
ATOM      6  C   UNL     1       2.343   8.721  17.962  0.00  0.00    +0.000 A 
ATOM      7  C   UNL     1       1.736   8.185  19.080  0.00  0.00    +0.000 A 
ATOM      8  C   UNL     1       1.077   9.022  19.992  0.00  0.00    +0.000 A 
ATOM      9  C   UNL     1       0.983  10.436  19.816  0.00  0.00    +0.000 A 
ATOM     10  C   UNL     1       0.334  11.385  20.708  0.00  0.00    +0.000 A 
ATOM     11  C   UNL     1       0.456  12.746  20.402  0.00  0.00    +0.000 A 
ATOM     12  S   UNL     1      -0.096  13.707  21.713  0.00  0.00    +0.000 S 
ATOM     13  C   UNL     1      -0.905  12.363  22.396  0.00  0.00    +0.000 A 
ATOM     14  N   UNL     1      -1.774  12.486  23.411  0.00  0.00    +0.000 N 
ATOM     15  N   UNL     1      -0.459  11.202  21.873  0.00  0.00    +0.000 N 
ATOM     16  H   UNL     1      -1.581  11.842  24.170  0.00  0.00    +0.000 HD
ENDROOT
BRANCH  14  17
ATOM     17  C   UNL     1      -2.540  13.610  23.628  0.00  0.00    +0.000 A 
ATOM     18  C   UNL     1      -2.174  14.575  24.582  0.00  0.00    +0.000 A 
ATOM     19  C   UNL     1      -3.032  15.624  24.917  0.00  0.00    +0.000 A 
ATOM     20  C   UNL     1      -4.256  15.749  24.272  0.00  0.00    +0.000 A 
ATOM     21  C   UNL     1      -4.596  14.858  23.262  0.00  0.00    +0.000 A 
ATOM     22  C   UNL     1      -3.735  13.797  22.927  0.00  0.00    +0.000 A 
ENDBRANCH  14  17
BRANCH   3  23
ATOM     23  O   UNL     1       2.243  12.754  17.217  0.00  0.00    +0.000 OA
ATOM     24  H   UNL     1       2.625  11.995  16.750  0.00  0.00    +0.000 HD
ENDBRANCH   3  23
BRANCH  15  25
ATOM     25  C   UNL     1      -0.849   9.894  22.417  0.00  0.00    +0.000 C 
BRANCH  25  26
ATOM     26  C   UNL     1      -0.004   9.554  23.648  0.00  0.00    +0.000 C 
BRANCH  26  27
ATOM     27  O   UNL     1       1.377   9.611  23.266  0.00  0.00    +0.000 OA
ATOM     28  H   UNL     1       1.397   9.587  22.289  0.00  0.00    +0.000 HD
ENDBRANCH  26  27
ENDBRANCH  25  26
ENDBRANCH  15  25
TORSDOF 5
ENDMDL
