MODEL 1
REMARK VINA RESULT:      -7.1      0.000      0.000
REMARK  Name = 
REMARK  5 active torsions:
REMARK  status: ('A' for Active; 'I' for Inactive)
REMARK    1  A    between atoms: N_2  and  C_4
REMARK    2  A    between atoms: C_7  and  S_8
REMARK    3  A    between atoms: S_8  and  C_9
REMARK    4  A    between atoms: C_10  and  O_11
REMARK    5  A    between atoms: C_14  and  O_15
REMARK                            x       y       z     vdW  Elec       q    Type
REMARK                         _______ _______ _______ _____ _____    ______ ____
ROOT
ATOM      1  C   UNL     1       2.906   3.235  18.686  0.00  0.00    +0.000 A 
ATOM      2  C   UNL     1       1.625   3.800  18.553  0.00  0.00    +0.000 A 
ATOM      3  C   UNL     1       0.746   3.889  19.629  0.00  0.00    +0.000 A 
ATOM      4  C   UNL     1       1.124   3.396  20.874  0.00  0.00    +0.000 A 
ATOM      5  C   UNL     1       2.381   2.813  21.028  0.00  0.00    +0.000 A 
ATOM      6  C   UNL     1       3.276   2.724  19.944  0.00  0.00    +0.000 A 
ATOM      7 CL   UNL     1       4.807   1.944  20.196  0.00  0.00    +0.000 Cl
ENDROOT
BRANCH   2   8
ATOM      8  O   UNL     1       1.163   4.272  17.351  0.00  0.00    +0.000 OA
ATOM      9  H   UNL     1       0.789   3.507  16.874  0.00  0.00    +0.000 HD
ENDBRANCH   2   8
BRANCH   5  10
ATOM     10  O   UNL     1       2.739   2.313  22.252  0.00  0.00    +0.000 OA
ATOM     11  H   UNL     1       2.876   3.043  22.877  0.00  0.00    +0.000 HD
ENDBRANCH   5  10
BRANCH   1  12
ATOM     12  S   UNL     1       3.945   3.133  17.221  0.00  0.00    +0.000 S 
BRANCH  12  16
ATOM     13  C   UNL     1       6.837   6.652  17.757  0.00  0.00    +0.000 A 
ATOM     14  C   UNL     1       7.168   5.390  18.265  0.00  0.00    +0.000 A 
ATOM     15  C   UNL     1       6.273   4.328  18.107  0.00  0.00    +0.000 A 
ATOM     16  C   UNL     1       5.043   4.518  17.466  0.00  0.00    +0.000 A 
ATOM     17  C   UNL     1       4.723   5.782  16.955  0.00  0.00    +0.000 A 
ATOM     18  C   UNL     1       5.617   6.852  17.099  0.00  0.00    +0.000 A 
BRANCH  13  20
ATOM     19  O   UNL     1       8.623   7.693  18.812  0.00  0.00    +0.000 OA
ATOM     20  N   UNL     1       7.780   7.768  17.906  0.00  0.00    +0.000 N 
ATOM     21  O   UNL     1       7.679   8.717  17.117  0.00  0.00    +0.000 OA
ENDBRANCH  13  20
ENDBRANCH  12  16
ENDBRANCH   1  12
TORSDOF 5
ENDMDL
MODEL 2
REMARK VINA RESULT:      -7.0      0.212      1.112
REMARK  Name = 
REMARK  5 active torsions:
REMARK  status: ('A' for Active; 'I' for Inactive)
REMARK    1  A    between atoms: N_2  and  C_4
REMARK    2  A    between atoms: C_7  and  S_8
REMARK    3  A    between atoms: S_8  and  C_9
REMARK    4  A    between atoms: C_10  and  O_11
REMARK    5  A    between atoms: C_14  and  O_15
REMARK                            x       y       z     vdW  Elec       q    Type
REMARK                         _______ _______ _______ _____ _____    ______ ____
ROOT
ATOM      1  C   UNL     1       2.861   3.213  18.611  0.00  0.00    +0.000 A 
ATOM      2  C   UNL     1       1.598   3.824  18.516  0.00  0.00    +0.000 A 
ATOM      3  C   UNL     1       0.767   3.970  19.625  0.00  0.00    +0.000 A 
ATOM      4  C   UNL     1       1.177   3.488  20.864  0.00  0.00    +0.000 A 
ATOM      5  C   UNL     1       2.416   2.860  20.980  0.00  0.00    +0.000 A 
ATOM      6  C   UNL     1       3.262   2.714  19.864  0.00  0.00    +0.000 A 
ATOM      7 CL   UNL     1       4.772   1.881  20.073  0.00  0.00    +0.000 Cl
ENDROOT
BRANCH   2   8
ATOM      8  O   UNL     1       1.107   4.289  17.324  0.00  0.00    +0.000 OA
ATOM      9  H   UNL     1       1.132   5.264  17.371  0.00  0.00    +0.000 HD
ENDBRANCH   2   8
BRANCH   5  10
ATOM     10  O   UNL     1       2.804   2.372  22.200  0.00  0.00    +0.000 OA
ATOM     11  H   UNL     1       2.410   1.496  22.344  0.00  0.00    +0.000 HD
ENDBRANCH   5  10
BRANCH   1  12
ATOM     12  S   UNL     1       3.835   3.040  17.108  0.00  0.00    +0.000 S 
BRANCH  12  16
ATOM     13  C   UNL     1       6.785   6.507  17.671  0.00  0.00    +0.000 A 
ATOM     14  C   UNL     1       5.461   6.768  17.301  0.00  0.00    +0.000 A 
ATOM     15  C   UNL     1       4.574   5.703  17.119  0.00  0.00    +0.000 A 
ATOM     16  C   UNL     1       5.002   4.379  17.284  0.00  0.00    +0.000 A 
ATOM     17  C   UNL     1       6.327   4.128  17.661  0.00  0.00    +0.000 A 
ATOM     18  C   UNL     1       7.222   5.188  17.856  0.00  0.00    +0.000 A 
BRANCH  13  20
ATOM     19  O   UNL     1       8.533   7.526  18.808  0.00  0.00    +0.000 OA
ATOM     20  N   UNL     1       7.717   7.623  17.879  0.00  0.00    +0.000 N 
ATOM     21  O   UNL     1       7.634   8.594  17.114  0.00  0.00    +0.000 OA
ENDBRANCH  13  20
ENDBRANCH  12  16
ENDBRANCH   1  12
TORSDOF 5
ENDMDL
MODEL 3
REMARK VINA RESULT:      -6.9      1.636      2.344
REMARK  Name = 
REMARK  5 active torsions:
REMARK  status: ('A' for Active; 'I' for Inactive)
REMARK    1  A    between atoms: N_2  and  C_4
REMARK    2  A    between atoms: C_7  and  S_8
REMARK    3  A    between atoms: S_8  and  C_9
REMARK    4  A    between atoms: C_10  and  O_11
REMARK    5  A    between atoms: C_14  and  O_15
REMARK                            x       y       z     vdW  Elec       q    Type
REMARK                         _______ _______ _______ _____ _____    ______ ____
ROOT
ATOM      1  C   UNL     1       3.391   3.069  18.822  0.00  0.00    +0.000 A 
ATOM      2  C   UNL     1       3.947   2.403  19.929  0.00  0.00    +0.000 A 
ATOM      3  C   UNL     1       3.298   2.358  21.161  0.00  0.00    +0.000 A 
ATOM      4  C   UNL     1       2.074   2.998  21.321  0.00  0.00    +0.000 A 
ATOM      5  C   UNL     1       1.511   3.682  20.244  0.00  0.00    +0.000 A 
ATOM      6  C   UNL     1       2.160   3.728  18.996  0.00  0.00    +0.000 A 
ATOM      7 CL   UNL     1       1.424   4.637  17.712  0.00  0.00    +0.000 Cl
ENDROOT
BRANCH   2   8
ATOM      8  O   UNL     1       5.168   1.782  19.863  0.00  0.00    +0.000 OA
ATOM      9  H   UNL     1       5.787   2.422  19.465  0.00  0.00    +0.000 HD
ENDBRANCH   2   8
BRANCH   5  10
ATOM     10  O   UNL     1       0.314   4.325  20.416  0.00  0.00    +0.000 OA
ATOM     11  H   UNL     1      -0.322   3.728  20.841  0.00  0.00    +0.000 HD
ENDBRANCH   5  10
BRANCH   1  12
ATOM     12  S   UNL     1       4.334   3.100  17.290  0.00  0.00    +0.000 S 
BRANCH  12  16
ATOM     13  C   UNL     1       6.972   6.819  17.781  0.00  0.00    +0.000 A 
ATOM     14  C   UNL     1       7.349   5.610  18.377  0.00  0.00    +0.000 A 
ATOM     15  C   UNL     1       6.531   4.487  18.231  0.00  0.00    +0.000 A 
ATOM     16  C   UNL     1       5.330   4.563  17.514  0.00  0.00    +0.000 A 
ATOM     17  C   UNL     1       4.964   5.775  16.916  0.00  0.00    +0.000 A 
ATOM     18  C   UNL     1       5.782   6.906  17.047  0.00  0.00    +0.000 A 
BRANCH  13  20
ATOM     19  O   UNL     1       7.653   8.941  17.131  0.00  0.00    +0.000 OA
ATOM     20  N   UNL     1       7.836   8.000  17.917  0.00  0.00    +0.000 N 
ATOM     21  O   UNL     1       8.695   7.986  18.809  0.00  0.00    +0.000 OA
ENDBRANCH  13  20
ENDBRANCH  12  16
ENDBRANCH   1  12
TORSDOF 5
ENDMDL
MODEL 4
REMARK VINA RESULT:      -6.9      1.649      2.586
REMARK  Name = 
REMARK  5 active torsions:
REMARK  status: ('A' for Active; 'I' for Inactive)
REMARK    1  A    between atoms: N_2  and  C_4
REMARK    2  A    between atoms: C_7  and  S_8
REMARK    3  A    between atoms: S_8  and  C_9
REMARK    4  A    between atoms: C_10  and  O_11
REMARK    5  A    between atoms: C_14  and  O_15
REMARK                            x       y       z     vdW  Elec       q    Type
REMARK                         _______ _______ _______ _____ _____    ______ ____
ROOT
ATOM      1  C   UNL     1       3.347   3.044  18.763  0.00  0.00    +0.000 A 
ATOM      2  C   UNL     1       3.950   2.433  19.876  0.00  0.00    +0.000 A 
ATOM      3  C   UNL     1       3.353   2.446  21.135  0.00  0.00    +0.000 A 
ATOM      4  C   UNL     1       2.135   3.092  21.316  0.00  0.00    +0.000 A 
ATOM      5  C   UNL     1       1.525   3.723  20.232  0.00  0.00    +0.000 A 
ATOM      6  C   UNL     1       2.122   3.710  18.956  0.00  0.00    +0.000 A 
ATOM      7 CL   UNL     1       1.330   4.556  17.662  0.00  0.00    +0.000 Cl
ENDROOT
BRANCH   2   8
ATOM      8  O   UNL     1       5.169   1.810  19.788  0.00  0.00    +0.000 OA
ATOM      9  H   UNL     1       5.000   0.909  19.454  0.00  0.00    +0.000 HD
ENDBRANCH   2   8
BRANCH   5  10
ATOM     10  O   UNL     1       0.335   4.373  20.422  0.00  0.00    +0.000 OA
ATOM     11  H   UNL     1       0.463   5.127  21.020  0.00  0.00    +0.000 HD
ENDBRANCH   5  10
BRANCH   1  12
ATOM     12  S   UNL     1       4.225   3.003  17.193  0.00  0.00    +0.000 S 
BRANCH  12  16
ATOM     13  C   UNL     1       6.934   6.669  17.702  0.00  0.00    +0.000 A 
ATOM     14  C   UNL     1       5.602   6.833  17.305  0.00  0.00    +0.000 A 
ATOM     15  C   UNL     1       4.789   5.708  17.140  0.00  0.00    +0.000 A 
ATOM     16  C   UNL     1       5.299   4.420  17.348  0.00  0.00    +0.000 A 
ATOM     17  C   UNL     1       6.631   4.266  17.752  0.00  0.00    +0.000 A 
ATOM     18  C   UNL     1       7.452   5.387  17.930  0.00  0.00    +0.000 A 
BRANCH  13  20
ATOM     19  O   UNL     1       7.633   8.803  17.117  0.00  0.00    +0.000 OA
ATOM     20  N   UNL     1       7.788   7.848  17.892  0.00  0.00    +0.000 N 
ATOM     21  O   UNL     1       8.612   7.820  18.817  0.00  0.00    +0.000 OA
ENDBRANCH  13  20
ENDBRANCH  12  16
ENDBRANCH   1  12
TORSDOF 5
ENDMDL
MODEL 5
REMARK VINA RESULT:      -6.7      4.160      5.005
REMARK  Name = 
REMARK  5 active torsions:
REMARK  status: ('A' for Active; 'I' for Inactive)
REMARK    1  A    between atoms: N_2  and  C_4
REMARK    2  A    between atoms: C_7  and  S_8
REMARK    3  A    between atoms: S_8  and  C_9
REMARK    4  A    between atoms: C_10  and  O_11
REMARK    5  A    between atoms: C_14  and  O_15
REMARK                            x       y       z     vdW  Elec       q    Type
REMARK                         _______ _______ _______ _____ _____    ______ ____
ROOT
ATOM      1  C   UNL     1       3.304   4.623  18.220  0.00  0.00    +0.000 A 
ATOM      2  C   UNL     1       2.133   3.888  17.958  0.00  0.00    +0.000 A 
ATOM      3  C   UNL     1       1.960   2.589  18.430  0.00  0.00    +0.000 A 
ATOM      4  C   UNL     1       2.970   1.981  19.168  0.00  0.00    +0.000 A 
ATOM      5  C   UNL     1       4.149   2.681  19.424  0.00  0.00    +0.000 A 
ATOM      6  C   UNL     1       4.328   3.996  18.953  0.00  0.00    +0.000 A 
ATOM      7 CL   UNL     1       5.839   4.791  19.270  0.00  0.00    +0.000 Cl
ENDROOT
BRANCH   2   8
ATOM      8  O   UNL     1       1.109   4.403  17.205  0.00  0.00    +0.000 OA
ATOM      9  H   UNL     1       1.211   5.373  17.218  0.00  0.00    +0.000 HD
ENDBRANCH   2   8
BRANCH   5  10
ATOM     10  O   UNL     1       5.146   2.069  20.136  0.00  0.00    +0.000 OA
ATOM     11  H   UNL     1       5.035   1.105  20.095  0.00  0.00    +0.000 HD
ENDBRANCH   5  10
BRANCH   1  12
ATOM     12  S   UNL     1       3.440   6.278  17.527  0.00  0.00    +0.000 S 
BRANCH  12  16
ATOM     13  C   UNL     1       1.109   8.765  20.596  0.00  0.00    +0.000 A 
ATOM     14  C   UNL     1       1.584   7.494  20.941  0.00  0.00    +0.000 A 
ATOM     15  C   UNL     1       2.282   6.740  19.993  0.00  0.00    +0.000 A 
ATOM     16  C   UNL     1       2.492   7.233  18.700  0.00  0.00    +0.000 A 
ATOM     17  C   UNL     1       2.019   8.508  18.366  0.00  0.00    +0.000 A 
ATOM     18  C   UNL     1       1.328   9.278  19.311  0.00  0.00    +0.000 A 
BRANCH  13  20
ATOM     19  O   UNL     1       0.696  10.765  21.698  0.00  0.00    +0.000 OA
ATOM     20  N   UNL     1       0.389   9.569  21.593  0.00  0.00    +0.000 N 
ATOM     21  O   UNL     1      -0.481   9.004  22.269  0.00  0.00    +0.000 OA
ENDBRANCH  13  20
ENDBRANCH  12  16
ENDBRANCH   1  12
TORSDOF 5
ENDMDL
MODEL 6
REMARK VINA RESULT:      -6.6      4.144      5.093
REMARK  Name = 
REMARK  5 active torsions:
REMARK  status: ('A' for Active; 'I' for Inactive)
REMARK    1  A    between atoms: N_2  and  C_4
REMARK    2  A    between atoms: C_7  and  S_8
REMARK    3  A    between atoms: S_8  and  C_9
REMARK    4  A    between atoms: C_10  and  O_11
REMARK    5  A    between atoms: C_14  and  O_15
REMARK                            x       y       z     vdW  Elec       q    Type
REMARK                         _______ _______ _______ _____ _____    ______ ____
ROOT
ATOM      1  C   UNL     1       3.263   4.585  18.213  0.00  0.00    +0.000 A 
ATOM      2  C   UNL     1       2.099   3.837  17.962  0.00  0.00    +0.000 A 
ATOM      3  C   UNL     1       1.943   2.538  18.441  0.00  0.00    +0.000 A 
ATOM      4  C   UNL     1       2.964   1.945  19.176  0.00  0.00    +0.000 A 
ATOM      5  C   UNL     1       4.137   2.658  19.421  0.00  0.00    +0.000 A 
ATOM      6  C   UNL     1       4.298   3.973  18.943  0.00  0.00    +0.000 A 
ATOM      7 CL   UNL     1       5.803   4.786  19.246  0.00  0.00    +0.000 Cl
ENDROOT
BRANCH   2   8
ATOM      8  O   UNL     1       1.064   4.336  17.213  0.00  0.00    +0.000 OA
ATOM      9  H   UNL     1       0.272   3.818  17.449  0.00  0.00    +0.000 HD
ENDBRANCH   2   8
BRANCH   5  10
ATOM     10  O   UNL     1       5.145   2.061  20.130  0.00  0.00    +0.000 OA
ATOM     11  H   UNL     1       4.777   1.370  20.706  0.00  0.00    +0.000 HD
ENDBRANCH   5  10
BRANCH   1  12
ATOM     12  S   UNL     1       3.377   6.238  17.511  0.00  0.00    +0.000 S 
BRANCH  12  16
ATOM     13  C   UNL     1       1.110   8.706  20.643  0.00  0.00    +0.000 A 
ATOM     14  C   UNL     1       1.343   9.236  19.369  0.00  0.00    +0.000 A 
ATOM     15  C   UNL     1       2.046   8.480  18.427  0.00  0.00    +0.000 A 
ATOM     16  C   UNL     1       2.536   7.209  18.751  0.00  0.00    +0.000 A 
ATOM     17  C   UNL     1       2.293   6.683  20.025  0.00  0.00    +0.000 A 
ATOM     18  C   UNL     1       1.579   7.428  20.975  0.00  0.00    +0.000 A 
BRANCH  13  20
ATOM     19  O   UNL     1      -0.507   8.899  22.297  0.00  0.00    +0.000 OA
ATOM     20  N   UNL     1       0.357   9.489  21.632  0.00  0.00    +0.000 N 
ATOM     21  O   UNL     1       0.631  10.692  21.744  0.00  0.00    +0.000 OA
ENDBRANCH  13  20
ENDBRANCH  12  16
ENDBRANCH   1  12
TORSDOF 5
ENDMDL
MODEL 7
REMARK VINA RESULT:      -6.6      3.107      3.875
REMARK  Name = 
REMARK  5 active torsions:
REMARK  status: ('A' for Active; 'I' for Inactive)
REMARK    1  A    between atoms: N_2  and  C_4
REMARK    2  A    between atoms: C_7  and  S_8
REMARK    3  A    between atoms: S_8  and  C_9
REMARK    4  A    between atoms: C_10  and  O_11
REMARK    5  A    between atoms: C_14  and  O_15
REMARK                            x       y       z     vdW  Elec       q    Type
REMARK                         _______ _______ _______ _____ _____    ______ ____
ROOT
ATOM      1  C   UNL     1       3.919   3.745  18.910  0.00  0.00    +0.000 A 
ATOM      2  C   UNL     1       4.056   2.429  19.386  0.00  0.00    +0.000 A 
ATOM      3  C   UNL     1       2.998   1.524  19.361  0.00  0.00    +0.000 A 
ATOM      4  C   UNL     1       1.759   1.923  18.868  0.00  0.00    +0.000 A 
ATOM      5  C   UNL     1       1.591   3.228  18.409  0.00  0.00    +0.000 A 
ATOM      6  C   UNL     1       2.659   4.146  18.428  0.00  0.00    +0.000 A 
ATOM      7 CL   UNL     1       2.366   5.769  17.883  0.00  0.00    +0.000 Cl
ENDROOT
BRANCH   2   8
ATOM      8  O   UNL     1       5.233   1.972  19.923  0.00  0.00    +0.000 OA
ATOM      9  H   UNL     1       5.774   1.649  19.178  0.00  0.00    +0.000 HD
ENDBRANCH   2   8
BRANCH   5  10
ATOM     10  O   UNL     1       0.364   3.618  17.942  0.00  0.00    +0.000 OA
ATOM     11  H   UNL     1      -0.322   3.020  18.282  0.00  0.00    +0.000 HD
ENDBRANCH   5  10
BRANCH   1  12
ATOM     12  S   UNL     1       5.339   4.843  19.028  0.00  0.00    +0.000 S 
BRANCH  12  16
ATOM     13  C   UNL     1       6.833   4.831  14.692  0.00  0.00    +0.000 A 
ATOM     14  C   UNL     1       5.735   4.043  15.056  0.00  0.00    +0.000 A 
ATOM     15  C   UNL     1       5.297   4.044  16.384  0.00  0.00    +0.000 A 
ATOM     16  C   UNL     1       5.956   4.809  17.354  0.00  0.00    +0.000 A 
ATOM     17  C   UNL     1       7.049   5.600  16.980  0.00  0.00    +0.000 A 
ATOM     18  C   UNL     1       7.491   5.614  15.650  0.00  0.00    +0.000 A 
BRANCH  13  20
ATOM     19  O   UNL     1       6.829   3.985  12.531  0.00  0.00    +0.000 OA
ATOM     20  N   UNL     1       7.288   4.846  13.296  0.00  0.00    +0.000 N 
ATOM     21  O   UNL     1       8.102   5.719  12.964  0.00  0.00    +0.000 OA
ENDBRANCH  13  20
ENDBRANCH  12  16
ENDBRANCH   1  12
TORSDOF 5
ENDMDL
MODEL 8
REMARK VINA RESULT:      -6.6      3.245      3.873
REMARK  Name = 
REMARK  5 active torsions:
REMARK  status: ('A' for Active; 'I' for Inactive)
REMARK    1  A    between atoms: N_2  and  C_4
REMARK    2  A    between atoms: C_7  and  S_8
REMARK    3  A    between atoms: S_8  and  C_9
REMARK    4  A    between atoms: C_10  and  O_11
REMARK    5  A    between atoms: C_14  and  O_15
REMARK                            x       y       z     vdW  Elec       q    Type
REMARK                         _______ _______ _______ _____ _____    ______ ____
ROOT
ATOM      1  C   UNL     1       3.913   4.185  19.642  0.00  0.00    +0.000 A 
ATOM      2  C   UNL     1       4.039   2.787  19.738  0.00  0.00    +0.000 A 
ATOM      3  C   UNL     1       2.941   1.966  19.985  0.00  0.00    +0.000 A 
ATOM      4  C   UNL     1       1.681   2.530  20.159  0.00  0.00    +0.000 A 
ATOM      5  C   UNL     1       1.533   3.915  20.088  0.00  0.00    +0.000 A 
ATOM      6  C   UNL     1       2.639   4.750  19.835  0.00  0.00    +0.000 A 
ATOM      7 CL   UNL     1       2.390   6.468  19.806  0.00  0.00    +0.000 Cl
ENDROOT
BRANCH   2   8
ATOM      8  O   UNL     1       5.251   2.159  19.617  0.00  0.00    +0.000 OA
ATOM      9  H   UNL     1       5.821   2.510  20.328  0.00  0.00    +0.000 HD
ENDBRANCH   2   8
BRANCH   5  10
ATOM     10  O   UNL     1       0.293   4.463  20.279  0.00  0.00    +0.000 OA
ATOM     11  H   UNL     1      -0.370   3.758  20.362  0.00  0.00    +0.000 HD
ENDBRANCH   5  10
BRANCH   1  12
ATOM     12  S   UNL     1       5.403   5.153  19.361  0.00  0.00    +0.000 S 
BRANCH  12  16
ATOM     13  C   UNL     1       6.235   4.375  14.919  0.00  0.00    +0.000 A 
ATOM     14  C   UNL     1       4.916   4.451  15.380  0.00  0.00    +0.000 A 
ATOM     15  C   UNL     1       4.675   4.676  16.739  0.00  0.00    +0.000 A 
ATOM     16  C   UNL     1       5.736   4.805  17.643  0.00  0.00    +0.000 A 
ATOM     17  C   UNL     1       7.053   4.733  17.171  0.00  0.00    +0.000 A 
ATOM     18  C   UNL     1       7.307   4.519  15.809  0.00  0.00    +0.000 A 
BRANCH  13  20
ATOM     19  O   UNL     1       7.399   4.818  12.960  0.00  0.00    +0.000 OA
ATOM     20  N   UNL     1       6.495   4.155  13.490  0.00  0.00    +0.000 N 
ATOM     21  O   UNL     1       5.797   3.320  12.898  0.00  0.00    +0.000 OA
ENDBRANCH  13  20
ENDBRANCH  12  16
ENDBRANCH   1  12
TORSDOF 5
ENDMDL
MODEL 9
REMARK VINA RESULT:      -6.6      3.110      3.843
REMARK  Name = 
REMARK  5 active torsions:
REMARK  status: ('A' for Active; 'I' for Inactive)
REMARK    1  A    between atoms: N_2  and  C_4
REMARK    2  A    between atoms: C_7  and  S_8
REMARK    3  A    between atoms: S_8  and  C_9
REMARK    4  A    between atoms: C_10  and  O_11
REMARK    5  A    between atoms: C_14  and  O_15
REMARK                            x       y       z     vdW  Elec       q    Type
REMARK                         _______ _______ _______ _____ _____    ______ ____
ROOT
ATOM      1  C   UNL     1       3.927   3.739  18.931  0.00  0.00    +0.000 A 
ATOM      2  C   UNL     1       4.072   2.436  19.439  0.00  0.00    +0.000 A 
ATOM      3  C   UNL     1       3.016   1.527  19.441  0.00  0.00    +0.000 A 
ATOM      4  C   UNL     1       1.774   1.908  18.944  0.00  0.00    +0.000 A 
ATOM      5  C   UNL     1       1.600   3.201  18.453  0.00  0.00    +0.000 A 
ATOM      6  C   UNL     1       2.664   4.123  18.444  0.00  0.00    +0.000 A 
ATOM      7 CL   UNL     1       2.363   5.731  17.860  0.00  0.00    +0.000 Cl
ENDROOT
BRANCH   2   8
ATOM      8  O   UNL     1       5.252   1.997  19.982  0.00  0.00    +0.000 OA
ATOM      9  H   UNL     1       5.909   2.703  19.833  0.00  0.00    +0.000 HD
ENDBRANCH   2   8
BRANCH   5  10
ATOM     10  O   UNL     1       0.369   3.575  17.982  0.00  0.00    +0.000 OA
ATOM     11  H   UNL     1       0.031   2.899  17.372  0.00  0.00    +0.000 HD
ENDBRANCH   5  10
BRANCH   1  12
ATOM     12  S   UNL     1       5.344   4.845  19.015  0.00  0.00    +0.000 S 
BRANCH  12  16
ATOM     13  C   UNL     1       6.801   4.849  14.667  0.00  0.00    +0.000 A 
ATOM     14  C   UNL     1       7.431   5.661  15.616  0.00  0.00    +0.000 A 
ATOM     15  C   UNL     1       6.970   5.662  16.936  0.00  0.00    +0.000 A 
ATOM     16  C   UNL     1       5.874   4.875  17.311  0.00  0.00    +0.000 A 
ATOM     17  C   UNL     1       5.254   4.060  16.356  0.00  0.00    +0.000 A 
ATOM     18  C   UNL     1       5.714   4.044  15.032  0.00  0.00    +0.000 A 
BRANCH  13  20
ATOM     19  O   UNL     1       8.137   5.679  12.960  0.00  0.00    +0.000 OA
ATOM     20  N   UNL     1       7.291   4.832  13.282  0.00  0.00    +0.000 N 
ATOM     21  O   UNL     1       6.831   3.972  12.518  0.00  0.00    +0.000 OA
ENDBRANCH  13  20
ENDBRANCH  12  16
ENDBRANCH   1  12
TORSDOF 5
ENDMDL
