MODEL 1
REMARK VINA RESULT:      -9.3      0.000      0.000
REMARK  Name = 
REMARK  5 active torsions:
REMARK  status: ('A' for Active; 'I' for Inactive)
REMARK    1  A    between atoms: C_5  and  C_6
REMARK    2  A    between atoms: C_9  and  C_10
REMARK    3  A    between atoms: C_10  and  N_11
REMARK    4  A    between atoms: C_12  and  C_13
REMARK    5  A    between atoms: C_13  and  N_14
REMARK                            x       y       z     vdW  Elec       q    Type
REMARK                         _______ _______ _______ _____ _____    ______ ____
ROOT
ATOM      1  N   UNL     1       6.530   4.991  17.206  0.00  0.00    +0.000 N 
ATOM      2  C   UNL     1       5.310   4.456  17.568  0.00  0.00    +0.000 A 
ATOM      3  N   UNL     1       4.681   3.988  16.504  0.00  0.00    +0.000 NA
ATOM      4  C   UNL     1       5.519   4.202  15.439  0.00  0.00    +0.000 A 
ATOM      5  C   UNL     1       5.345   3.880  14.084  0.00  0.00    +0.000 A 
ATOM      6  C   UNL     1       6.369   4.184  13.179  0.00  0.00    +0.000 A 
ATOM      7  C   UNL     1       7.544   4.801  13.614  0.00  0.00    +0.000 A 
ATOM      8  C   UNL     1       7.732   5.135  14.958  0.00  0.00    +0.000 A 
ATOM      9  C   UNL     1       6.696   4.815  15.848  0.00  0.00    +0.000 A 
ENDROOT
BRANCH   1  10
ATOM     10  C   UNL     1       7.502   5.605  18.089  0.00  0.00    +0.000 C 
BRANCH  10  14
ATOM     11  C   UNL     1       8.308   9.033  18.167  0.00  0.00    +0.000 A 
ATOM     12  N   UNL     1       7.286   9.137  17.344  0.00  0.00    +0.000 NA
ATOM     13  N   UNL     1       6.810   7.862  17.148  0.00  0.00    +0.000 NA
ATOM     14  C   UNL     1       7.563   7.065  17.880  0.00  0.00    +0.000 A 
ATOM     15  O   UNL     1       8.560   7.738  18.538  0.00  0.00    +0.000 OA
BRANCH  11  20
ATOM     16  F   UNL     1      11.384  13.169  20.322  0.00  0.00    +0.000 F 
ATOM     17  C   UNL     1      10.661  12.160  19.817  0.00  0.00    +0.000 A 
ATOM     18  C   UNL     1      10.693  11.915  18.455  0.00  0.00    +0.000 A 
ATOM     19  C   UNL     1       9.929  10.871  17.926  0.00  0.00    +0.000 A 
ATOM     20  C   UNL     1       9.126  10.078  18.762  0.00  0.00    +0.000 A 
ATOM     21  C   UNL     1       9.121  10.338  20.143  0.00  0.00    +0.000 A 
ATOM     22  C   UNL     1       9.890  11.380  20.669  0.00  0.00    +0.000 A 
ENDBRANCH  11  20
ENDBRANCH  10  14
ENDBRANCH   1  10
BRANCH   2  23
ATOM     23  C   UNL     1       4.825   4.304  18.984  0.00  0.00    +0.000 C 
BRANCH  23  24
ATOM     24  N   UNL     1       3.377   4.014  19.163  0.00  0.00    +0.000 NA
ATOM     25  C   UNL     1       3.207   2.633  19.665  0.00  0.00    +0.000 C 
ATOM     26  C   UNL     1       1.813   2.318  20.217  0.00  0.00    +0.000 C 
ATOM     27  C   UNL     1       1.388   3.329  21.268  0.00  0.00    +0.000 C 
ATOM     28  C   UNL     1       1.457   4.728  20.680  0.00  0.00    +0.000 C 
ATOM     29  C   UNL     1       2.839   5.025  20.098  0.00  0.00    +0.000 C 
ENDBRANCH  23  24
ENDBRANCH   2  23
TORSDOF 5
ENDMDL
MODEL 2
REMARK VINA RESULT:      -8.9      4.420      7.582
REMARK  Name = 
REMARK  5 active torsions:
REMARK  status: ('A' for Active; 'I' for Inactive)
REMARK    1  A    between atoms: C_5  and  C_6
REMARK    2  A    between atoms: C_9  and  C_10
REMARK    3  A    between atoms: C_10  and  N_11
REMARK    4  A    between atoms: C_12  and  C_13
REMARK    5  A    between atoms: C_13  and  N_14
REMARK                            x       y       z     vdW  Elec       q    Type
REMARK                         _______ _______ _______ _____ _____    ______ ____
ROOT
ATOM      1  N   UNL     1       3.352   5.367  18.461  0.00  0.00    +0.000 N 
ATOM      2  C   UNL     1       3.775   4.874  17.243  0.00  0.00    +0.000 A 
ATOM      3  N   UNL     1       3.220   3.699  17.006  0.00  0.00    +0.000 NA
ATOM      4  C   UNL     1       2.404   3.438  18.078  0.00  0.00    +0.000 A 
ATOM      5  C   UNL     1       1.573   2.334  18.322  0.00  0.00    +0.000 A 
ATOM      6  C   UNL     1       0.809   2.308  19.496  0.00  0.00    +0.000 A 
ATOM      7  C   UNL     1       0.873   3.361  20.410  0.00  0.00    +0.000 A 
ATOM      8  C   UNL     1       1.700   4.466  20.186  0.00  0.00    +0.000 A 
ATOM      9  C   UNL     1       2.451   4.474  19.002  0.00  0.00    +0.000 A 
ENDROOT
BRANCH   1  10
ATOM     10  C   UNL     1       3.745   6.621  19.070  0.00  0.00    +0.000 C 
BRANCH  10  14
ATOM     11  C   UNL     1       1.195   8.975  19.676  0.00  0.00    +0.000 A 
ATOM     12  N   UNL     1       1.127   9.013  18.362  0.00  0.00    +0.000 NA
ATOM     13  N   UNL     1       2.090   8.150  17.895  0.00  0.00    +0.000 NA
ATOM     14  C   UNL     1       2.670   7.627  18.956  0.00  0.00    +0.000 A 
ATOM     15  O   UNL     1       2.171   8.128  20.132  0.00  0.00    +0.000 OA
BRANCH  11  20
ATOM     16  F   UNL     1      -1.873  11.508  23.598  0.00  0.00    +0.000 F 
ATOM     17  C   UNL     1      -1.159  10.895  22.645  0.00  0.00    +0.000 A 
ATOM     18  C   UNL     1      -0.478   9.728  22.948  0.00  0.00    +0.000 A 
ATOM     19  C   UNL     1       0.278   9.095  21.958  0.00  0.00    +0.000 A 
ATOM     20  C   UNL     1       0.358   9.637  20.665  0.00  0.00    +0.000 A 
ATOM     21  C   UNL     1      -0.352  10.814  20.377  0.00  0.00    +0.000 A 
ATOM     22  C   UNL     1      -1.111  11.442  21.369  0.00  0.00    +0.000 A 
ENDBRANCH  11  20
ENDBRANCH  10  14
ENDBRANCH   1  10
BRANCH   2  23
ATOM     23  C   UNL     1       4.636   5.626  16.265  0.00  0.00    +0.000 C 
BRANCH  23  24
ATOM     24  N   UNL     1       6.084   5.730  16.597  0.00  0.00    +0.000 NA
ATOM     25  C   UNL     1       6.357   7.049  17.208  0.00  0.00    +0.000 C 
ATOM     26  C   UNL     1       7.716   7.162  17.907  0.00  0.00    +0.000 C 
ATOM     27  C   UNL     1       7.917   6.048  18.920  0.00  0.00    +0.000 C 
ATOM     28  C   UNL     1       7.749   4.704  18.232  0.00  0.00    +0.000 C 
ATOM     29  C   UNL     1       6.408   4.609  17.505  0.00  0.00    +0.000 C 
ENDBRANCH  23  24
ENDBRANCH   2  23
TORSDOF 5
ENDMDL
MODEL 3
REMARK VINA RESULT:      -8.8      4.651      7.556
REMARK  Name = 
REMARK  5 active torsions:
REMARK  status: ('A' for Active; 'I' for Inactive)
REMARK    1  A    between atoms: C_5  and  C_6
REMARK    2  A    between atoms: C_9  and  C_10
REMARK    3  A    between atoms: C_10  and  N_11
REMARK    4  A    between atoms: C_12  and  C_13
REMARK    5  A    between atoms: C_13  and  N_14
REMARK                            x       y       z     vdW  Elec       q    Type
REMARK                         _______ _______ _______ _____ _____    ______ ____
ROOT
ATOM      1  N   UNL     1       3.335   5.418  18.434  0.00  0.00    +0.000 N 
ATOM      2  C   UNL     1       3.837   4.920  17.249  0.00  0.00    +0.000 A 
ATOM      3  N   UNL     1       3.329   3.726  17.001  0.00  0.00    +0.000 NA
ATOM      4  C   UNL     1       2.463   3.458  18.031  0.00  0.00    +0.000 A 
ATOM      5  C   UNL     1       1.652   2.334  18.248  0.00  0.00    +0.000 A 
ATOM      6  C   UNL     1       0.826   2.302  19.379  0.00  0.00    +0.000 A 
ATOM      7  C   UNL     1       0.811   3.370  20.278  0.00  0.00    +0.000 A 
ATOM      8  C   UNL     1       1.617   4.495  20.082  0.00  0.00    +0.000 A 
ATOM      9  C   UNL     1       2.431   4.507  18.939  0.00  0.00    +0.000 A 
ENDROOT
BRANCH   1  10
ATOM     10  C   UNL     1       3.658   6.693  19.043  0.00  0.00    +0.000 C 
BRANCH  10  14
ATOM     11  C   UNL     1       1.322   9.289  18.580  0.00  0.00    +0.000 A 
ATOM     12  N   UNL     1       1.731   9.228  17.331  0.00  0.00    +0.000 NA
ATOM     13  N   UNL     1       2.700   8.254  17.282  0.00  0.00    +0.000 NA
ATOM     14  C   UNL     1       2.806   7.771  18.503  0.00  0.00    +0.000 A 
ATOM     15  O   UNL     1       1.977   8.403  19.395  0.00  0.00    +0.000 OA
BRANCH  11  20
ATOM     16  F   UNL     1      -2.613  12.501  20.905  0.00  0.00    +0.000 F 
ATOM     17  C   UNL     1      -1.686  11.712  20.346  0.00  0.00    +0.000 A 
ATOM     18  C   UNL     1      -0.582  11.328  21.088  0.00  0.00    +0.000 A 
ATOM     19  C   UNL     1       0.392  10.515  20.503  0.00  0.00    +0.000 A 
ATOM     20  C   UNL     1       0.263  10.093  19.169  0.00  0.00    +0.000 A 
ATOM     21  C   UNL     1      -0.873  10.484  18.441  0.00  0.00    +0.000 A 
ATOM     22  C   UNL     1      -1.847  11.293  19.032  0.00  0.00    +0.000 A 
ENDBRANCH  11  20
ENDBRANCH  10  14
ENDBRANCH   1  10
BRANCH   2  23
ATOM     23  C   UNL     1       4.729   5.682  16.307  0.00  0.00    +0.000 C 
BRANCH  23  24
ATOM     24  N   UNL     1       6.170   5.758  16.670  0.00  0.00    +0.000 NA
ATOM     25  C   UNL     1       6.460   7.079  17.269  0.00  0.00    +0.000 C 
ATOM     26  C   UNL     1       7.805   7.171  17.998  0.00  0.00    +0.000 C 
ATOM     27  C   UNL     1       7.957   6.067  19.030  0.00  0.00    +0.000 C 
ATOM     28  C   UNL     1       7.773   4.717  18.357  0.00  0.00    +0.000 C 
ATOM     29  C   UNL     1       6.447   4.643  17.601  0.00  0.00    +0.000 C 
ENDBRANCH  23  24
ENDBRANCH   2  23
TORSDOF 5
ENDMDL
MODEL 4
REMARK VINA RESULT:      -8.7      1.202      4.920
REMARK  Name = 
REMARK  5 active torsions:
REMARK  status: ('A' for Active; 'I' for Inactive)
REMARK    1  A    between atoms: C_5  and  C_6
REMARK    2  A    between atoms: C_9  and  C_10
REMARK    3  A    between atoms: C_10  and  N_11
REMARK    4  A    between atoms: C_12  and  C_13
REMARK    5  A    between atoms: C_13  and  N_14
REMARK                            x       y       z     vdW  Elec       q    Type
REMARK                         _______ _______ _______ _____ _____    ______ ____
ROOT
ATOM      1  N   UNL     1       5.994   5.027  17.887  0.00  0.00    +0.000 N 
ATOM      2  C   UNL     1       5.879   4.454  16.636  0.00  0.00    +0.000 A 
ATOM      3  N   UNL     1       4.634   4.068  16.421  0.00  0.00    +0.000 NA
ATOM      4  C   UNL     1       3.926   4.419  17.542  0.00  0.00    +0.000 A 
ATOM      5  C   UNL     1       2.561   4.254  17.827  0.00  0.00    +0.000 A 
ATOM      6  C   UNL     1       2.063   4.722  19.049  0.00  0.00    +0.000 A 
ATOM      7  C   UNL     1       2.908   5.342  19.971  0.00  0.00    +0.000 A 
ATOM      8  C   UNL     1       4.270   5.510  19.707  0.00  0.00    +0.000 A 
ATOM      9  C   UNL     1       4.746   5.039  18.475  0.00  0.00    +0.000 A 
ENDROOT
BRANCH   1  10
ATOM     10  C   UNL     1       7.199   5.563  18.485  0.00  0.00    +0.000 C 
BRANCH  10  14
ATOM     11  C   UNL     1       8.300   8.893  18.150  0.00  0.00    +0.000 A 
ATOM     12  N   UNL     1       7.437   8.919  17.157  0.00  0.00    +0.000 NA
ATOM     13  N   UNL     1       6.881   7.663  17.089  0.00  0.00    +0.000 NA
ATOM     14  C   UNL     1       7.429   6.958  18.058  0.00  0.00    +0.000 A 
ATOM     15  O   UNL     1       8.368   7.668  18.762  0.00  0.00    +0.000 OA
BRANCH  11  20
ATOM     16  F   UNL     1      11.320  13.149  20.146  0.00  0.00    +0.000 F 
ATOM     17  C   UNL     1      10.612  12.112  19.678  0.00  0.00    +0.000 A 
ATOM     18  C   UNL     1      10.556  11.887  18.313  0.00  0.00    +0.000 A 
ATOM     19  C   UNL     1       9.807  10.814  17.823  0.00  0.00    +0.000 A 
ATOM     20  C   UNL     1       9.108   9.970  18.701  0.00  0.00    +0.000 A 
ATOM     21  C   UNL     1       9.192  10.210  20.083  0.00  0.00    +0.000 A 
ATOM     22  C   UNL     1       9.945  11.282  20.570  0.00  0.00    +0.000 A 
ENDBRANCH  11  20
ENDBRANCH  10  14
ENDBRANCH   1  10
BRANCH   2  23
ATOM     23  C   UNL     1       6.980   4.399  15.613  0.00  0.00    +0.000 C 
BRANCH  23  24
ATOM     24  N   UNL     1       6.592   4.679  14.203  0.00  0.00    +0.000 NA
ATOM     25  C   UNL     1       7.760   5.209  13.465  0.00  0.00    +0.000 C 
ATOM     26  C   UNL     1       7.605   5.215  11.940  0.00  0.00    +0.000 C 
ATOM     27  C   UNL     1       7.211   3.845  11.414  0.00  0.00    +0.000 C 
ATOM     28  C   UNL     1       5.939   3.384  12.107  0.00  0.00    +0.000 C 
ATOM     29  C   UNL     1       6.086   3.415  13.628  0.00  0.00    +0.000 C 
ENDBRANCH  23  24
ENDBRANCH   2  23
TORSDOF 5
ENDMDL
MODEL 5
REMARK VINA RESULT:      -8.7      4.576      6.794
REMARK  Name = 
REMARK  5 active torsions:
REMARK  status: ('A' for Active; 'I' for Inactive)
REMARK    1  A    between atoms: C_5  and  C_6
REMARK    2  A    between atoms: C_9  and  C_10
REMARK    3  A    between atoms: C_10  and  N_11
REMARK    4  A    between atoms: C_12  and  C_13
REMARK    5  A    between atoms: C_13  and  N_14
REMARK                            x       y       z     vdW  Elec       q    Type
REMARK                         _______ _______ _______ _____ _____    ______ ____
ROOT
ATOM      1  N   UNL     1       3.869   5.425  18.739  0.00  0.00    +0.000 N 
ATOM      2  C   UNL     1       2.847   6.231  18.282  0.00  0.00    +0.000 A 
ATOM      3  N   UNL     1       1.767   5.509  18.039  0.00  0.00    +0.000 NA
ATOM      4  C   UNL     1       2.090   4.216  18.368  0.00  0.00    +0.000 A 
ATOM      5  C   UNL     1       1.302   3.056  18.315  0.00  0.00    +0.000 A 
ATOM      6  C   UNL     1       1.858   1.840  18.730  0.00  0.00    +0.000 A 
ATOM      7  C   UNL     1       3.176   1.780  19.187  0.00  0.00    +0.000 A 
ATOM      8  C   UNL     1       3.978   2.924  19.241  0.00  0.00    +0.000 A 
ATOM      9  C   UNL     1       3.398   4.132  18.826  0.00  0.00    +0.000 A 
ENDROOT
BRANCH   1  10
ATOM     10  C   UNL     1       5.206   5.847  19.105  0.00  0.00    +0.000 C 
BRANCH  10  14
ATOM     11  C   UNL     1       7.049   4.796  16.291  0.00  0.00    +0.000 A 
ATOM     12  N   UNL     1       7.868   4.309  17.199  0.00  0.00    +0.000 NA
ATOM     13  N   UNL     1       7.334   4.636  18.424  0.00  0.00    +0.000 NA
ATOM     14  C   UNL     1       6.213   5.285  18.182  0.00  0.00    +0.000 A 
ATOM     15  O   UNL     1       5.978   5.452  16.841  0.00  0.00    +0.000 OA
BRANCH  11  20
ATOM     16  F   UNL     1       7.038   4.345  10.723  0.00  0.00    +0.000 F 
ATOM     17  C   UNL     1       7.064   4.444  12.059  0.00  0.00    +0.000 A 
ATOM     18  C   UNL     1       6.220   3.650  12.817  0.00  0.00    +0.000 A 
ATOM     19  C   UNL     1       6.237   3.761  14.210  0.00  0.00    +0.000 A 
ATOM     20  C   UNL     1       7.095   4.675  14.843  0.00  0.00    +0.000 A 
ATOM     21  C   UNL     1       7.953   5.459  14.053  0.00  0.00    +0.000 A 
ATOM     22  C   UNL     1       7.936   5.342  12.661  0.00  0.00    +0.000 A 
ENDBRANCH  11  20
ENDBRANCH  10  14
ENDBRANCH   1  10
BRANCH   2  23
ATOM     23  C   UNL     1       2.907   7.732  18.203  0.00  0.00    +0.000 C 
BRANCH  23  24
ATOM     24  N   UNL     1       1.689   8.470  18.635  0.00  0.00    +0.000 NA
ATOM     25  C   UNL     1       1.603   8.460  20.112  0.00  0.00    +0.000 C 
ATOM     26  C   UNL     1       0.605   9.461  20.703  0.00  0.00    +0.000 C 
ATOM     27  C   UNL     1       0.856  10.869  20.188  0.00  0.00    +0.000 C 
ATOM     28  C   UNL     1       0.816  10.865  18.669  0.00  0.00    +0.000 C 
ATOM     29  C   UNL     1       1.787   9.839  18.085  0.00  0.00    +0.000 C 
ENDBRANCH  23  24
ENDBRANCH   2  23
TORSDOF 5
ENDMDL
MODEL 6
REMARK VINA RESULT:      -8.7      0.724      1.165
REMARK  Name = 
REMARK  5 active torsions:
REMARK  status: ('A' for Active; 'I' for Inactive)
REMARK    1  A    between atoms: C_5  and  C_6
REMARK    2  A    between atoms: C_9  and  C_10
REMARK    3  A    between atoms: C_10  and  N_11
REMARK    4  A    between atoms: C_12  and  C_13
REMARK    5  A    between atoms: C_13  and  N_14
REMARK                            x       y       z     vdW  Elec       q    Type
REMARK                         _______ _______ _______ _____ _____    ______ ____
ROOT
ATOM      1  N   UNL     1       6.311   5.423  17.553  0.00  0.00    +0.000 N 
ATOM      2  C   UNL     1       5.015   5.206  17.975  0.00  0.00    +0.000 A 
ATOM      3  N   UNL     1       4.291   4.698  16.994  0.00  0.00    +0.000 NA
ATOM      4  C   UNL     1       5.140   4.562  15.924  0.00  0.00    +0.000 A 
ATOM      5  C   UNL     1       4.888   4.057  14.639  0.00  0.00    +0.000 A 
ATOM      6  C   UNL     1       5.938   3.998  13.715  0.00  0.00    +0.000 A 
ATOM      7  C   UNL     1       7.217   4.437  14.064  0.00  0.00    +0.000 A 
ATOM      8  C   UNL     1       7.486   4.950  15.337  0.00  0.00    +0.000 A 
ATOM      9  C   UNL     1       6.420   4.992  16.248  0.00  0.00    +0.000 A 
ENDROOT
BRANCH   1  10
ATOM     10  C   UNL     1       7.396   5.974  18.339  0.00  0.00    +0.000 C 
BRANCH  10  14
ATOM     11  C   UNL     1       8.505   9.316  18.227  0.00  0.00    +0.000 A 
ATOM     12  N   UNL     1       7.593   9.428  17.286  0.00  0.00    +0.000 NA
ATOM     13  N   UNL     1       7.024   8.184  17.142  0.00  0.00    +0.000 NA
ATOM     14  C   UNL     1       7.615   7.399  18.019  0.00  0.00    +0.000 A 
ATOM     15  O   UNL     1       8.594   8.044  18.731  0.00  0.00    +0.000 OA
BRANCH  11  20
ATOM     16  F   UNL     1      11.682  13.371  20.390  0.00  0.00    +0.000 F 
ATOM     17  C   UNL     1      10.934  12.381  19.884  0.00  0.00    +0.000 A 
ATOM     18  C   UNL     1      10.965  12.133  18.522  0.00  0.00    +0.000 A 
ATOM     19  C   UNL     1      10.176  11.110  17.990  0.00  0.00    +0.000 A 
ATOM     20  C   UNL     1       9.349  10.339  18.824  0.00  0.00    +0.000 A 
ATOM     21  C   UNL     1       9.345  10.601  20.205  0.00  0.00    +0.000 A 
ATOM     22  C   UNL     1      10.139  11.623  20.733  0.00  0.00    +0.000 A 
ENDBRANCH  11  20
ENDBRANCH  10  14
ENDBRANCH   1  10
BRANCH   2  23
ATOM     23  C   UNL     1       4.529   5.392  19.387  0.00  0.00    +0.000 C 
BRANCH  23  24
ATOM     24  N   UNL     1       3.567   4.378  19.898  0.00  0.00    +0.000 NA
ATOM     25  C   UNL     1       2.186   4.885  19.743  0.00  0.00    +0.000 C 
ATOM     26  C   UNL     1       1.092   3.823  19.903  0.00  0.00    +0.000 C 
ATOM     27  C   UNL     1       1.333   2.632  18.992  0.00  0.00    +0.000 C 
ATOM     28  C   UNL     1       2.715   2.060  19.263  0.00  0.00    +0.000 C 
ATOM     29  C   UNL     1       3.799   3.130  19.139  0.00  0.00    +0.000 C 
ENDBRANCH  23  24
ENDBRANCH   2  23
TORSDOF 5
ENDMDL
MODEL 7
REMARK VINA RESULT:      -8.5      0.664      1.425
REMARK  Name = 
REMARK  5 active torsions:
REMARK  status: ('A' for Active; 'I' for Inactive)
REMARK    1  A    between atoms: C_5  and  C_6
REMARK    2  A    between atoms: C_9  and  C_10
REMARK    3  A    between atoms: C_10  and  N_11
REMARK    4  A    between atoms: C_12  and  C_13
REMARK    5  A    between atoms: C_13  and  N_14
REMARK                            x       y       z     vdW  Elec       q    Type
REMARK                         _______ _______ _______ _____ _____    ______ ____
ROOT
ATOM      1  N   UNL     1       6.616   4.948  17.474  0.00  0.00    +0.000 N 
ATOM      2  C   UNL     1       5.463   4.331  17.916  0.00  0.00    +0.000 A 
ATOM      3  N   UNL     1       4.799   3.817  16.897  0.00  0.00    +0.000 NA
ATOM      4  C   UNL     1       5.547   4.085  15.778  0.00  0.00    +0.000 A 
ATOM      5  C   UNL     1       5.306   3.746  14.437  0.00  0.00    +0.000 A 
ATOM      6  C   UNL     1       6.243   4.118  13.465  0.00  0.00    +0.000 A 
ATOM      7  C   UNL     1       7.398   4.816  13.822  0.00  0.00    +0.000 A 
ATOM      8  C   UNL     1       7.652   5.167  15.151  0.00  0.00    +0.000 A 
ATOM      9  C   UNL     1       6.703   4.779  16.108  0.00  0.00    +0.000 A 
ENDROOT
BRANCH   1  10
ATOM     10  C   UNL     1       7.600   5.631  18.290  0.00  0.00    +0.000 C 
BRANCH  10  14
ATOM     11  C   UNL     1       8.328   9.075  18.158  0.00  0.00    +0.000 A 
ATOM     12  N   UNL     1       7.319   9.101  17.314  0.00  0.00    +0.000 NA
ATOM     13  N   UNL     1       6.875   7.805  17.193  0.00  0.00    +0.000 NA
ATOM     14  C   UNL     1       7.632   7.076  17.988  0.00  0.00    +0.000 A 
ATOM     15  O   UNL     1       8.602   7.813  18.617  0.00  0.00    +0.000 OA
BRANCH  11  20
ATOM     16  F   UNL     1      11.423  13.177  20.349  0.00  0.00    +0.000 F 
ATOM     17  C   UNL     1      10.665  12.211  19.813  0.00  0.00    +0.000 A 
ATOM     18  C   UNL     1       9.947  11.369  20.646  0.00  0.00    +0.000 A 
ATOM     19  C   UNL     1       9.167  10.352  20.089  0.00  0.00    +0.000 A 
ATOM     20  C   UNL     1       9.112  10.175  18.697  0.00  0.00    +0.000 A 
ATOM     21  C   UNL     1       9.838  11.051  17.872  0.00  0.00    +0.000 A 
ATOM     22  C   UNL     1      10.614  12.069  18.433  0.00  0.00    +0.000 A 
ENDBRANCH  11  20
ENDBRANCH  10  14
ENDBRANCH   1  10
BRANCH   2  23
ATOM     23  C   UNL     1       5.086   4.151  19.361  0.00  0.00    +0.000 C 
BRANCH  23  24
ATOM     24  N   UNL     1       3.633   4.021  19.658  0.00  0.00    +0.000 NA
ATOM     25  C   UNL     1       2.850   4.681  18.590  0.00  0.00    +0.000 C 
ATOM     26  C   UNL     1       1.358   4.333  18.582  0.00  0.00    +0.000 C 
ATOM     27  C   UNL     1       1.135   2.830  18.562  0.00  0.00    +0.000 C 
ATOM     28  C   UNL     1       1.854   2.198  19.742  0.00  0.00    +0.000 C 
ATOM     29  C   UNL     1       3.334   2.578  19.767  0.00  0.00    +0.000 C 
ENDBRANCH  23  24
ENDBRANCH   2  23
TORSDOF 5
ENDMDL
MODEL 8
REMARK VINA RESULT:      -8.5      0.738      1.153
REMARK  Name = 
REMARK  5 active torsions:
REMARK  status: ('A' for Active; 'I' for Inactive)
REMARK    1  A    between atoms: C_5  and  C_6
REMARK    2  A    between atoms: C_9  and  C_10
REMARK    3  A    between atoms: C_10  and  N_11
REMARK    4  A    between atoms: C_12  and  C_13
REMARK    5  A    between atoms: C_13  and  N_14
REMARK                            x       y       z     vdW  Elec       q    Type
REMARK                         _______ _______ _______ _____ _____    ______ ____
ROOT
ATOM      1  N   UNL     1       6.494   4.992  17.036  0.00  0.00    +0.000 N 
ATOM      2  C   UNL     1       5.257   4.456  17.329  0.00  0.00    +0.000 A 
ATOM      3  N   UNL     1       4.681   4.002  16.230  0.00  0.00    +0.000 NA
ATOM      4  C   UNL     1       5.573   4.227  15.211  0.00  0.00    +0.000 A 
ATOM      5  C   UNL     1       5.468   3.922  13.845  0.00  0.00    +0.000 A 
ATOM      6  C   UNL     1       6.536   4.235  12.996  0.00  0.00    +0.000 A 
ATOM      7  C   UNL     1       7.689   4.843  13.498  0.00  0.00    +0.000 A 
ATOM      8  C   UNL     1       7.809   5.160  14.855  0.00  0.00    +0.000 A 
ATOM      9  C   UNL     1       6.729   4.832  15.687  0.00  0.00    +0.000 A 
ENDROOT
BRANCH   1  10
ATOM     10  C   UNL     1       7.421   5.592  17.975  0.00  0.00    +0.000 C 
BRANCH  10  14
ATOM     11  C   UNL     1       8.259   9.011  18.106  0.00  0.00    +0.000 A 
ATOM     12  N   UNL     1       7.251   9.134  17.269  0.00  0.00    +0.000 NA
ATOM     13  N   UNL     1       6.766   7.866  17.051  0.00  0.00    +0.000 NA
ATOM     14  C   UNL     1       7.499   7.054  17.784  0.00  0.00    +0.000 A 
ATOM     15  O   UNL     1       8.493   7.709  18.466  0.00  0.00    +0.000 OA
BRANCH  11  20
ATOM     16  F   UNL     1      11.333  13.094  20.362  0.00  0.00    +0.000 F 
ATOM     17  C   UNL     1      10.611  12.097  19.832  0.00  0.00    +0.000 A 
ATOM     18  C   UNL     1      10.608  11.915  18.459  0.00  0.00    +0.000 A 
ATOM     19  C   UNL     1       9.845  10.884  17.904  0.00  0.00    +0.000 A 
ATOM     20  C   UNL     1       9.078  10.041  18.725  0.00  0.00    +0.000 A 
ATOM     21  C   UNL     1       9.109  10.237  20.116  0.00  0.00    +0.000 A 
ATOM     22  C   UNL     1       9.877  11.266  20.668  0.00  0.00    +0.000 A 
ENDBRANCH  11  20
ENDBRANCH  10  14
ENDBRANCH   1  10
BRANCH   2  23
ATOM     23  C   UNL     1       4.701   4.287  18.717  0.00  0.00    +0.000 C 
BRANCH  23  24
ATOM     24  N   UNL     1       3.338   4.835  18.958  0.00  0.00    +0.000 NA
ATOM     25  C   UNL     1       2.893   4.473  20.322  0.00  0.00    +0.000 C 
ATOM     26  C   UNL     1       1.673   5.251  20.825  0.00  0.00    +0.000 C 
ATOM     27  C   UNL     1       1.881   6.752  20.708  0.00  0.00    +0.000 C 
ATOM     28  C   UNL     1       2.217   7.104  19.268  0.00  0.00    +0.000 C 
ATOM     29  C   UNL     1       3.411   6.298  18.757  0.00  0.00    +0.000 C 
ENDBRANCH  23  24
ENDBRANCH   2  23
TORSDOF 5
ENDMDL
MODEL 9
REMARK VINA RESULT:      -8.5      4.730      7.175
REMARK  Name = 
REMARK  5 active torsions:
REMARK  status: ('A' for Active; 'I' for Inactive)
REMARK    1  A    between atoms: C_5  and  C_6
REMARK    2  A    between atoms: C_9  and  C_10
REMARK    3  A    between atoms: C_10  and  N_11
REMARK    4  A    between atoms: C_12  and  C_13
REMARK    5  A    between atoms: C_13  and  N_14
REMARK                            x       y       z     vdW  Elec       q    Type
REMARK                         _______ _______ _______ _____ _____    ______ ____
ROOT
ATOM      1  N   UNL     1       2.400   6.064  18.968  0.00  0.00    +0.000 N 
ATOM      2  C   UNL     1       1.839   6.413  20.179  0.00  0.00    +0.000 A 
ATOM      3  N   UNL     1       1.263   5.363  20.737  0.00  0.00    +0.000 NA
ATOM      4  C   UNL     1       1.478   4.310  19.883  0.00  0.00    +0.000 A 
ATOM      5  C   UNL     1       1.092   2.966  20.005  0.00  0.00    +0.000 A 
ATOM      6  C   UNL     1       1.453   2.064  18.997  0.00  0.00    +0.000 A 
ATOM      7  C   UNL     1       2.184   2.493  17.887  0.00  0.00    +0.000 A 
ATOM      8  C   UNL     1       2.571   3.829  17.746  0.00  0.00    +0.000 A 
ATOM      9  C   UNL     1       2.204   4.713  18.771  0.00  0.00    +0.000 A 
ENDROOT
BRANCH   1  10
ATOM     10  C   UNL     1       3.112   6.940  18.059  0.00  0.00    +0.000 C 
BRANCH  10  14
ATOM     11  C   UNL     1       5.767   5.506  16.241  0.00  0.00    +0.000 A 
ATOM     12  N   UNL     1       6.340   5.440  17.424  0.00  0.00    +0.000 NA
ATOM     13  N   UNL     1       5.454   5.988  18.320  0.00  0.00    +0.000 NA
ATOM     14  C   UNL     1       4.388   6.336  17.627  0.00  0.00    +0.000 A 
ATOM     15  O   UNL     1       4.525   6.085  16.286  0.00  0.00    +0.000 OA
BRANCH  11  20
ATOM     16  F   UNL     1       7.379   3.607  11.241  0.00  0.00    +0.000 F 
ATOM     17  C   UNL     1       7.013   4.051  12.450  0.00  0.00    +0.000 A 
ATOM     18  C   UNL     1       5.855   3.564  13.032  0.00  0.00    +0.000 A 
ATOM     19  C   UNL     1       5.464   4.036  14.288  0.00  0.00    +0.000 A 
ATOM     20  C   UNL     1       6.232   5.003  14.958  0.00  0.00    +0.000 A 
ATOM     21  C   UNL     1       7.411   5.472  14.353  0.00  0.00    +0.000 A 
ATOM     22  C   UNL     1       7.800   4.994  13.099  0.00  0.00    +0.000 A 
ENDBRANCH  11  20
ENDBRANCH  10  14
ENDBRANCH   1  10
BRANCH   2  23
ATOM     23  C   UNL     1       1.978   7.760  20.834  0.00  0.00    +0.000 C 
BRANCH  23  24
ATOM     24  N   UNL     1       0.716   8.496  21.117  0.00  0.00    +0.000 NA
ATOM     25  C   UNL     1       0.779   9.082  22.474  0.00  0.00    +0.000 C 
ATOM     26  C   UNL     1      -0.289  10.142  22.764  0.00  0.00    +0.000 C 
ATOM     27  C   UNL     1      -0.296  11.232  21.706  0.00  0.00    +0.000 C 
ATOM     28  C   UNL     1      -0.485  10.604  20.336  0.00  0.00    +0.000 C 
ATOM     29  C   UNL     1       0.560   9.522  20.065  0.00  0.00    +0.000 C 
ENDBRANCH  23  24
ENDBRANCH   2  23
TORSDOF 5
ENDMDL
