MODEL 1
REMARK VINA RESULT:      -7.4      0.000      0.000
REMARK  Name = 
REMARK  2 active torsions:
REMARK  status: ('A' for Active; 'I' for Inactive)
REMARK    1  A    between atoms: C_1  and  N_2
REMARK    2  A    between atoms: C_18  and  O_19
REMARK                            x       y       z     vdW  Elec       q    Type
REMARK                         _______ _______ _______ _____ _____    ______ ____
ROOT
ATOM      1  C   UNL     1       0.898   3.713  20.450  0.00  0.00    +0.000 C 
ATOM      2  N   UNL     1       2.226   4.302  20.555  0.00  0.00    +0.000 NA
ATOM      3  C   UNL     1       3.152   3.526  19.696  0.00  0.00    +0.000 C 
ATOM      4  C   UNL     1       4.498   4.222  19.538  0.00  0.00    +0.000 C 
ATOM      5  C   UNL     1       4.188   5.446  18.718  0.00  0.00    +0.000 A 
ATOM      6  C   UNL     1       4.916   5.754  17.567  0.00  0.00    +0.000 A 
ATOM      7  C   UNL     1       4.505   6.804  16.788  0.00  0.00    +0.000 A 
ATOM      8  C   UNL     1       3.439   7.610  17.215  0.00  0.00    +0.000 A 
ATOM      9  C   UNL     1       2.745   7.407  18.435  0.00  0.00    +0.000 A 
ATOM     10  C   UNL     1       3.078   6.234  19.133  0.00  0.00    +0.000 A 
ATOM     11  C   UNL     1       2.406   5.795  20.426  0.00  0.00    +0.000 C 
ATOM     12  C   UNL     1       1.288   6.751  20.916  0.00  0.00    +0.000 C 
ATOM     13  C   UNL     1       1.281   8.167  20.341  0.00  0.00    +0.000 A 
ATOM     14  C   UNL     1       0.654   9.224  21.051  0.00  0.00    +0.000 A 
ATOM     15 BR   UNL     1      -0.067   9.022  22.802  0.00  0.00    +0.000 Br
ATOM     16  C   UNL     1       0.539  10.506  20.503  0.00  0.00    +0.000 A 
ATOM     17  C   UNL     1       1.004  10.754  19.225  0.00  0.00    +0.000 A 
ATOM     18  C   UNL     1       1.640   9.736  18.515  0.00  0.00    +0.000 A 
ATOM     19  C   UNL     1       1.851   8.442  19.060  0.00  0.00    +0.000 A 
ENDROOT
BRANCH  18  20
ATOM     20  O   UNL     1       2.072  10.073  17.258  0.00  0.00    +0.000 OA
ATOM     21  H   UNL     1       2.524  10.932  17.273  0.00  0.00    +0.000 HD
ENDBRANCH  18  20
TORSDOF 1
ENDMDL
MODEL 2
REMARK VINA RESULT:      -7.0      3.325      5.897
REMARK  Name = 
REMARK  2 active torsions:
REMARK  status: ('A' for Active; 'I' for Inactive)
REMARK    1  A    between atoms: C_1  and  N_2
REMARK    2  A    between atoms: C_18  and  O_19
REMARK                            x       y       z     vdW  Elec       q    Type
REMARK                         _______ _______ _______ _____ _____    ______ ____
ROOT
ATOM      1  C   UNL     1       1.941   7.671  19.241  0.00  0.00    +0.000 C 
ATOM      2  N   UNL     1       2.588   6.601  19.987  0.00  0.00    +0.000 NA
ATOM      3  C   UNL     1       1.540   5.699  20.522  0.00  0.00    +0.000 C 
ATOM      4  C   UNL     1       2.130   4.415  21.090  0.00  0.00    +0.000 C 
ATOM      5  C   UNL     1       2.651   3.682  19.883  0.00  0.00    +0.000 A 
ATOM      6  C   UNL     1       2.315   2.348  19.639  0.00  0.00    +0.000 A 
ATOM      7  C   UNL     1       2.710   1.774  18.460  0.00  0.00    +0.000 A 
ATOM      8  C   UNL     1       3.530   2.493  17.576  0.00  0.00    +0.000 A 
ATOM      9  C   UNL     1       3.994   3.807  17.835  0.00  0.00    +0.000 A 
ATOM     10  C   UNL     1       3.447   4.430  18.970  0.00  0.00    +0.000 A 
ATOM     11  C   UNL     1       3.760   5.860  19.388  0.00  0.00    +0.000 C 
ATOM     12  C   UNL     1       4.734   6.600  18.437  0.00  0.00    +0.000 C 
ATOM     13  C   UNL     1       5.576   5.740  17.494  0.00  0.00    +0.000 A 
ATOM     14  C   UNL     1       6.796   6.239  16.969  0.00  0.00    +0.000 A 
ATOM     15 BR   UNL     1       7.558   7.903  17.498  0.00  0.00    +0.000 Br
ATOM     16  C   UNL     1       7.534   5.520  16.024  0.00  0.00    +0.000 A 
ATOM     17  C   UNL     1       7.056   4.312  15.551  0.00  0.00    +0.000 A 
ATOM     18  C   UNL     1       5.870   3.792  16.065  0.00  0.00    +0.000 A 
ATOM     19  C   UNL     1       5.127   4.448  17.083  0.00  0.00    +0.000 A 
ENDROOT
BRANCH  18  20
ATOM     20  O   UNL     1       5.474   2.589  15.540  0.00  0.00    +0.000 OA
ATOM     21  H   UNL     1       6.162   1.918  15.674  0.00  0.00    +0.000 HD
ENDBRANCH  18  20
TORSDOF 1
ENDMDL
MODEL 3
REMARK VINA RESULT:      -6.4      2.676      4.350
REMARK  Name = 
REMARK  2 active torsions:
REMARK  status: ('A' for Active; 'I' for Inactive)
REMARK    1  A    between atoms: C_1  and  N_2
REMARK    2  A    between atoms: C_18  and  O_19
REMARK                            x       y       z     vdW  Elec       q    Type
REMARK                         _______ _______ _______ _____ _____    ______ ____
ROOT
ATOM      1  C   UNL     1       6.927   7.049  16.733  0.00  0.00    +0.000 C 
ATOM      2  N   UNL     1       5.844   6.228  16.210  0.00  0.00    +0.000 NA
ATOM      3  C   UNL     1       6.373   4.869  15.940  0.00  0.00    +0.000 C 
ATOM      4  C   UNL     1       5.259   3.875  15.641  0.00  0.00    +0.000 C 
ATOM      5  C   UNL     1       4.535   3.723  16.952  0.00  0.00    +0.000 A 
ATOM      6  C   UNL     1       4.277   2.465  17.500  0.00  0.00    +0.000 A 
ATOM      7  C   UNL     1       3.735   2.392  18.756  0.00  0.00    +0.000 A 
ATOM      8  C   UNL     1       3.352   3.568  19.418  0.00  0.00    +0.000 A 
ATOM      9  C   UNL     1       3.486   4.862  18.853  0.00  0.00    +0.000 A 
ATOM     10  C   UNL     1       4.189   4.922  17.638  0.00  0.00    +0.000 A 
ATOM     11  C   UNL     1       4.501   6.216  16.900  0.00  0.00    +0.000 C 
ATOM     12  C   UNL     1       3.992   7.493  17.615  0.00  0.00    +0.000 C 
ATOM     13  C   UNL     1       2.912   7.310  18.682  0.00  0.00    +0.000 A 
ATOM     14  C   UNL     1       2.054   8.389  19.024  0.00  0.00    +0.000 A 
ATOM     15 BR   UNL     1       2.057  10.057  18.105  0.00  0.00    +0.000 Br
ATOM     16  C   UNL     1       1.129   8.285  20.066  0.00  0.00    +0.000 A 
ATOM     17  C   UNL     1       1.064   7.126  20.817  0.00  0.00    +0.000 A 
ATOM     18  C   UNL     1       1.882   6.046  20.489  0.00  0.00    +0.000 A 
ATOM     19  C   UNL     1       2.781   6.077  19.390  0.00  0.00    +0.000 A 
ENDROOT
BRANCH  18  20
ATOM     20  O   UNL     1       1.747   4.938  21.285  0.00  0.00    +0.000 OA
ATOM     21  H   UNL     1       1.840   5.178  22.220  0.00  0.00    +0.000 HD
ENDBRANCH  18  20
TORSDOF 1
ENDMDL
MODEL 4
REMARK VINA RESULT:      -6.4      3.384      5.495
REMARK  Name = 
REMARK  2 active torsions:
REMARK  status: ('A' for Active; 'I' for Inactive)
REMARK    1  A    between atoms: C_1  and  N_2
REMARK    2  A    between atoms: C_18  and  O_19
REMARK                            x       y       z     vdW  Elec       q    Type
REMARK                         _______ _______ _______ _____ _____    ______ ____
ROOT
ATOM      1  C   UNL     1       5.693   3.566  15.626  0.00  0.00    +0.000 C 
ATOM      2  N   UNL     1       5.892   4.677  16.546  0.00  0.00    +0.000 NA
ATOM      3  C   UNL     1       5.745   5.944  15.791  0.00  0.00    +0.000 C 
ATOM      4  C   UNL     1       5.677   7.152  16.717  0.00  0.00    +0.000 C 
ATOM      5  C   UNL     1       4.357   7.002  17.425  0.00  0.00    +0.000 A 
ATOM      6  C   UNL     1       3.435   8.049  17.476  0.00  0.00    +0.000 A 
ATOM      7  C   UNL     1       2.199   7.813  18.018  0.00  0.00    +0.000 A 
ATOM      8  C   UNL     1       1.923   6.569  18.605  0.00  0.00    +0.000 A 
ATOM      9  C   UNL     1       2.868   5.515  18.682  0.00  0.00    +0.000 A 
ATOM     10  C   UNL     1       4.067   5.724  17.980  0.00  0.00    +0.000 A 
ATOM     11  C   UNL     1       5.183   4.694  17.879  0.00  0.00    +0.000 C 
ATOM     12  C   UNL     1       4.882   3.360  18.609  0.00  0.00    +0.000 C 
ATOM     13  C   UNL     1       3.772   3.375  19.660  0.00  0.00    +0.000 A 
ATOM     14  C   UNL     1       3.752   2.401  20.692  0.00  0.00    +0.000 A 
ATOM     15 BR   UNL     1       5.145   1.129  20.956  0.00  0.00    +0.000 Br
ATOM     16  C   UNL     1       2.694   2.324  21.604  0.00  0.00    +0.000 A 
ATOM     17  C   UNL     1       1.618   3.183  21.484  0.00  0.00    +0.000 A 
ATOM     18  C   UNL     1       1.623   4.160  20.490  0.00  0.00    +0.000 A 
ATOM     19  C   UNL     1       2.711   4.328  19.592  0.00  0.00    +0.000 A 
ENDROOT
BRANCH  18  20
ATOM     20  O   UNL     1       0.517   4.969  20.448  0.00  0.00    +0.000 OA
ATOM     21  H   UNL     1       0.385   5.318  19.553  0.00  0.00    +0.000 HD
ENDBRANCH  18  20
TORSDOF 1
ENDMDL
MODEL 5
REMARK VINA RESULT:      -6.2      9.951     10.916
REMARK  Name = 
REMARK  2 active torsions:
REMARK  status: ('A' for Active; 'I' for Inactive)
REMARK    1  A    between atoms: C_1  and  N_2
REMARK    2  A    between atoms: C_18  and  O_19
REMARK                            x       y       z     vdW  Elec       q    Type
REMARK                         _______ _______ _______ _____ _____    ______ ____
ROOT
ATOM      1  C   UNL     1       7.284  14.832  22.089  0.00  0.00    +0.000 C 
ATOM      2  N   UNL     1       8.397  13.893  22.130  0.00  0.00    +0.000 NA
ATOM      3  C   UNL     1       7.848  12.517  22.176  0.00  0.00    +0.000 C 
ATOM      4  C   UNL     1       8.929  11.467  21.956  0.00  0.00    +0.000 C 
ATOM      5  C   UNL     1       9.332  11.644  20.517  0.00  0.00    +0.000 A 
ATOM      6  C   UNL     1       9.375  10.563  19.634  0.00  0.00    +0.000 A 
ATOM      7  C   UNL     1       9.618  10.805  18.307  0.00  0.00    +0.000 A 
ATOM      8  C   UNL     1       9.926  12.106  17.882  0.00  0.00    +0.000 A 
ATOM      9  C   UNL     1      10.010  13.215  18.761  0.00  0.00    +0.000 A 
ATOM     10  C   UNL     1       9.600  12.973  20.083  0.00  0.00    +0.000 A 
ATOM     11  C   UNL     1       9.550  14.042  21.166  0.00  0.00    +0.000 C 
ATOM     12  C   UNL     1       9.975  15.452  20.686  0.00  0.00    +0.000 C 
ATOM     13  C   UNL     1      10.777  15.534  19.387  0.00  0.00    +0.000 A 
ATOM     14  C   UNL     1      11.610  16.654  19.129  0.00  0.00    +0.000 A 
ATOM     15 BR   UNL     1      11.926  18.035  20.402  0.00  0.00    +0.000 Br
ATOM     16  C   UNL     1      12.272  16.807  17.908  0.00  0.00    +0.000 A 
ATOM     17  C   UNL     1      12.089  15.876  16.903  0.00  0.00    +0.000 A 
ATOM     18  C   UNL     1      11.291  14.758  17.138  0.00  0.00    +0.000 A 
ATOM     19  C   UNL     1      10.662  14.518  18.389  0.00  0.00    +0.000 A 
ENDROOT
BRANCH  18  20
ATOM     20  O   UNL     1      11.169  13.886  16.087  0.00  0.00    +0.000 OA
ATOM     21  H   UNL     1      10.376  13.336  16.192  0.00  0.00    +0.000 HD
ENDBRANCH  18  20
TORSDOF 1
ENDMDL
MODEL 6
REMARK VINA RESULT:      -6.2      9.233     10.472
REMARK  Name = 
REMARK  2 active torsions:
REMARK  status: ('A' for Active; 'I' for Inactive)
REMARK    1  A    between atoms: C_1  and  N_2
REMARK    2  A    between atoms: C_18  and  O_19
REMARK                            x       y       z     vdW  Elec       q    Type
REMARK                         _______ _______ _______ _____ _____    ______ ____
ROOT
ATOM      1  C   UNL     1      10.386  17.084  18.011  0.00  0.00    +0.000 C 
ATOM      2  N   UNL     1      10.063  15.749  17.529  0.00  0.00    +0.000 NA
ATOM      3  C   UNL     1      11.291  15.145  16.959  0.00  0.00    +0.000 C 
ATOM      4  C   UNL     1      11.114  13.660  16.671  0.00  0.00    +0.000 C 
ATOM      5  C   UNL     1      11.003  13.029  18.033  0.00  0.00    +0.000 A 
ATOM      6  C   UNL     1      11.794  11.937  18.397  0.00  0.00    +0.000 A 
ATOM      7  C   UNL     1      11.745  11.489  19.691  0.00  0.00    +0.000 A 
ATOM      8  C   UNL     1      10.829  12.058  20.589  0.00  0.00    +0.000 A 
ATOM      9  C   UNL     1       9.923  13.088  20.234  0.00  0.00    +0.000 A 
ATOM     10  C   UNL     1      10.103  13.638  18.953  0.00  0.00    +0.000 A 
ATOM     11  C   UNL     1       9.282  14.796  18.402  0.00  0.00    +0.000 C 
ATOM     12  C   UNL     1       8.223  15.348  19.389  0.00  0.00    +0.000 C 
ATOM     13  C   UNL     1       7.827  14.450  20.561  0.00  0.00    +0.000 A 
ATOM     14  C   UNL     1       6.573  14.623  21.203  0.00  0.00    +0.000 A 
ATOM     15 BR   UNL     1       5.242  15.836  20.585  0.00  0.00    +0.000 Br
ATOM     16  C   UNL     1       6.227  13.889  22.342  0.00  0.00    +0.000 A 
ATOM     17  C   UNL     1       7.132  13.000  22.890  0.00  0.00    +0.000 A 
ATOM     18  C   UNL     1       8.363  12.799  22.267  0.00  0.00    +0.000 A 
ATOM     19  C   UNL     1       8.727  13.462  21.065  0.00  0.00    +0.000 A 
ENDROOT
BRANCH  18  20
ATOM     20  O   UNL     1       9.196  11.897  22.879  0.00  0.00    +0.000 OA
ATOM     21  H   UNL     1       9.579  11.292  22.225  0.00  0.00    +0.000 HD
ENDBRANCH  18  20
TORSDOF 1
ENDMDL
MODEL 7
REMARK VINA RESULT:      -6.1      6.254      9.643
REMARK  Name = 
REMARK  2 active torsions:
REMARK  status: ('A' for Active; 'I' for Inactive)
REMARK    1  A    between atoms: C_1  and  N_2
REMARK    2  A    between atoms: C_18  and  O_19
REMARK                            x       y       z     vdW  Elec       q    Type
REMARK                         _______ _______ _______ _____ _____    ______ ____
ROOT
ATOM      1  C   UNL     1      -2.910  15.071  21.637  0.00  0.00    +0.000 C 
ATOM      2  N   UNL     1      -3.757  13.913  21.888  0.00  0.00    +0.000 NA
ATOM      3  C   UNL     1      -5.132  14.389  22.171  0.00  0.00    +0.000 C 
ATOM      4  C   UNL     1      -6.138  13.245  22.186  0.00  0.00    +0.000 C 
ATOM      5  C   UNL     1      -6.204  12.791  20.752  0.00  0.00    +0.000 A 
ATOM      6  C   UNL     1      -7.424  12.652  20.087  0.00  0.00    +0.000 A 
ATOM      7  C   UNL     1      -7.416  12.365  18.748  0.00  0.00    +0.000 A 
ATOM      8  C   UNL     1      -6.199  12.109  18.099  0.00  0.00    +0.000 A 
ATOM      9  C   UNL     1      -4.944  12.122  18.758  0.00  0.00    +0.000 A 
ATOM     10  C   UNL     1      -4.963  12.575  20.088  0.00  0.00    +0.000 A 
ATOM     11  C   UNL     1      -3.719  12.729  20.951  0.00  0.00    +0.000 C 
ATOM     12  C   UNL     1      -2.398  12.359  20.231  0.00  0.00    +0.000 C 
ATOM     13  C   UNL     1      -2.508  11.507  18.967  0.00  0.00    +0.000 A 
ATOM     14  C   UNL     1      -1.406  10.725  18.533  0.00  0.00    +0.000 A 
ATOM     15 BR   UNL     1       0.202  10.538  19.537  0.00  0.00    +0.000 Br
ATOM     16  C   UNL     1      -1.440  10.019  17.326  0.00  0.00    +0.000 A 
ATOM     17  C   UNL     1      -2.549  10.109  16.506  0.00  0.00    +0.000 A 
ATOM     18  C   UNL     1      -3.651  10.856  16.919  0.00  0.00    +0.000 A 
ATOM     19  C   UNL     1      -3.694  11.525  18.171  0.00  0.00    +0.000 A 
ENDROOT
BRANCH  18  20
ATOM     20  O   UNL     1      -4.707  10.886  16.045  0.00  0.00    +0.000 OA
ATOM     21  H   UNL     1      -5.238  11.687  16.180  0.00  0.00    +0.000 HD
ENDBRANCH  18  20
TORSDOF 1
ENDMDL
MODEL 8
REMARK VINA RESULT:      -6.1      3.199      5.118
REMARK  Name = 
REMARK  2 active torsions:
REMARK  status: ('A' for Active; 'I' for Inactive)
REMARK    1  A    between atoms: C_1  and  N_2
REMARK    2  A    between atoms: C_18  and  O_19
REMARK                            x       y       z     vdW  Elec       q    Type
REMARK                         _______ _______ _______ _____ _____    ______ ____
ROOT
ATOM      1  C   UNL     1       4.860   1.883  20.672  0.00  0.00    +0.000 C 
ATOM      2  N   UNL     1       3.539   2.207  20.152  0.00  0.00    +0.000 NA
ATOM      3  C   UNL     1       2.623   2.426  21.297  0.00  0.00    +0.000 C 
ATOM      4  C   UNL     1       1.294   3.024  20.856  0.00  0.00    +0.000 C 
ATOM      5  C   UNL     1       1.644   4.416  20.406  0.00  0.00    +0.000 A 
ATOM      6  C   UNL     1       0.953   5.532  20.883  0.00  0.00    +0.000 A 
ATOM      7  C   UNL     1       1.401   6.781  20.542  0.00  0.00    +0.000 A 
ATOM      8  C   UNL     1       2.468   6.915  19.641  0.00  0.00    +0.000 A 
ATOM      9  C   UNL     1       3.125   5.813  19.039  0.00  0.00    +0.000 A 
ATOM     10  C   UNL     1       2.755   4.548  19.526  0.00  0.00    +0.000 A 
ATOM     11  C   UNL     1       3.386   3.241  19.063  0.00  0.00    +0.000 C 
ATOM     12  C   UNL     1       4.504   3.417  18.005  0.00  0.00    +0.000 C 
ATOM     13  C   UNL     1       4.550   4.747  17.253  0.00  0.00    +0.000 A 
ATOM     14  C   UNL     1       5.174   4.828  15.980  0.00  0.00    +0.000 A 
ATOM     15 BR   UNL     1       5.844   3.310  15.047  0.00  0.00    +0.000 Br
ATOM     16  C   UNL     1       5.324   6.050  15.316  0.00  0.00    +0.000 A 
ATOM     17  C   UNL     1       4.897   7.219  15.919  0.00  0.00    +0.000 A 
ATOM     18  C   UNL     1       4.265   7.162  17.160  0.00  0.00    +0.000 A 
ATOM     19  C   UNL     1       4.019   5.938  17.836  0.00  0.00    +0.000 A 
ENDROOT
BRANCH  18  20
ATOM     20  O   UNL     1       3.872   8.369  17.679  0.00  0.00    +0.000 OA
ATOM     21  H   UNL     1       3.854   8.332  18.648  0.00  0.00    +0.000 HD
ENDBRANCH  18  20
TORSDOF 1
ENDMDL
MODEL 9
REMARK VINA RESULT:      -6.0      5.874      8.983
REMARK  Name = 
REMARK  2 active torsions:
REMARK  status: ('A' for Active; 'I' for Inactive)
REMARK    1  A    between atoms: C_1  and  N_2
REMARK    2  A    between atoms: C_18  and  O_19
REMARK                            x       y       z     vdW  Elec       q    Type
REMARK                         _______ _______ _______ _____ _____    ______ ____
ROOT
ATOM      1  C   UNL     1      -0.804  14.218  23.069  0.00  0.00    +0.000 C 
ATOM      2  N   UNL     1      -1.868  13.235  23.220  0.00  0.00    +0.000 NA
ATOM      3  C   UNL     1      -3.037  13.900  23.844  0.00  0.00    +0.000 C 
ATOM      4  C   UNL     1      -4.280  13.022  23.800  0.00  0.00    +0.000 C 
ATOM      5  C   UNL     1      -4.640  12.960  22.340  0.00  0.00    +0.000 A 
ATOM      6  C   UNL     1      -5.932  13.245  21.895  0.00  0.00    +0.000 A 
ATOM      7  C   UNL     1      -6.168  13.303  20.547  0.00  0.00    +0.000 A 
ATOM      8  C   UNL     1      -5.144  12.969  19.647  0.00  0.00    +0.000 A 
ATOM      9  C   UNL     1      -3.850  12.559  20.054  0.00  0.00    +0.000 A 
ATOM     10  C   UNL     1      -3.586  12.663  21.430  0.00  0.00    +0.000 A 
ATOM     11  C   UNL     1      -2.241  12.338  22.065  0.00  0.00    +0.000 C 
ATOM     12  C   UNL     1      -1.154  11.892  21.054  0.00  0.00    +0.000 C 
ATOM     13  C   UNL     1      -1.631  11.421  19.680  0.00  0.00    +0.000 A 
ATOM     14  C   UNL     1      -0.819  10.560  18.897  0.00  0.00    +0.000 A 
ATOM     15 BR   UNL     1       0.810   9.802  19.528  0.00  0.00    +0.000 Br
ATOM     16  C   UNL     1      -1.179  10.197  17.596  0.00  0.00    +0.000 A 
ATOM     17  C   UNL     1      -2.330  10.715  17.030  0.00  0.00    +0.000 A 
ATOM     18  C   UNL     1      -3.154  11.548  17.785  0.00  0.00    +0.000 A 
ATOM     19  C   UNL     1      -2.870  11.880  19.137  0.00  0.00    +0.000 A 
ENDROOT
BRANCH  18  20
ATOM     20  O   UNL     1      -4.274  12.011  17.145  0.00  0.00    +0.000 OA
ATOM     21  H   UNL     1      -4.407  11.538  16.308  0.00  0.00    +0.000 HD
ENDBRANCH  18  20
TORSDOF 1
ENDMDL
