MODEL 1
REMARK VINA RESULT:      -7.1      0.000      0.000
REMARK  Name = 
REMARK  11 active torsions:
REMARK  status: ('A' for Active; 'I' for Inactive)
REMARK    1  A    between atoms: C_1  and  O_2
REMARK    2  A    between atoms: O_2  and  C_3
REMARK    3  A    between atoms: C_8  and  C_9
REMARK    4  A    between atoms: C_9  and  C_10
REMARK    5  A    between atoms: C_9  and  C_11
REMARK    6  A    between atoms: C_11  and  O_13
REMARK    7  A    between atoms: O_13  and  C_14
REMARK    8  A    between atoms: C_14  and  C_15
REMARK    9  A    between atoms: C_15  and  C_16
REMARK   10  A    between atoms: C_16  and  SE_17
REMARK   11  A    between atoms: SE_17  and  C_18
REMARK                            x       y       z     vdW  Elec       q    Type
REMARK                         _______ _______ _______ _____ _____    ______ ____
ROOT
ATOM      1  C   UNL     1       3.186   4.631  19.119  0.00  0.00    +0.000 C 
ATOM      2  C   UNL     1       2.530   3.827  20.250  0.00  0.00    +0.000 C 
ENDROOT
BRANCH   1   8
ATOM      3  C   UNL     1       0.602  10.569  20.304  0.00  0.00    +0.000 A 
ATOM      4  C   UNL     1       0.527   9.775  21.467  0.00  0.00    +0.000 A 
ATOM      5  C   UNL     1       1.017   8.463  21.464  0.00  0.00    +0.000 A 
ATOM      6  C   UNL     1       1.590   7.921  20.303  0.00  0.00    +0.000 A 
ATOM      7  C   UNL     1       2.094   6.608  20.292  0.00  0.00    +0.000 A 
ATOM      8  C   UNL     1       2.673   6.068  19.124  0.00  0.00    +0.000 A 
ATOM      9  C   UNL     1       2.732   6.868  17.967  0.00  0.00    +0.000 A 
ATOM     10  C   UNL     1       2.230   8.172  17.971  0.00  0.00    +0.000 A 
ATOM     11  C   UNL     1       1.662   8.709  19.132  0.00  0.00    +0.000 A 
ATOM     12  C   UNL     1       1.163  10.021  19.142  0.00  0.00    +0.000 A 
BRANCH   3  14
ATOM     13  C   UNL     1       0.311  12.799  21.249  0.00  0.00    +0.000 C 
ATOM     14  O   UNL     1       0.156  11.851  20.256  0.00  0.00    +0.000 OA
ENDBRANCH   3  14
ENDBRANCH   1   8
BRANCH   1  15
ATOM     15  C   UNL     1       2.955   3.908  17.808  0.00  0.00    +0.000 C 
ATOM     16  O   UNL     1       1.826   3.552  17.497  0.00  0.00    +0.000 OA
BRANCH  15  17
ATOM     17  O   UNL     1       4.023   3.557  17.037  0.00  0.00    +0.000 OA
BRANCH  17  18
ATOM     18  C   UNL     1       4.719   4.443  16.225  0.00  0.00    +0.000 C 
BRANCH  18  19
ATOM     19  C   UNL     1       5.977   3.803  15.634  0.00  0.00    +0.000 C 
BRANCH  19  20
ATOM     20  C   UNL     1       7.182   4.738  15.802  0.00  0.00    +0.000 C 
BRANCH  20  21
ATOM     21 SE   UNL     1       6.669   6.320  16.829  0.00  0.00    +0.000 Se
BRANCH  21  22
ATOM     22  C   UNL     1       7.497   5.761  18.520  0.00  0.00    +0.000 C 
ATOM     23  F   UNL     1       6.553   5.553  19.508  0.00  0.00    +0.000 F 
ATOM     24  F   UNL     1       8.189   4.582  18.319  0.00  0.00    +0.000 F 
ATOM     25  F   UNL     1       8.371   6.744  18.943  0.00  0.00    +0.000 F 
ENDBRANCH  21  22
ENDBRANCH  20  21
ENDBRANCH  19  20
ENDBRANCH  18  19
ENDBRANCH  17  18
ENDBRANCH  15  17
ENDBRANCH   1  15
TORSDOF 9
ENDMDL
MODEL 2
REMARK VINA RESULT:      -7.0      3.182      4.059
REMARK  Name = 
REMARK  11 active torsions:
REMARK  status: ('A' for Active; 'I' for Inactive)
REMARK    1  A    between atoms: C_1  and  O_2
REMARK    2  A    between atoms: O_2  and  C_3
REMARK    3  A    between atoms: C_8  and  C_9
REMARK    4  A    between atoms: C_9  and  C_10
REMARK    5  A    between atoms: C_9  and  C_11
REMARK    6  A    between atoms: C_11  and  O_13
REMARK    7  A    between atoms: O_13  and  C_14
REMARK    8  A    between atoms: C_14  and  C_15
REMARK    9  A    between atoms: C_15  and  C_16
REMARK   10  A    between atoms: C_16  and  SE_17
REMARK   11  A    between atoms: SE_17  and  C_18
REMARK                            x       y       z     vdW  Elec       q    Type
REMARK                         _______ _______ _______ _____ _____    ______ ____
ROOT
ATOM      1  C   UNL     1       3.863   6.142  17.654  0.00  0.00    +0.000 C 
ATOM      2  C   UNL     1       4.799   6.703  16.574  0.00  0.00    +0.000 C 
ENDROOT
BRANCH   1   8
ATOM      3  C   UNL     1      -0.064  10.159  21.085  0.00  0.00    +0.000 A 
ATOM      4  C   UNL     1       0.212   9.002  21.842  0.00  0.00    +0.000 A 
ATOM      5  C   UNL     1       1.032   7.993  21.321  0.00  0.00    +0.000 A 
ATOM      6  C   UNL     1       1.592   8.121  20.040  0.00  0.00    +0.000 A 
ATOM      7  C   UNL     1       2.425   7.118  19.512  0.00  0.00    +0.000 A 
ATOM      8  C   UNL     1       2.988   7.253  18.226  0.00  0.00    +0.000 A 
ATOM      9  C   UNL     1       2.696   8.409  17.477  0.00  0.00    +0.000 A 
ATOM     10  C   UNL     1       1.866   9.407  17.995  0.00  0.00    +0.000 A 
ATOM     11  C   UNL     1       1.313   9.276  19.274  0.00  0.00    +0.000 A 
ATOM     12  C   UNL     1       0.485  10.280  19.801  0.00  0.00    +0.000 A 
BRANCH   3  14
ATOM     13  C   UNL     1      -1.625  12.008  20.775  0.00  0.00    +0.000 C 
ATOM     14  O   UNL     1      -0.840  11.174  21.547  0.00  0.00    +0.000 OA
ENDBRANCH   3  14
ENDBRANCH   1   8
BRANCH   1  15
ATOM     15  C   UNL     1       4.695   5.426  18.698  0.00  0.00    +0.000 C 
ATOM     16  O   UNL     1       5.829   5.815  18.948  0.00  0.00    +0.000 OA
BRANCH  15  17
ATOM     17  O   UNL     1       4.219   4.283  19.268  0.00  0.00    +0.000 OA
BRANCH  17  18
ATOM     18  C   UNL     1       4.378   3.018  18.720  0.00  0.00    +0.000 C 
BRANCH  18  19
ATOM     19  C   UNL     1       3.151   2.593  17.909  0.00  0.00    +0.000 C 
BRANCH  19  20
ATOM     20  C   UNL     1       1.904   3.347  18.391  0.00  0.00    +0.000 C 
BRANCH  20  21
ATOM     21 SE   UNL     1       0.859   2.219  19.598  0.00  0.00    +0.000 Se
BRANCH  21  22
ATOM     22  C   UNL     1       1.608   2.934  21.268  0.00  0.00    +0.000 C 
ATOM     23  F   UNL     1       1.694   4.313  21.240  0.00  0.00    +0.000 F 
ATOM     24  F   UNL     1       0.797   2.565  22.323  0.00  0.00    +0.000 F 
ATOM     25  F   UNL     1       2.875   2.415  21.453  0.00  0.00    +0.000 F 
ENDBRANCH  21  22
ENDBRANCH  20  21
ENDBRANCH  19  20
ENDBRANCH  18  19
ENDBRANCH  17  18
ENDBRANCH  15  17
ENDBRANCH   1  15
TORSDOF 9
ENDMDL
MODEL 3
REMARK VINA RESULT:      -7.0      2.980      4.191
REMARK  Name = 
REMARK  11 active torsions:
REMARK  status: ('A' for Active; 'I' for Inactive)
REMARK    1  A    between atoms: C_1  and  O_2
REMARK    2  A    between atoms: O_2  and  C_3
REMARK    3  A    between atoms: C_8  and  C_9
REMARK    4  A    between atoms: C_9  and  C_10
REMARK    5  A    between atoms: C_9  and  C_11
REMARK    6  A    between atoms: C_11  and  O_13
REMARK    7  A    between atoms: O_13  and  C_14
REMARK    8  A    between atoms: C_14  and  C_15
REMARK    9  A    between atoms: C_15  and  C_16
REMARK   10  A    between atoms: C_16  and  SE_17
REMARK   11  A    between atoms: SE_17  and  C_18
REMARK                            x       y       z     vdW  Elec       q    Type
REMARK                         _______ _______ _______ _____ _____    ______ ____
ROOT
ATOM      1  C   UNL     1       4.215   6.037  17.526  0.00  0.00    +0.000 C 
ATOM      2  C   UNL     1       5.247   6.946  16.843  0.00  0.00    +0.000 C 
ENDROOT
BRANCH   1   8
ATOM      3  C   UNL     1       0.002  10.438  20.020  0.00  0.00    +0.000 A 
ATOM      4  C   UNL     1       0.402  10.839  18.728  0.00  0.00    +0.000 A 
ATOM      5  C   UNL     1       1.301  10.060  17.989  0.00  0.00    +0.000 A 
ATOM      6  C   UNL     1       1.814   8.867  18.523  0.00  0.00    +0.000 A 
ATOM      7  C   UNL     1       2.709   8.071  17.786  0.00  0.00    +0.000 A 
ATOM      8  C   UNL     1       3.220   6.872  18.326  0.00  0.00    +0.000 A 
ATOM      9  C   UNL     1       2.820   6.489  19.619  0.00  0.00    +0.000 A 
ATOM     10  C   UNL     1       1.933   7.276  20.358  0.00  0.00    +0.000 A 
ATOM     11  C   UNL     1       1.422   8.463  19.820  0.00  0.00    +0.000 A 
ATOM     12  C   UNL     1       0.526   9.254  20.556  0.00  0.00    +0.000 A 
BRANCH   3  14
ATOM     13  C   UNL     1      -1.434  12.365  20.434  0.00  0.00    +0.000 C 
ATOM     14  O   UNL     1      -0.877  11.148  20.773  0.00  0.00    +0.000 OA
ENDBRANCH   3  14
ENDBRANCH   1   8
BRANCH   1  15
ATOM     15  C   UNL     1       4.948   5.004  18.357  0.00  0.00    +0.000 C 
ATOM     16  O   UNL     1       6.130   5.167  18.631  0.00  0.00    +0.000 OA
BRANCH  15  17
ATOM     17  O   UNL     1       4.317   3.844  18.695  0.00  0.00    +0.000 OA
BRANCH  17  18
ATOM     18  C   UNL     1       3.883   2.900  17.775  0.00  0.00    +0.000 C 
BRANCH  18  19
ATOM     19  C   UNL     1       2.576   3.323  17.101  0.00  0.00    +0.000 C 
BRANCH  19  20
ATOM     20  C   UNL     1       1.437   3.377  18.129  0.00  0.00    +0.000 C 
BRANCH  20  21
ATOM     21 SE   UNL     1       1.711   2.021  19.511  0.00  0.00    +0.000 Se
BRANCH  21  22
ATOM     22  C   UNL     1       1.456   3.219  21.046  0.00  0.00    +0.000 C 
ATOM     23  F   UNL     1       0.605   4.266  20.743  0.00  0.00    +0.000 F 
ATOM     24  F   UNL     1       0.915   2.503  22.096  0.00  0.00    +0.000 F 
ATOM     25  F   UNL     1       2.680   3.739  21.422  0.00  0.00    +0.000 F 
ENDBRANCH  21  22
ENDBRANCH  20  21
ENDBRANCH  19  20
ENDBRANCH  18  19
ENDBRANCH  17  18
ENDBRANCH  15  17
ENDBRANCH   1  15
TORSDOF 9
ENDMDL
MODEL 4
REMARK VINA RESULT:      -6.9      3.226      4.112
REMARK  Name = 
REMARK  11 active torsions:
REMARK  status: ('A' for Active; 'I' for Inactive)
REMARK    1  A    between atoms: C_1  and  O_2
REMARK    2  A    between atoms: O_2  and  C_3
REMARK    3  A    between atoms: C_8  and  C_9
REMARK    4  A    between atoms: C_9  and  C_10
REMARK    5  A    between atoms: C_9  and  C_11
REMARK    6  A    between atoms: C_11  and  O_13
REMARK    7  A    between atoms: O_13  and  C_14
REMARK    8  A    between atoms: C_14  and  C_15
REMARK    9  A    between atoms: C_15  and  C_16
REMARK   10  A    between atoms: C_16  and  SE_17
REMARK   11  A    between atoms: SE_17  and  C_18
REMARK                            x       y       z     vdW  Elec       q    Type
REMARK                         _______ _______ _______ _____ _____    ______ ____
ROOT
ATOM      1  C   UNL     1       3.849   6.284  17.619  0.00  0.00    +0.000 C 
ATOM      2  C   UNL     1       4.572   6.829  16.379  0.00  0.00    +0.000 C 
ENDROOT
BRANCH   1   8
ATOM      3  C   UNL     1      -0.106  10.136  21.203  0.00  0.00    +0.000 A 
ATOM      4  C   UNL     1       0.221   8.976  21.936  0.00  0.00    +0.000 A 
ATOM      5  C   UNL     1       1.056   7.999  21.381  0.00  0.00    +0.000 A 
ATOM      6  C   UNL     1       1.581   8.162  20.089  0.00  0.00    +0.000 A 
ATOM      7  C   UNL     1       2.429   7.191  19.525  0.00  0.00    +0.000 A 
ATOM      8  C   UNL     1       2.956   7.361  18.228  0.00  0.00    +0.000 A 
ATOM      9  C   UNL     1       2.614   8.519  17.505  0.00  0.00    +0.000 A 
ATOM     10  C   UNL     1       1.769   9.486  18.058  0.00  0.00    +0.000 A 
ATOM     11  C   UNL     1       1.251   9.319  19.347  0.00  0.00    +0.000 A 
ATOM     12  C   UNL     1       0.408  10.291  19.909  0.00  0.00    +0.000 A 
BRANCH   3  14
ATOM     13  C   UNL     1      -1.398  11.188  22.986  0.00  0.00    +0.000 C 
ATOM     14  O   UNL     1      -0.899  11.122  21.699  0.00  0.00    +0.000 OA
ENDBRANCH   3  14
ENDBRANCH   1   8
BRANCH   1  15
ATOM     15  C   UNL     1       4.880   5.732  18.582  0.00  0.00    +0.000 C 
ATOM     16  O   UNL     1       6.054   6.063  18.476  0.00  0.00    +0.000 OA
BRANCH  15  17
ATOM     17  O   UNL     1       4.512   4.782  19.487  0.00  0.00    +0.000 OA
BRANCH  17  18
ATOM     18  C   UNL     1       4.851   3.440  19.385  0.00  0.00    +0.000 C 
BRANCH  18  19
ATOM     19  C   UNL     1       4.168   2.771  18.189  0.00  0.00    +0.000 C 
BRANCH  19  20
ATOM     20  C   UNL     1       3.077   1.804  18.669  0.00  0.00    +0.000 C 
BRANCH  20  21
ATOM     21 SE   UNL     1       2.358   2.398  20.387  0.00  0.00    +0.000 Se
BRANCH  21  22
ATOM     22  C   UNL     1       0.946   3.546  19.647  0.00  0.00    +0.000 C 
ATOM     23  F   UNL     1       1.379   4.232  18.528  0.00  0.00    +0.000 F 
ATOM     24  F   UNL     1      -0.136   2.764  19.293  0.00  0.00    +0.000 F 
ATOM     25  F   UNL     1       0.561   4.463  20.607  0.00  0.00    +0.000 F 
ENDBRANCH  21  22
ENDBRANCH  20  21
ENDBRANCH  19  20
ENDBRANCH  18  19
ENDBRANCH  17  18
ENDBRANCH  15  17
ENDBRANCH   1  15
TORSDOF 9
ENDMDL
MODEL 5
REMARK VINA RESULT:      -6.9      0.835      1.313
REMARK  Name = 
REMARK  11 active torsions:
REMARK  status: ('A' for Active; 'I' for Inactive)
REMARK    1  A    between atoms: C_1  and  O_2
REMARK    2  A    between atoms: O_2  and  C_3
REMARK    3  A    between atoms: C_8  and  C_9
REMARK    4  A    between atoms: C_9  and  C_10
REMARK    5  A    between atoms: C_9  and  C_11
REMARK    6  A    between atoms: C_11  and  O_13
REMARK    7  A    between atoms: O_13  and  C_14
REMARK    8  A    between atoms: C_14  and  C_15
REMARK    9  A    between atoms: C_15  and  C_16
REMARK   10  A    between atoms: C_16  and  SE_17
REMARK   11  A    between atoms: SE_17  and  C_18
REMARK                            x       y       z     vdW  Elec       q    Type
REMARK                         _______ _______ _______ _____ _____    ______ ____
ROOT
ATOM      1  C   UNL     1       2.765   3.986  19.251  0.00  0.00    +0.000 C 
ATOM      2  C   UNL     1       1.723   3.205  18.438  0.00  0.00    +0.000 C 
ENDROOT
BRANCH   1   8
ATOM      3  C   UNL     1       0.981  10.249  20.213  0.00  0.00    +0.000 A 
ATOM      4  C   UNL     1       0.737   9.500  21.382  0.00  0.00    +0.000 A 
ATOM      5  C   UNL     1       1.038   8.132  21.424  0.00  0.00    +0.000 A 
ATOM      6  C   UNL     1       1.588   7.491  20.303  0.00  0.00    +0.000 A 
ATOM      7  C   UNL     1       1.903   6.120  20.336  0.00  0.00    +0.000 A 
ATOM      8  C   UNL     1       2.458   5.481  19.209  0.00  0.00    +0.000 A 
ATOM      9  C   UNL     1       2.687   6.239  18.046  0.00  0.00    +0.000 A 
ATOM     10  C   UNL     1       2.374   7.601  18.004  0.00  0.00    +0.000 A 
ATOM     11  C   UNL     1       1.828   8.236  19.125  0.00  0.00    +0.000 A 
ATOM     12  C   UNL     1       1.518   9.605  19.091  0.00  0.00    +0.000 A 
BRANCH   3  14
ATOM     13  C   UNL     1      -0.252  12.264  20.825  0.00  0.00    +0.000 C 
ATOM     14  O   UNL     1       0.722  11.580  20.123  0.00  0.00    +0.000 OA
ENDBRANCH   3  14
ENDBRANCH   1   8
BRANCH   1  15
ATOM     15  C   UNL     1       4.147   3.635  18.741  0.00  0.00    +0.000 C 
ATOM     16  O   UNL     1       5.110   3.692  19.496  0.00  0.00    +0.000 OA
BRANCH  15  17
ATOM     17  O   UNL     1       4.327   3.370  17.416  0.00  0.00    +0.000 OA
BRANCH  17  18
ATOM     18  C   UNL     1       4.730   4.315  16.483  0.00  0.00    +0.000 C 
BRANCH  18  19
ATOM     19  C   UNL     1       6.049   3.924  15.812  0.00  0.00    +0.000 C 
BRANCH  19  20
ATOM     20  C   UNL     1       7.044   5.091  15.867  0.00  0.00    +0.000 C 
BRANCH  20  21
ATOM     21 SE   UNL     1       6.408   6.461  17.108  0.00  0.00    +0.000 Se
BRANCH  21  22
ATOM     22  C   UNL     1       7.618   5.998  18.584  0.00  0.00    +0.000 C 
ATOM     23  F   UNL     1       8.591   6.962  18.771  0.00  0.00    +0.000 F 
ATOM     24  F   UNL     1       6.887   5.879  19.750  0.00  0.00    +0.000 F 
ATOM     25  F   UNL     1       8.236   4.795  18.301  0.00  0.00    +0.000 F 
ENDBRANCH  21  22
ENDBRANCH  20  21
ENDBRANCH  19  20
ENDBRANCH  18  19
ENDBRANCH  17  18
ENDBRANCH  15  17
ENDBRANCH   1  15
TORSDOF 9
ENDMDL
MODEL 6
REMARK VINA RESULT:      -6.9      2.955      4.028
REMARK  Name = 
REMARK  11 active torsions:
REMARK  status: ('A' for Active; 'I' for Inactive)
REMARK    1  A    between atoms: C_1  and  O_2
REMARK    2  A    between atoms: O_2  and  C_3
REMARK    3  A    between atoms: C_8  and  C_9
REMARK    4  A    between atoms: C_9  and  C_10
REMARK    5  A    between atoms: C_9  and  C_11
REMARK    6  A    between atoms: C_11  and  O_13
REMARK    7  A    between atoms: O_13  and  C_14
REMARK    8  A    between atoms: C_14  and  C_15
REMARK    9  A    between atoms: C_15  and  C_16
REMARK   10  A    between atoms: C_16  and  SE_17
REMARK   11  A    between atoms: SE_17  and  C_18
REMARK                            x       y       z     vdW  Elec       q    Type
REMARK                         _______ _______ _______ _____ _____    ______ ____
ROOT
ATOM      1  C   UNL     1       3.704   6.496  17.559  0.00  0.00    +0.000 C 
ATOM      2  C   UNL     1       4.898   7.193  16.892  0.00  0.00    +0.000 C 
ENDROOT
BRANCH   1   8
ATOM      3  C   UNL     1      -0.188  10.089  21.468  0.00  0.00    +0.000 A 
ATOM      4  C   UNL     1       0.203   8.911  22.138  0.00  0.00    +0.000 A 
ATOM      5  C   UNL     1       1.039   7.980  21.507  0.00  0.00    +0.000 A 
ATOM      6  C   UNL     1       1.500   8.209  20.201  0.00  0.00    +0.000 A 
ATOM      7  C   UNL     1       2.347   7.287  19.562  0.00  0.00    +0.000 A 
ATOM      8  C   UNL     1       2.811   7.522  18.251  0.00  0.00    +0.000 A 
ATOM      9  C   UNL     1       2.405   8.697  17.591  0.00  0.00    +0.000 A 
ATOM     10  C   UNL     1       1.560   9.617  18.219  0.00  0.00    +0.000 A 
ATOM     11  C   UNL     1       1.106   9.385  19.522  0.00  0.00    +0.000 A 
ATOM     12  C   UNL     1       0.263  10.309  20.160  0.00  0.00    +0.000 A 
BRANCH   3  14
ATOM     13  C   UNL     1      -0.806  12.398  21.956  0.00  0.00    +0.000 C 
ATOM     14  O   UNL     1      -0.984  11.031  22.038  0.00  0.00    +0.000 OA
ENDBRANCH   3  14
ENDBRANCH   1   8
BRANCH   1  15
ATOM     15  C   UNL     1       4.223   5.418  18.488  0.00  0.00    +0.000 C 
ATOM     16  O   UNL     1       5.171   5.653  19.226  0.00  0.00    +0.000 OA
BRANCH  15  17
ATOM     17  O   UNL     1       3.705   4.160  18.413  0.00  0.00    +0.000 OA
BRANCH  17  18
ATOM     18  C   UNL     1       3.958   3.278  17.372  0.00  0.00    +0.000 C 
BRANCH  18  19
ATOM     19  C   UNL     1       3.489   1.859  17.702  0.00  0.00    +0.000 C 
BRANCH  19  20
ATOM     20  C   UNL     1       2.958   1.793  19.141  0.00  0.00    +0.000 C 
BRANCH  20  21
ATOM     21 SE   UNL     1       1.110   2.428  19.207  0.00  0.00    +0.000 Se
BRANCH  21  22
ATOM     22  C   UNL     1       1.303   3.492  20.846  0.00  0.00    +0.000 C 
ATOM     23  F   UNL     1       2.624   3.819  21.092  0.00  0.00    +0.000 F 
ATOM     24  F   UNL     1       0.578   4.661  20.717  0.00  0.00    +0.000 F 
ATOM     25  F   UNL     1       0.821   2.764  21.917  0.00  0.00    +0.000 F 
ENDBRANCH  21  22
ENDBRANCH  20  21
ENDBRANCH  19  20
ENDBRANCH  18  19
ENDBRANCH  17  18
ENDBRANCH  15  17
ENDBRANCH   1  15
TORSDOF 9
ENDMDL
MODEL 7
REMARK VINA RESULT:      -6.9      1.127      1.369
REMARK  Name = 
REMARK  11 active torsions:
REMARK  status: ('A' for Active; 'I' for Inactive)
REMARK    1  A    between atoms: C_1  and  O_2
REMARK    2  A    between atoms: O_2  and  C_3
REMARK    3  A    between atoms: C_8  and  C_9
REMARK    4  A    between atoms: C_9  and  C_10
REMARK    5  A    between atoms: C_9  and  C_11
REMARK    6  A    between atoms: C_11  and  O_13
REMARK    7  A    between atoms: O_13  and  C_14
REMARK    8  A    between atoms: C_14  and  C_15
REMARK    9  A    between atoms: C_15  and  C_16
REMARK   10  A    between atoms: C_16  and  SE_17
REMARK   11  A    between atoms: SE_17  and  C_18
REMARK                            x       y       z     vdW  Elec       q    Type
REMARK                         _______ _______ _______ _____ _____    ______ ____
ROOT
ATOM      1  C   UNL     1       2.843   4.725  19.499  0.00  0.00    +0.000 C 
ATOM      2  C   UNL     1       2.396   4.204  20.873  0.00  0.00    +0.000 C 
ENDROOT
BRANCH   1   8
ATOM      3  C   UNL     1       0.685  10.928  19.947  0.00  0.00    +0.000 A 
ATOM      4  C   UNL     1       0.470  10.259  21.170  0.00  0.00    +0.000 A 
ATOM      5  C   UNL     1       0.850   8.920  21.322  0.00  0.00    +0.000 A 
ATOM      6  C   UNL     1       1.450   8.226  20.260  0.00  0.00    +0.000 A 
ATOM      7  C   UNL     1       1.844   6.883  20.405  0.00  0.00    +0.000 A 
ATOM      8  C   UNL     1       2.450   6.191  19.336  0.00  0.00    +0.000 A 
ATOM      9  C   UNL     1       2.650   6.867  18.118  0.00  0.00    +0.000 A 
ATOM     10  C   UNL     1       2.258   8.201  17.967  0.00  0.00    +0.000 A 
ATOM     11  C   UNL     1       1.662   8.889  19.029  0.00  0.00    +0.000 A 
ATOM     12  C   UNL     1       1.273  10.230  18.884  0.00  0.00    +0.000 A 
BRANCH   3  14
ATOM     13  C   UNL     1      -0.258  12.747  18.623  0.00  0.00    +0.000 C 
ATOM     14  O   UNL     1       0.350  12.230  19.750  0.00  0.00    +0.000 OA
ENDBRANCH   3  14
ENDBRANCH   1   8
BRANCH   1  15
ATOM     15  C   UNL     1       2.276   3.821  18.424  0.00  0.00    +0.000 C 
ATOM     16  O   UNL     1       1.133   3.393  18.526  0.00  0.00    +0.000 OA
BRANCH  15  17
ATOM     17  O   UNL     1       3.081   3.396  17.410  0.00  0.00    +0.000 OA
BRANCH  17  18
ATOM     18  C   UNL     1       4.461   3.546  17.400  0.00  0.00    +0.000 C 
BRANCH  18  19
ATOM     19  C   UNL     1       4.916   4.549  16.337  0.00  0.00    +0.000 C 
BRANCH  19  20
ATOM     20  C   UNL     1       6.369   4.272  15.929  0.00  0.00    +0.000 C 
BRANCH  20  21
ATOM     21 SE   UNL     1       7.561   4.537  17.456  0.00  0.00    +0.000 Se
BRANCH  21  22
ATOM     22  C   UNL     1       6.967   6.361  17.882  0.00  0.00    +0.000 C 
ATOM     23  F   UNL     1       7.953   7.082  18.529  0.00  0.00    +0.000 F 
ATOM     24  F   UNL     1       6.639   7.016  16.711  0.00  0.00    +0.000 F 
ATOM     25  F   UNL     1       5.857   6.294  18.703  0.00  0.00    +0.000 F 
ENDBRANCH  21  22
ENDBRANCH  20  21
ENDBRANCH  19  20
ENDBRANCH  18  19
ENDBRANCH  17  18
ENDBRANCH  15  17
ENDBRANCH   1  15
TORSDOF 9
ENDMDL
MODEL 8
REMARK VINA RESULT:      -6.9      1.293      1.530
REMARK  Name = 
REMARK  11 active torsions:
REMARK  status: ('A' for Active; 'I' for Inactive)
REMARK    1  A    between atoms: C_1  and  O_2
REMARK    2  A    between atoms: O_2  and  C_3
REMARK    3  A    between atoms: C_8  and  C_9
REMARK    4  A    between atoms: C_9  and  C_10
REMARK    5  A    between atoms: C_9  and  C_11
REMARK    6  A    between atoms: C_11  and  O_13
REMARK    7  A    between atoms: O_13  and  C_14
REMARK    8  A    between atoms: C_14  and  C_15
REMARK    9  A    between atoms: C_15  and  C_16
REMARK   10  A    between atoms: C_16  and  SE_17
REMARK   11  A    between atoms: SE_17  and  C_18
REMARK                            x       y       z     vdW  Elec       q    Type
REMARK                         _______ _______ _______ _____ _____    ______ ____
ROOT
ATOM      1  C   UNL     1       2.840   5.891  19.637  0.00  0.00    +0.000 C 
ATOM      2  C   UNL     1       1.993   5.097  20.641  0.00  0.00    +0.000 C 
ENDROOT
BRANCH   1   8
ATOM      3  C   UNL     1      -0.206  11.725  19.784  0.00  0.00    +0.000 A 
ATOM      4  C   UNL     1      -0.276  11.118  21.055  0.00  0.00    +0.000 A 
ATOM      5  C   UNL     1       0.304   9.862  21.275  0.00  0.00    +0.000 A 
ATOM      6  C   UNL     1       0.966   9.192  20.234  0.00  0.00    +0.000 A 
ATOM      7  C   UNL     1       1.561   7.936  20.446  0.00  0.00    +0.000 A 
ATOM      8  C   UNL     1       2.228   7.268  19.398  0.00  0.00    +0.000 A 
ATOM      9  C   UNL     1       2.282   7.880  18.133  0.00  0.00    +0.000 A 
ATOM     10  C   UNL     1       1.690   9.128  17.914  0.00  0.00    +0.000 A 
ATOM     11  C   UNL     1       1.034   9.792  18.956  0.00  0.00    +0.000 A 
ATOM     12  C   UNL     1       0.444  11.049  18.743  0.00  0.00    +0.000 A 
BRANCH   3  14
ATOM     13  C   UNL     1      -0.177  13.915  18.712  0.00  0.00    +0.000 C 
ATOM     14  O   UNL     1      -0.738  12.946  19.520  0.00  0.00    +0.000 OA
ENDBRANCH   3  14
ENDBRANCH   1   8
BRANCH   1  15
ATOM     15  C   UNL     1       3.000   5.069  18.374  0.00  0.00    +0.000 C 
ATOM     16  O   UNL     1       2.023   4.534  17.867  0.00  0.00    +0.000 OA
BRANCH  15  17
ATOM     17  O   UNL     1       4.247   4.837  17.876  0.00  0.00    +0.000 OA
BRANCH  17  18
ATOM     18  C   UNL     1       4.543   4.773  16.522  0.00  0.00    +0.000 C 
BRANCH  18  19
ATOM     19  C   UNL     1       5.214   6.055  16.025  0.00  0.00    +0.000 C 
BRANCH  19  20
ATOM     20  C   UNL     1       5.536   6.982  17.205  0.00  0.00    +0.000 C 
BRANCH  20  21
ATOM     21 SE   UNL     1       7.464   7.021  17.526  0.00  0.00    +0.000 Se
BRANCH  21  22
ATOM     22  C   UNL     1       7.502   5.538  18.813  0.00  0.00    +0.000 C 
ATOM     23  F   UNL     1       6.423   5.582  19.676  0.00  0.00    +0.000 F 
ATOM     24  F   UNL     1       7.468   4.340  18.127  0.00  0.00    +0.000 F 
ATOM     25  F   UNL     1       8.665   5.614  19.555  0.00  0.00    +0.000 F 
ENDBRANCH  21  22
ENDBRANCH  20  21
ENDBRANCH  19  20
ENDBRANCH  18  19
ENDBRANCH  17  18
ENDBRANCH  15  17
ENDBRANCH   1  15
TORSDOF 9
ENDMDL
MODEL 9
REMARK VINA RESULT:      -6.9      3.273      4.110
REMARK  Name = 
REMARK  11 active torsions:
REMARK  status: ('A' for Active; 'I' for Inactive)
REMARK    1  A    between atoms: C_1  and  O_2
REMARK    2  A    between atoms: O_2  and  C_3
REMARK    3  A    between atoms: C_8  and  C_9
REMARK    4  A    between atoms: C_9  and  C_10
REMARK    5  A    between atoms: C_9  and  C_11
REMARK    6  A    between atoms: C_11  and  O_13
REMARK    7  A    between atoms: O_13  and  C_14
REMARK    8  A    between atoms: C_14  and  C_15
REMARK    9  A    between atoms: C_15  and  C_16
REMARK   10  A    between atoms: C_16  and  SE_17
REMARK   11  A    between atoms: SE_17  and  C_18
REMARK                            x       y       z     vdW  Elec       q    Type
REMARK                         _______ _______ _______ _____ _____    ______ ____
ROOT
ATOM      1  C   UNL     1       2.835   7.061  17.612  0.00  0.00    +0.000 C 
ATOM      2  C   UNL     1       4.224   7.558  17.187  0.00  0.00    +0.000 C 
ENDROOT
BRANCH   1   8
ATOM      3  C   UNL     1      -0.097  10.679  22.264  0.00  0.00    +0.000 A 
ATOM      4  C   UNL     1       0.309   9.442  22.807  0.00  0.00    +0.000 A 
ATOM      5  C   UNL     1       0.961   8.496  22.007  0.00  0.00    +0.000 A 
ATOM      6  C   UNL     1       1.220   8.766  20.654  0.00  0.00    +0.000 A 
ATOM      7  C   UNL     1       1.883   7.827  19.843  0.00  0.00    +0.000 A 
ATOM      8  C   UNL     1       2.144   8.104  18.486  0.00  0.00    +0.000 A 
ATOM      9  C   UNL     1       1.725   9.338  17.954  0.00  0.00    +0.000 A 
ATOM     10  C   UNL     1       1.063  10.274  18.753  0.00  0.00    +0.000 A 
ATOM     11  C   UNL     1       0.809  10.001  20.102  0.00  0.00    +0.000 A 
ATOM     12  C   UNL     1       0.151  10.942  20.911  0.00  0.00    +0.000 A 
BRANCH   3  14
ATOM     13  C   UNL     1      -0.879  12.960  22.633  0.00  0.00    +0.000 C 
ATOM     14  O   UNL     1      -0.719  11.638  22.999  0.00  0.00    +0.000 OA
ENDBRANCH   3  14
ENDBRANCH   1   8
BRANCH   1  15
ATOM     15  C   UNL     1       2.982   5.709  18.280  0.00  0.00    +0.000 C 
ATOM     16  O   UNL     1       3.964   5.475  18.974  0.00  0.00    +0.000 OA
BRANCH  15  17
ATOM     17  O   UNL     1       2.080   4.725  18.010  0.00  0.00    +0.000 OA
BRANCH  17  18
ATOM     18  C   UNL     1       2.348   3.626  17.205  0.00  0.00    +0.000 C 
BRANCH  18  19
ATOM     19  C   UNL     1       3.463   2.754  17.787  0.00  0.00    +0.000 C 
BRANCH  19  20
ATOM     20  C   UNL     1       2.898   1.804  18.853  0.00  0.00    +0.000 C 
BRANCH  20  21
ATOM     21 SE   UNL     1       3.221   2.527  20.640  0.00  0.00    +0.000 Se
BRANCH  21  22
ATOM     22  C   UNL     1       1.386   3.148  20.960  0.00  0.00    +0.000 C 
ATOM     23  F   UNL     1       0.535   2.781  19.934  0.00  0.00    +0.000 F 
ATOM     24  F   UNL     1       0.918   2.596  22.137  0.00  0.00    +0.000 F 
ATOM     25  F   UNL     1       1.386   4.526  21.062  0.00  0.00    +0.000 F 
ENDBRANCH  21  22
ENDBRANCH  20  21
ENDBRANCH  19  20
ENDBRANCH  18  19
ENDBRANCH  17  18
ENDBRANCH  15  17
ENDBRANCH   1  15
TORSDOF 9
ENDMDL
