MODEL 1
REMARK VINA RESULT:      -7.2      0.000      0.000
REMARK  Name = 
REMARK  1 active torsions:
REMARK  status: ('A' for Active; 'I' for Inactive)
REMARK    1  A    between atoms: C_8  and  N_9
REMARK                            x       y       z     vdW  Elec       q    Type
REMARK                         _______ _______ _______ _____ _____    ______ ____
ROOT
ATOM      1  O   UNL     1       1.084   4.244  17.250  0.00  0.00    +0.000 OA
ATOM      2  C   UNL     1       1.734   3.970  18.251  0.00  0.00    +0.000 C 
ATOM      3  C   UNL     1       1.651   2.620  18.900  0.00  0.00    +0.000 C 
ATOM      4  C   UNL     1       1.083   2.825  20.328  0.00  0.00    +0.000 C 
ATOM      5  C   UNL     1       1.827   3.899  21.159  0.00  0.00    +0.000 C 
ATOM      6  C   UNL     1       2.037   5.185  20.342  0.00  0.00    +0.000 C 
ATOM      7  C   UNL     1       2.647   4.955  18.924  0.00  0.00    +0.000 C 
ATOM      8  C   UNL     1       4.116   4.404  18.898  0.00  0.00    +0.000 C 
ATOM      9  C   UNL     1       4.213   2.880  19.291  0.00  0.00    +0.000 C 
ATOM     10  C   UNL     1       3.053   1.988  18.776  0.00  0.00    +0.000 C 
ENDROOT
BRANCH   8  11
ATOM     11  N   UNL     1       4.846   4.812  17.647  0.00  0.00    +0.000 NA
ATOM     12  C   UNL     1       6.294   4.625  17.540  0.00  0.00    +0.000 C 
ATOM     13  C   UNL     1       6.895   5.968  17.879  0.00  0.00    +0.000 C 
ATOM     14  C   UNL     1       5.977   6.894  17.121  0.00  0.00    +0.000 C 
ATOM     15  C   UNL     1       4.604   6.215  17.241  0.00  0.00    +0.000 C 
ENDBRANCH   8  11
TORSDOF 1
ENDMDL
MODEL 2
REMARK VINA RESULT:      -7.2      1.732      2.727
REMARK  Name = 
REMARK  1 active torsions:
REMARK  status: ('A' for Active; 'I' for Inactive)
REMARK    1  A    between atoms: C_8  and  N_9
REMARK                            x       y       z     vdW  Elec       q    Type
REMARK                         _______ _______ _______ _____ _____    ______ ____
ROOT
ATOM      1  O   UNL     1       4.670   2.286  20.351  0.00  0.00    +0.000 OA
ATOM      2  C   UNL     1       3.709   2.831  19.823  0.00  0.00    +0.000 C 
ATOM      3  C   UNL     1       2.679   3.566  20.628  0.00  0.00    +0.000 C 
ATOM      4  C   UNL     1       1.326   2.834  20.433  0.00  0.00    +0.000 C 
ATOM      5  C   UNL     1       0.942   2.595  18.952  0.00  0.00    +0.000 C 
ATOM      6  C   UNL     1       2.126   2.017  18.158  0.00  0.00    +0.000 C 
ATOM      7  C   UNL     1       3.466   2.796  18.341  0.00  0.00    +0.000 C 
ATOM      8  C   UNL     1       3.482   4.260  17.777  0.00  0.00    +0.000 C 
ATOM      9  C   UNL     1       2.662   5.274  18.662  0.00  0.00    +0.000 C 
ATOM     10  C   UNL     1       2.757   5.045  20.194  0.00  0.00    +0.000 C 
ENDROOT
BRANCH   8  11
ATOM     11  N   UNL     1       4.869   4.695  17.386  0.00  0.00    +0.000 NA
ATOM     12  C   UNL     1       5.220   6.116  17.361  0.00  0.00    +0.000 C 
ATOM     13  C   UNL     1       5.088   6.534  15.917  0.00  0.00    +0.000 C 
ATOM     14  C   UNL     1       5.731   5.362  15.217  0.00  0.00    +0.000 C 
ATOM     15  C   UNL     1       5.321   4.160  16.081  0.00  0.00    +0.000 C 
ENDBRANCH   8  11
TORSDOF 1
ENDMDL
MODEL 3
REMARK VINA RESULT:      -7.0      1.754      2.807
REMARK  Name = 
REMARK  1 active torsions:
REMARK  status: ('A' for Active; 'I' for Inactive)
REMARK    1  A    between atoms: C_8  and  N_9
REMARK                            x       y       z     vdW  Elec       q    Type
REMARK                         _______ _______ _______ _____ _____    ______ ____
ROOT
ATOM      1  O   UNL     1       4.999   2.998  19.672  0.00  0.00    +0.000 OA
ATOM      2  C   UNL     1       4.229   3.724  19.055  0.00  0.00    +0.000 C 
ATOM      3  C   UNL     1       3.253   4.617  19.761  0.00  0.00    +0.000 C 
ATOM      4  C   UNL     1       1.828   4.152  19.366  0.00  0.00    +0.000 C 
ATOM      5  C   UNL     1       1.602   4.024  17.839  0.00  0.00    +0.000 C 
ATOM      6  C   UNL     1       2.755   3.256  17.171  0.00  0.00    +0.000 C 
ATOM      7  C   UNL     1       4.178   3.769  17.554  0.00  0.00    +0.000 C 
ATOM      8  C   UNL     1       4.532   5.218  17.066  0.00  0.00    +0.000 C 
ATOM      9  C   UNL     1       3.800   6.345  17.890  0.00  0.00    +0.000 C 
ATOM     10  C   UNL     1       3.652   6.065  19.409  0.00  0.00    +0.000 C 
ENDROOT
BRANCH   8  11
ATOM     11  N   UNL     1       6.013   5.398  16.871  0.00  0.00    +0.000 NA
ATOM     12  C   UNL     1       6.965   4.642  17.686  0.00  0.00    +0.000 C 
ATOM     13  C   UNL     1       7.376   5.583  18.793  0.00  0.00    +0.000 C 
ATOM     14  C   UNL     1       7.562   6.869  18.026  0.00  0.00    +0.000 C 
ATOM     15  C   UNL     1       6.463   6.807  16.954  0.00  0.00    +0.000 C 
ENDBRANCH   8  11
TORSDOF 1
ENDMDL
MODEL 4
REMARK VINA RESULT:      -6.9      0.782      1.257
REMARK  Name = 
REMARK  1 active torsions:
REMARK  status: ('A' for Active; 'I' for Inactive)
REMARK    1  A    between atoms: C_8  and  N_9
REMARK                            x       y       z     vdW  Elec       q    Type
REMARK                         _______ _______ _______ _____ _____    ______ ____
ROOT
ATOM      1  O   UNL     1       1.205   4.365  17.324  0.00  0.00    +0.000 OA
ATOM      2  C   UNL     1       1.805   4.032  18.338  0.00  0.00    +0.000 C 
ATOM      3  C   UNL     1       1.862   2.602  18.785  0.00  0.00    +0.000 C 
ATOM      4  C   UNL     1       1.157   2.517  20.164  0.00  0.00    +0.000 C 
ATOM      5  C   UNL     1       1.672   3.542  21.204  0.00  0.00    +0.000 C 
ATOM      6  C   UNL     1       1.762   4.952  20.595  0.00  0.00    +0.000 C 
ATOM      7  C   UNL     1       2.511   5.016  19.227  0.00  0.00    +0.000 C 
ATOM      8  C   UNL     1       4.041   4.669  19.274  0.00  0.00    +0.000 C 
ATOM      9  C   UNL     1       4.321   3.129  19.463  0.00  0.00    +0.000 C 
ATOM     10  C   UNL     1       3.345   2.181  18.717  0.00  0.00    +0.000 C 
ENDROOT
BRANCH   8  11
ATOM     11  N   UNL     1       4.804   5.349  18.169  0.00  0.00    +0.000 NA
ATOM     12  C   UNL     1       4.546   5.004  16.770  0.00  0.00    +0.000 C 
ATOM     13  C   UNL     1       5.625   4.016  16.398  0.00  0.00    +0.000 C 
ATOM     14  C   UNL     1       6.834   4.655  17.033  0.00  0.00    +0.000 C 
ATOM     15  C   UNL     1       6.275   5.276  18.323  0.00  0.00    +0.000 C 
ENDBRANCH   8  11
TORSDOF 1
ENDMDL
MODEL 5
REMARK VINA RESULT:      -6.8      1.916      5.146
REMARK  Name = 
REMARK  1 active torsions:
REMARK  status: ('A' for Active; 'I' for Inactive)
REMARK    1  A    between atoms: C_8  and  N_9
REMARK                            x       y       z     vdW  Elec       q    Type
REMARK                         _______ _______ _______ _____ _____    ______ ____
ROOT
ATOM      1  O   UNL     1       5.548   5.119  14.847  0.00  0.00    +0.000 OA
ATOM      2  C   UNL     1       5.668   5.348  16.044  0.00  0.00    +0.000 C 
ATOM      3  C   UNL     1       5.562   6.739  16.595  0.00  0.00    +0.000 C 
ATOM      4  C   UNL     1       6.932   7.093  17.229  0.00  0.00    +0.000 C 
ATOM      5  C   UNL     1       7.460   6.038  18.232  0.00  0.00    +0.000 C 
ATOM      6  C   UNL     1       7.349   4.618  17.651  0.00  0.00    +0.000 C 
ATOM      7  C   UNL     1       5.949   4.272  17.055  0.00  0.00    +0.000 C 
ATOM      8  C   UNL     1       4.769   4.209  18.087  0.00  0.00    +0.000 C 
ATOM      9  C   UNL     1       4.310   5.630  18.591  0.00  0.00    +0.000 C 
ATOM     10  C   UNL     1       4.326   6.751  17.519  0.00  0.00    +0.000 C 
ENDROOT
BRANCH   8  11
ATOM     11  N   UNL     1       3.674   3.283  17.631  0.00  0.00    +0.000 NA
ATOM     12  C   UNL     1       2.303   3.774  17.483  0.00  0.00    +0.000 C 
ATOM     13  C   UNL     1       1.597   3.374  18.756  0.00  0.00    +0.000 C 
ATOM     14  C   UNL     1       2.109   1.967  18.940  0.00  0.00    +0.000 C 
ATOM     15  C   UNL     1       3.558   2.046  18.436  0.00  0.00    +0.000 C 
ENDBRANCH   8  11
TORSDOF 1
ENDMDL
MODEL 6
REMARK VINA RESULT:      -6.8      2.066      4.542
REMARK  Name = 
REMARK  1 active torsions:
REMARK  status: ('A' for Active; 'I' for Inactive)
REMARK    1  A    between atoms: C_8  and  N_9
REMARK                            x       y       z     vdW  Elec       q    Type
REMARK                         _______ _______ _______ _____ _____    ______ ____
ROOT
ATOM      1  O   UNL     1       5.084   3.068  19.628  0.00  0.00    +0.000 OA
ATOM      2  C   UNL     1       4.486   3.747  18.802  0.00  0.00    +0.000 C 
ATOM      3  C   UNL     1       4.202   3.238  17.420  0.00  0.00    +0.000 C 
ATOM      4  C   UNL     1       4.949   4.159  16.422  0.00  0.00    +0.000 C 
ATOM      5  C   UNL     1       4.675   5.670  16.624  0.00  0.00    +0.000 C 
ATOM      6  C   UNL     1       4.803   6.062  18.106  0.00  0.00    +0.000 C 
ATOM      7  C   UNL     1       4.009   5.144  19.087  0.00  0.00    +0.000 C 
ATOM      8  C   UNL     1       2.447   5.196  18.952  0.00  0.00    +0.000 C 
ATOM      9  C   UNL     1       1.911   4.451  17.669  0.00  0.00    +0.000 C 
ATOM     10  C   UNL     1       2.667   3.149  17.294  0.00  0.00    +0.000 C 
ENDROOT
BRANCH   8  11
ATOM     11  N   UNL     1       1.760   4.858  20.247  0.00  0.00    +0.000 NA
ATOM     12  C   UNL     1       2.545   4.505  21.432  0.00  0.00    +0.000 C 
ATOM     13  C   UNL     1       2.546   2.996  21.473  0.00  0.00    +0.000 C 
ATOM     14  C   UNL     1       1.106   2.697  21.138  0.00  0.00    +0.000 C 
ATOM     15  C   UNL     1       0.739   3.793  20.126  0.00  0.00    +0.000 C 
ENDBRANCH   8  11
TORSDOF 1
ENDMDL
MODEL 7
REMARK VINA RESULT:      -6.7      1.558      2.457
REMARK  Name = 
REMARK  1 active torsions:
REMARK  status: ('A' for Active; 'I' for Inactive)
REMARK    1  A    between atoms: C_8  and  N_9
REMARK                            x       y       z     vdW  Elec       q    Type
REMARK                         _______ _______ _______ _____ _____    ______ ____
ROOT
ATOM      1  O   UNL     1       4.843   2.651  19.977  0.00  0.00    +0.000 OA
ATOM      2  C   UNL     1       3.838   3.153  19.488  0.00  0.00    +0.000 C 
ATOM      3  C   UNL     1       2.871   3.945  20.316  0.00  0.00    +0.000 C 
ATOM      4  C   UNL     1       1.513   3.198  20.286  0.00  0.00    +0.000 C 
ATOM      5  C   UNL     1       1.012   2.847  18.863  0.00  0.00    +0.000 C 
ATOM      6  C   UNL     1       2.133   2.212  18.022  0.00  0.00    +0.000 C 
ATOM      7  C   UNL     1       3.477   3.005  18.037  0.00  0.00    +0.000 C 
ATOM      8  C   UNL     1       3.437   4.422  17.365  0.00  0.00    +0.000 C 
ATOM      9  C   UNL     1       2.683   5.499  18.234  0.00  0.00    +0.000 C 
ATOM     10  C   UNL     1       2.902   5.386  19.766  0.00  0.00    +0.000 C 
ENDROOT
BRANCH   8  11
ATOM     11  N   UNL     1       4.785   4.828  16.832  0.00  0.00    +0.000 NA
ATOM     12  C   UNL     1       6.006   4.477  17.559  0.00  0.00    +0.000 C 
ATOM     13  C   UNL     1       6.365   5.709  18.354  0.00  0.00    +0.000 C 
ATOM     14  C   UNL     1       6.122   6.792  17.333  0.00  0.00    +0.000 C 
ATOM     15  C   UNL     1       4.906   6.277  16.547  0.00  0.00    +0.000 C 
ENDBRANCH   8  11
TORSDOF 1
ENDMDL
MODEL 8
REMARK VINA RESULT:      -6.7      1.093      1.376
REMARK  Name = 
REMARK  1 active torsions:
REMARK  status: ('A' for Active; 'I' for Inactive)
REMARK    1  A    between atoms: C_8  and  N_9
REMARK                            x       y       z     vdW  Elec       q    Type
REMARK                         _______ _______ _______ _____ _____    ______ ____
ROOT
ATOM      1  O   UNL     1       2.031   5.558  17.946  0.00  0.00    +0.000 OA
ATOM      2  C   UNL     1       2.216   4.547  18.614  0.00  0.00    +0.000 C 
ATOM      3  C   UNL     1       1.450   3.284  18.359  0.00  0.00    +0.000 C 
ATOM      4  C   UNL     1       0.620   2.979  19.632  0.00  0.00    +0.000 C 
ATOM      5  C   UNL     1       1.443   2.984  20.944  0.00  0.00    +0.000 C 
ATOM      6  C   UNL     1       2.345   4.227  21.027  0.00  0.00    +0.000 C 
ATOM      7  C   UNL     1       3.200   4.489  19.748  0.00  0.00    +0.000 C 
ATOM      8  C   UNL     1       4.295   3.411  19.430  0.00  0.00    +0.000 C 
ATOM      9  C   UNL     1       3.694   2.065  18.869  0.00  0.00    +0.000 C 
ATOM     10  C   UNL     1       2.483   2.227  17.914  0.00  0.00    +0.000 C 
ENDROOT
BRANCH   8  11
ATOM     11  N   UNL     1       5.448   3.993  18.659  0.00  0.00    +0.000 NA
ATOM     12  C   UNL     1       5.918   5.350  18.939  0.00  0.00    +0.000 C 
ATOM     13  C   UNL     1       5.265   6.221  17.893  0.00  0.00    +0.000 C 
ATOM     14  C   UNL     1       5.438   5.371  16.660  0.00  0.00    +0.000 C 
ATOM     15  C   UNL     1       5.276   3.937  17.189  0.00  0.00    +0.000 C 
ENDBRANCH   8  11
TORSDOF 1
ENDMDL
MODEL 9
REMARK VINA RESULT:      -6.7      1.480      2.452
REMARK  Name = 
REMARK  1 active torsions:
REMARK  status: ('A' for Active; 'I' for Inactive)
REMARK    1  A    between atoms: C_8  and  N_9
REMARK                            x       y       z     vdW  Elec       q    Type
REMARK                         _______ _______ _______ _____ _____    ______ ____
ROOT
ATOM      1  O   UNL     1       2.384   4.918  21.075  0.00  0.00    +0.000 OA
ATOM      2  C   UNL     1       2.585   4.291  20.042  0.00  0.00    +0.000 C 
ATOM      3  C   UNL     1       1.486   4.018  19.059  0.00  0.00    +0.000 C 
ATOM      4  C   UNL     1       1.300   2.481  18.984  0.00  0.00    +0.000 C 
ATOM      5  C   UNL     1       2.608   1.694  18.727  0.00  0.00    +0.000 C 
ATOM      6  C   UNL     1       3.737   2.177  19.655  0.00  0.00    +0.000 C 
ATOM      7  C   UNL     1       3.930   3.726  19.681  0.00  0.00    +0.000 C 
ATOM      8  C   UNL     1       4.421   4.372  18.338  0.00  0.00    +0.000 C 
ATOM      9  C   UNL     1       3.297   4.435  17.234  0.00  0.00    +0.000 C 
ATOM     10  C   UNL     1       1.871   4.752  17.758  0.00  0.00    +0.000 C 
ENDROOT
BRANCH   8  11
ATOM     11  N   UNL     1       5.187   5.645  18.575  0.00  0.00    +0.000 NA
ATOM     12  C   UNL     1       5.524   6.526  17.456  0.00  0.00    +0.000 C 
ATOM     13  C   UNL     1       6.946   6.180  17.089  0.00  0.00    +0.000 C 
ATOM     14  C   UNL     1       7.576   6.061  18.454  0.00  0.00    +0.000 C 
ATOM     15  C   UNL     1       6.457   5.452  19.313  0.00  0.00    +0.000 C 
ENDBRANCH   8  11
TORSDOF 1
ENDMDL
