MODEL 1
REMARK VINA RESULT:      -9.4      0.000      0.000
REMARK  Name = 
REMARK  3 active torsions:
REMARK  status: ('A' for Active; 'I' for Inactive)
REMARK    1  A    between atoms: C_8  and  C_9
REMARK    2  A    between atoms: C_12  and  C_13
REMARK    3  A    between atoms: C_13  and  O_15
REMARK                            x       y       z     vdW  Elec       q    Type
REMARK                         _______ _______ _______ _____ _____    ______ ____
ROOT
ATOM      1  O   UNL     1       5.113   1.137  19.908  0.00  0.00    +0.000 OA
ATOM      2  C   UNL     1       4.739   2.279  19.670  0.00  0.00    +0.000 C 
ATOM      3  N   UNL     1       3.493   2.713  19.984  0.00  0.00    +0.000 N 
ATOM      4  C   UNL     1       3.124   4.068  19.992  0.00  0.00    +0.000 A 
ATOM      5  C   UNL     1       1.891   4.452  20.521  0.00  0.00    +0.000 A 
ATOM      6 CL   UNL     1       0.803   3.288  21.192  0.00  0.00    +0.000 Cl
ATOM      7  C   UNL     1       1.483   5.783  20.449  0.00  0.00    +0.000 A 
ATOM      8  C   UNL     1       2.288   6.762  19.841  0.00  0.00    +0.000 A 
ATOM      9  C   UNL     1       3.561   6.365  19.364  0.00  0.00    +0.000 A 
ATOM     10  C   UNL     1       3.984   5.020  19.408  0.00  0.00    +0.000 A 
ATOM     11  C   UNL     1       5.139   4.470  18.552  0.00  0.00    +0.000 C 
ATOM     12  C   UNL     1       4.469   4.293  17.158  0.00  0.00    +0.000 C 
ATOM     13  C   UNL     1       5.351   3.895  15.990  0.00  0.00    +0.000 C 
ATOM     14  C   UNL     1       6.755   4.476  15.974  0.00  0.00    +0.000 C 
ATOM     15  C   UNL     1       7.375   4.759  17.338  0.00  0.00    +0.000 C 
ATOM     16  C   UNL     1       6.399   5.347  18.375  0.00  0.00    +0.000 C 
ATOM     17  N   UNL     1       5.575   3.207  19.148  0.00  0.00    +0.000 N 
ATOM     18  H   UNL     1       2.876   2.029  20.404  0.00  0.00    +0.000 HD
ATOM     19  H   UNL     1       6.549   2.938  19.164  0.00  0.00    +0.000 HD
ENDROOT
BRANCH   8  20
ATOM     20  C   UNL     1       1.758   8.129  19.595  0.00  0.00    +0.000 A 
ATOM     21  C   UNL     1       1.872   8.757  18.344  0.00  0.00    +0.000 A 
ATOM     22  C   UNL     1       1.277  10.002  18.098  0.00  0.00    +0.000 A 
ATOM     23  C   UNL     1       0.570  10.657  19.107  0.00  0.00    +0.000 A 
ATOM     24  C   UNL     1       0.453  10.067  20.365  0.00  0.00    +0.000 A 
ATOM     25  C   UNL     1       1.043   8.823  20.598  0.00  0.00    +0.000 A 
BRANCH  23  26
ATOM     26  C   UNL     1      -0.118  11.928  18.774  0.00  0.00    +0.000 C 
ATOM     27  O   UNL     1      -0.012  12.926  19.461  0.00  0.00    +0.000 OA
BRANCH  26  28
ATOM     28  O   UNL     1      -0.940  11.850  17.714  0.00  0.00    +0.000 OA
ATOM     29  H   UNL     1      -1.450  11.025  17.630  0.00  0.00    +0.000 HD
ENDBRANCH  26  28
ENDBRANCH  23  26
ENDBRANCH   8  20
TORSDOF 3
ENDMDL
MODEL 2
REMARK VINA RESULT:      -9.2      0.413      1.184
REMARK  Name = 
REMARK  3 active torsions:
REMARK  status: ('A' for Active; 'I' for Inactive)
REMARK    1  A    between atoms: C_8  and  C_9
REMARK    2  A    between atoms: C_12  and  C_13
REMARK    3  A    between atoms: C_13  and  O_15
REMARK                            x       y       z     vdW  Elec       q    Type
REMARK                         _______ _______ _______ _____ _____    ______ ____
ROOT
ATOM      1  O   UNL     1       5.124   1.045  19.901  0.00  0.00    +0.000 OA
ATOM      2  C   UNL     1       4.752   2.191  19.680  0.00  0.00    +0.000 C 
ATOM      3  N   UNL     1       3.487   2.605  19.941  0.00  0.00    +0.000 N 
ATOM      4  C   UNL     1       3.104   3.956  19.973  0.00  0.00    +0.000 A 
ATOM      5  C   UNL     1       1.842   4.312  20.448  0.00  0.00    +0.000 A 
ATOM      6 CL   UNL     1       0.731   3.118  21.024  0.00  0.00    +0.000 Cl
ATOM      7  C   UNL     1       1.424   5.641  20.396  0.00  0.00    +0.000 A 
ATOM      8  C   UNL     1       2.250   6.646  19.863  0.00  0.00    +0.000 A 
ATOM      9  C   UNL     1       3.550   6.275  19.441  0.00  0.00    +0.000 A 
ATOM     10  C   UNL     1       3.984   4.933  19.465  0.00  0.00    +0.000 A 
ATOM     11  C   UNL     1       5.188   4.420  18.654  0.00  0.00    +0.000 C 
ATOM     12  C   UNL     1       4.593   4.283  17.222  0.00  0.00    +0.000 C 
ATOM     13  C   UNL     1       5.540   3.930  16.090  0.00  0.00    +0.000 C 
ATOM     14  C   UNL     1       6.937   4.522  16.167  0.00  0.00    +0.000 C 
ATOM     15  C   UNL     1       7.481   4.767  17.570  0.00  0.00    +0.000 C 
ATOM     16  C   UNL     1       6.446   5.313  18.572  0.00  0.00    +0.000 C 
ATOM     17  N   UNL     1       5.604   3.142  19.232  0.00  0.00    +0.000 N 
ATOM     18  H   UNL     1       2.856   1.902  20.306  0.00  0.00    +0.000 HD
ATOM     19  H   UNL     1       6.579   2.881  19.291  0.00  0.00    +0.000 HD
ENDROOT
BRANCH   8  20
ATOM     20  C   UNL     1       1.720   8.016  19.633  0.00  0.00    +0.000 A 
ATOM     21  C   UNL     1       1.117   8.762  20.659  0.00  0.00    +0.000 A 
ATOM     22  C   UNL     1       0.715  10.089  20.453  0.00  0.00    +0.000 A 
ATOM     23  C   UNL     1       0.889  10.693  19.207  0.00  0.00    +0.000 A 
ATOM     24  C   UNL     1       1.469   9.973  18.164  0.00  0.00    +0.000 A 
ATOM     25  C   UNL     1       1.873   8.653  18.381  0.00  0.00    +0.000 A 
BRANCH  23  26
ATOM     26  C   UNL     1       0.532  12.125  19.063  0.00  0.00    +0.000 C 
ATOM     27  O   UNL     1      -0.401  12.499  18.378  0.00  0.00    +0.000 OA
BRANCH  26  28
ATOM     28  O   UNL     1       1.383  12.970  19.669  0.00  0.00    +0.000 OA
ATOM     29  H   UNL     1       2.271  12.620  19.854  0.00  0.00    +0.000 HD
ENDBRANCH  26  28
ENDBRANCH  23  26
ENDBRANCH   8  20
TORSDOF 3
ENDMDL
MODEL 3
REMARK VINA RESULT:      -8.4      0.896      1.185
REMARK  Name = 
REMARK  3 active torsions:
REMARK  status: ('A' for Active; 'I' for Inactive)
REMARK    1  A    between atoms: C_8  and  C_9
REMARK    2  A    between atoms: C_12  and  C_13
REMARK    3  A    between atoms: C_13  and  O_15
REMARK                            x       y       z     vdW  Elec       q    Type
REMARK                         _______ _______ _______ _____ _____    ______ ____
ROOT
ATOM      1  O   UNL     1       4.494   0.881  18.977  0.00  0.00    +0.000 OA
ATOM      2  C   UNL     1       4.230   2.076  19.036  0.00  0.00    +0.000 C 
ATOM      3  N   UNL     1       2.985   2.530  19.324  0.00  0.00    +0.000 N 
ATOM      4  C   UNL     1       2.707   3.859  19.679  0.00  0.00    +0.000 A 
ATOM      5  C   UNL     1       1.443   4.204  20.159  0.00  0.00    +0.000 A 
ATOM      6 CL   UNL     1       0.202   3.015  20.348  0.00  0.00    +0.000 Cl
ATOM      7  C   UNL     1       1.135   5.537  20.425  0.00  0.00    +0.000 A 
ATOM      8  C   UNL     1       2.076   6.561  20.214  0.00  0.00    +0.000 A 
ATOM      9  C   UNL     1       3.371   6.185  19.782  0.00  0.00    +0.000 A 
ATOM     10  C   UNL     1       3.697   4.845  19.487  0.00  0.00    +0.000 A 
ATOM     11  C   UNL     1       4.916   4.439  18.639  0.00  0.00    +0.000 C 
ATOM     12  C   UNL     1       4.425   4.721  17.190  0.00  0.00    +0.000 C 
ATOM     13  C   UNL     1       5.426   4.574  16.058  0.00  0.00    +0.000 C 
ATOM     14  C   UNL     1       6.855   4.993  16.361  0.00  0.00    +0.000 C 
ATOM     15  C   UNL     1       7.306   4.827  17.807  0.00  0.00    +0.000 C 
ATOM     16  C   UNL     1       6.243   5.201  18.857  0.00  0.00    +0.000 C 
ATOM     17  N   UNL     1       5.186   3.024  18.893  0.00  0.00    +0.000 N 
ATOM     18  H   UNL     1       2.275   1.821  19.462  0.00  0.00    +0.000 HD
ATOM     19  H   UNL     1       6.130   2.666  18.937  0.00  0.00    +0.000 HD
ENDROOT
BRANCH   8  20
ATOM     20  C   UNL     1       1.672   7.988  20.312  0.00  0.00    +0.000 A 
ATOM     21  C   UNL     1       1.610   8.822  19.183  0.00  0.00    +0.000 A 
ATOM     22  C   UNL     1       1.129  10.136  19.276  0.00  0.00    +0.000 A 
ATOM     23  C   UNL     1       0.719  10.652  20.506  0.00  0.00    +0.000 A 
ATOM     24  C   UNL     1       0.785   9.854  21.647  0.00  0.00    +0.000 A 
ATOM     25  C   UNL     1       1.259   8.543  21.543  0.00  0.00    +0.000 A 
BRANCH  23  26
ATOM     26  C   UNL     1       0.134  12.014  20.539  0.00  0.00    +0.000 C 
ATOM     27  O   UNL     1      -0.675  12.396  19.715  0.00  0.00    +0.000 OA
BRANCH  26  28
ATOM     28  O   UNL     1       0.645  12.812  21.491  0.00  0.00    +0.000 OA
ATOM     29  H   UNL     1       0.635  13.765  21.298  0.00  0.00    +0.000 HD
ENDBRANCH  26  28
ENDBRANCH  23  26
ENDBRANCH   8  20
TORSDOF 3
ENDMDL
MODEL 4
REMARK VINA RESULT:      -7.5      2.455      4.034
REMARK  Name = 
REMARK  3 active torsions:
REMARK  status: ('A' for Active; 'I' for Inactive)
REMARK    1  A    between atoms: C_8  and  C_9
REMARK    2  A    between atoms: C_12  and  C_13
REMARK    3  A    between atoms: C_13  and  O_15
REMARK                            x       y       z     vdW  Elec       q    Type
REMARK                         _______ _______ _______ _____ _____    ______ ____
ROOT
ATOM      1  O   UNL     1       4.451   1.983  17.166  0.00  0.00    +0.000 OA
ATOM      2  C   UNL     1       3.924   3.000  17.601  0.00  0.00    +0.000 C 
ATOM      3  N   UNL     1       4.441   4.235  17.381  0.00  0.00    +0.000 N 
ATOM      4  C   UNL     1       3.731   5.424  17.610  0.00  0.00    +0.000 A 
ATOM      5  C   UNL     1       4.249   6.642  17.169  0.00  0.00    +0.000 A 
ATOM      6 CL   UNL     1       5.753   6.721  16.319  0.00  0.00    +0.000 Cl
ATOM      7  C   UNL     1       3.593   7.833  17.474  0.00  0.00    +0.000 A 
ATOM      8  C   UNL     1       2.408   7.842  18.232  0.00  0.00    +0.000 A 
ATOM      9  C   UNL     1       1.867   6.593  18.620  0.00  0.00    +0.000 A 
ATOM     10  C   UNL     1       2.526   5.377  18.340  0.00  0.00    +0.000 A 
ATOM     11  C   UNL     1       2.218   4.061  19.076  0.00  0.00    +0.000 C 
ATOM     12  C   UNL     1       2.970   4.247  20.425  0.00  0.00    +0.000 C 
ATOM     13  C   UNL     1       2.779   3.191  21.498  0.00  0.00    +0.000 C 
ATOM     14  C   UNL     1       1.396   2.572  21.598  0.00  0.00    +0.000 C 
ATOM     15  C   UNL     1       0.606   2.491  20.297  0.00  0.00    +0.000 C 
ATOM     16  C   UNL     1       0.742   3.726  19.387  0.00  0.00    +0.000 C 
ATOM     17  N   UNL     1       2.746   2.963  18.267  0.00  0.00    +0.000 N 
ATOM     18  H   UNL     1       5.306   4.267  16.856  0.00  0.00    +0.000 HD
ATOM     19  H   UNL     1       2.261   2.079  18.194  0.00  0.00    +0.000 HD
ENDROOT
BRANCH   8  20
ATOM     20  C   UNL     1       1.831   9.124  18.715  0.00  0.00    +0.000 A 
ATOM     21  C   UNL     1       1.049   9.194  19.879  0.00  0.00    +0.000 A 
ATOM     22  C   UNL     1       0.598  10.424  20.379  0.00  0.00    +0.000 A 
ATOM     23  C   UNL     1       0.904  11.611  19.712  0.00  0.00    +0.000 A 
ATOM     24  C   UNL     1       1.665  11.572  18.545  0.00  0.00    +0.000 A 
ATOM     25  C   UNL     1       2.116  10.342  18.059  0.00  0.00    +0.000 A 
BRANCH  23  26
ATOM     26  C   UNL     1       0.483  12.893  20.327  0.00  0.00    +0.000 C 
ATOM     27  O   UNL     1      -0.301  13.649  19.786  0.00  0.00    +0.000 OA
BRANCH  26  28
ATOM     28  O   UNL     1       1.115  13.190  21.475  0.00  0.00    +0.000 OA
ATOM     29  H   UNL     1       1.049  12.524  22.181  0.00  0.00    +0.000 HD
ENDBRANCH  26  28
ENDBRANCH  23  26
ENDBRANCH   8  20
TORSDOF 3
ENDMDL
MODEL 5
REMARK VINA RESULT:      -7.4      4.827      9.152
REMARK  Name = 
REMARK  3 active torsions:
REMARK  status: ('A' for Active; 'I' for Inactive)
REMARK    1  A    between atoms: C_8  and  C_9
REMARK    2  A    between atoms: C_12  and  C_13
REMARK    3  A    between atoms: C_13  and  O_15
REMARK                            x       y       z     vdW  Elec       q    Type
REMARK                         _______ _______ _______ _____ _____    ______ ____
ROOT
ATOM      1  O   UNL     1      -0.620  16.411  18.504  0.00  0.00    +0.000 OA
ATOM      2  C   UNL     1      -0.067  15.328  18.659  0.00  0.00    +0.000 C 
ATOM      3  N   UNL     1      -0.762  14.167  18.745  0.00  0.00    +0.000 N 
ATOM      4  C   UNL     1      -0.168  12.899  18.636  0.00  0.00    +0.000 A 
ATOM      5  C   UNL     1      -0.968  11.761  18.528  0.00  0.00    +0.000 A 
ATOM      6 CL   UNL     1      -2.693  11.877  18.505  0.00  0.00    +0.000 Cl
ATOM      7  C   UNL     1      -0.385  10.495  18.512  0.00  0.00    +0.000 A 
ATOM      8  C   UNL     1       1.008  10.330  18.610  0.00  0.00    +0.000 A 
ATOM      9  C   UNL     1       1.807  11.499  18.659  0.00  0.00    +0.000 A 
ATOM     10  C   UNL     1       1.236  12.788  18.698  0.00  0.00    +0.000 A 
ATOM     11  C   UNL     1       2.004  14.038  19.162  0.00  0.00    +0.000 C 
ATOM     12  C   UNL     1       1.975  13.893  20.712  0.00  0.00    +0.000 C 
ATOM     13  C   UNL     1       2.774  14.887  21.535  0.00  0.00    +0.000 C 
ATOM     14  C   UNL     1       4.096  15.345  20.944  0.00  0.00    +0.000 C 
ATOM     15  C   UNL     1       4.170  15.380  19.421  0.00  0.00    +0.000 C 
ATOM     16  C   UNL     1       3.477  14.196  18.720  0.00  0.00    +0.000 C 
ATOM     17  N   UNL     1       1.281  15.214  18.678  0.00  0.00    +0.000 N 
ATOM     18  H   UNL     1      -1.770  14.247  18.700  0.00  0.00    +0.000 HD
ATOM     19  H   UNL     1       1.769  16.040  18.359  0.00  0.00    +0.000 HD
ENDROOT
BRANCH   8  20
ATOM     20  C   UNL     1       1.598   8.977  18.790  0.00  0.00    +0.000 A 
ATOM     21  C   UNL     1       2.364   8.361  17.787  0.00  0.00    +0.000 A 
ATOM     22  C   UNL     1       2.998   7.131  18.011  0.00  0.00    +0.000 A 
ATOM     23  C   UNL     1       2.863   6.480  19.237  0.00  0.00    +0.000 A 
ATOM     24  C   UNL     1       2.095   7.058  20.247  0.00  0.00    +0.000 A 
ATOM     25  C   UNL     1       1.472   8.288  20.017  0.00  0.00    +0.000 A 
BRANCH  23  26
ATOM     26  C   UNL     1       3.625   5.227  19.458  0.00  0.00    +0.000 C 
ATOM     27  O   UNL     1       3.101   4.208  19.866  0.00  0.00    +0.000 OA
BRANCH  26  28
ATOM     28  O   UNL     1       4.950   5.345  19.265  0.00  0.00    +0.000 OA
ATOM     29  H   UNL     1       5.514   4.813  19.851  0.00  0.00    +0.000 HD
ENDBRANCH  26  28
ENDBRANCH  23  26
ENDBRANCH   8  20
TORSDOF 3
ENDMDL
MODEL 6
REMARK VINA RESULT:      -7.4      2.409      3.862
REMARK  Name = 
REMARK  3 active torsions:
REMARK  status: ('A' for Active; 'I' for Inactive)
REMARK    1  A    between atoms: C_8  and  C_9
REMARK    2  A    between atoms: C_12  and  C_13
REMARK    3  A    between atoms: C_13  and  O_15
REMARK                            x       y       z     vdW  Elec       q    Type
REMARK                         _______ _______ _______ _____ _____    ______ ____
ROOT
ATOM      1  O   UNL     1       4.505   2.044  17.305  0.00  0.00    +0.000 OA
ATOM      2  C   UNL     1       3.957   3.065  17.702  0.00  0.00    +0.000 C 
ATOM      3  N   UNL     1       4.468   4.299  17.470  0.00  0.00    +0.000 N 
ATOM      4  C   UNL     1       3.741   5.487  17.652  0.00  0.00    +0.000 A 
ATOM      5  C   UNL     1       4.261   6.699  17.200  0.00  0.00    +0.000 A 
ATOM      6 CL   UNL     1       5.788   6.774  16.392  0.00  0.00    +0.000 Cl
ATOM      7  C   UNL     1       3.585   7.891  17.460  0.00  0.00    +0.000 A 
ATOM      8  C   UNL     1       2.379   7.904  18.183  0.00  0.00    +0.000 A 
ATOM      9  C   UNL     1       1.838   6.658  18.583  0.00  0.00    +0.000 A 
ATOM     10  C   UNL     1       2.516   5.444  18.349  0.00  0.00    +0.000 A 
ATOM     11  C   UNL     1       2.199   4.140  19.104  0.00  0.00    +0.000 C 
ATOM     12  C   UNL     1       2.911   4.363  20.470  0.00  0.00    +0.000 C 
ATOM     13  C   UNL     1       2.699   3.329  21.560  0.00  0.00    +0.000 C 
ATOM     14  C   UNL     1       1.318   2.698  21.634  0.00  0.00    +0.000 C 
ATOM     15  C   UNL     1       0.567   2.581  20.313  0.00  0.00    +0.000 C 
ATOM     16  C   UNL     1       0.718   3.798  19.381  0.00  0.00    +0.000 C 
ATOM     17  N   UNL     1       2.761   3.030  18.335  0.00  0.00    +0.000 N 
ATOM     18  H   UNL     1       5.348   4.329  16.970  0.00  0.00    +0.000 HD
ATOM     19  H   UNL     1       2.286   2.140  18.267  0.00  0.00    +0.000 HD
ENDROOT
BRANCH   8  20
ATOM     20  C   UNL     1       1.777   9.191  18.622  0.00  0.00    +0.000 A 
ATOM     21  C   UNL     1       2.069  10.405  17.980  0.00  0.00    +0.000 A 
ATOM     22  C   UNL     1       1.415  11.592  18.339  0.00  0.00    +0.000 A 
ATOM     23  C   UNL     1       0.468  11.594  19.363  0.00  0.00    +0.000 A 
ATOM     24  C   UNL     1       0.168  10.407  20.030  0.00  0.00    +0.000 A 
ATOM     25  C   UNL     1       0.820   9.228  19.661  0.00  0.00    +0.000 A 
BRANCH  23  26
ATOM     26  C   UNL     1      -0.263  12.854  19.645  0.00  0.00    +0.000 C 
ATOM     27  O   UNL     1      -0.311  13.344  20.757  0.00  0.00    +0.000 OA
BRANCH  26  28
ATOM     28  O   UNL     1      -0.942  13.345  18.596  0.00  0.00    +0.000 OA
ATOM     29  H   UNL     1      -0.593  13.116  17.717  0.00  0.00    +0.000 HD
ENDBRANCH  26  28
ENDBRANCH  23  26
ENDBRANCH   8  20
TORSDOF 3
ENDMDL
MODEL 7
REMARK VINA RESULT:      -7.1      4.177      8.684
REMARK  Name = 
REMARK  3 active torsions:
REMARK  status: ('A' for Active; 'I' for Inactive)
REMARK    1  A    between atoms: C_8  and  C_9
REMARK    2  A    between atoms: C_12  and  C_13
REMARK    3  A    between atoms: C_13  and  O_15
REMARK                            x       y       z     vdW  Elec       q    Type
REMARK                         _______ _______ _______ _____ _____    ______ ____
ROOT
ATOM      1  O   UNL     1      -1.945  13.861  22.942  0.00  0.00    +0.000 OA
ATOM      2  C   UNL     1      -1.254  13.160  22.213  0.00  0.00    +0.000 C 
ATOM      3  N   UNL     1      -0.742  11.973  22.623  0.00  0.00    +0.000 N 
ATOM      4  C   UNL     1      -0.196  11.020  21.747  0.00  0.00    +0.000 A 
ATOM      5  C   UNL     1       0.121   9.744  22.215  0.00  0.00    +0.000 A 
ATOM      6 CL   UNL     1      -0.164   9.296  23.860  0.00  0.00    +0.000 Cl
ATOM      7  C   UNL     1       0.746   8.826  21.372  0.00  0.00    +0.000 A 
ATOM      8  C   UNL     1       1.078   9.158  20.047  0.00  0.00    +0.000 A 
ATOM      9  C   UNL     1       0.695  10.437  19.573  0.00  0.00    +0.000 A 
ATOM     10  C   UNL     1       0.081  11.388  20.415  0.00  0.00    +0.000 A 
ATOM     11  C   UNL     1       0.026  12.892  20.091  0.00  0.00    +0.000 C 
ATOM     12  C   UNL     1       1.458  13.369  20.468  0.00  0.00    +0.000 C 
ATOM     13  C   UNL     1       1.839  14.802  20.146  0.00  0.00    +0.000 C 
ATOM     14  C   UNL     1       1.273  15.378  18.859  0.00  0.00    +0.000 C 
ATOM     15  C   UNL     1      -0.081  14.830  18.422  0.00  0.00    +0.000 C 
ATOM     16  C   UNL     1      -0.256  13.314  18.631  0.00  0.00    +0.000 C 
ATOM     17  N   UNL     1      -1.020  13.490  20.921  0.00  0.00    +0.000 N 
ATOM     18  H   UNL     1      -0.942  11.709  23.580  0.00  0.00    +0.000 HD
ATOM     19  H   UNL     1      -1.613  14.230  20.572  0.00  0.00    +0.000 HD
ENDROOT
BRANCH   8  20
ATOM     20  C   UNL     1       1.918   8.245  19.227  0.00  0.00    +0.000 A 
ATOM     21  C   UNL     1       2.418   8.623  17.970  0.00  0.00    +0.000 A 
ATOM     22  C   UNL     1       3.292   7.791  17.256  0.00  0.00    +0.000 A 
ATOM     23  C   UNL     1       3.669   6.553  17.775  0.00  0.00    +0.000 A 
ATOM     24  C   UNL     1       3.176   6.142  19.014  0.00  0.00    +0.000 A 
ATOM     25  C   UNL     1       2.311   6.981  19.721  0.00  0.00    +0.000 A 
BRANCH  23  26
ATOM     26  C   UNL     1       4.666   5.749  17.027  0.00  0.00    +0.000 C 
ATOM     27  O   UNL     1       5.008   4.638  17.385  0.00  0.00    +0.000 OA
BRANCH  26  28
ATOM     28  O   UNL     1       5.225   6.390  15.988  0.00  0.00    +0.000 OA
ATOM     29  H   UNL     1       5.971   5.937  15.559  0.00  0.00    +0.000 HD
ENDBRANCH  26  28
ENDBRANCH  23  26
ENDBRANCH   8  20
TORSDOF 3
ENDMDL
MODEL 8
REMARK VINA RESULT:      -7.0      4.256      8.641
REMARK  Name = 
REMARK  3 active torsions:
REMARK  status: ('A' for Active; 'I' for Inactive)
REMARK    1  A    between atoms: C_8  and  C_9
REMARK    2  A    between atoms: C_12  and  C_13
REMARK    3  A    between atoms: C_13  and  O_15
REMARK                            x       y       z     vdW  Elec       q    Type
REMARK                         _______ _______ _______ _____ _____    ______ ____
ROOT
ATOM      1  O   UNL     1      -1.281  14.500  22.502  0.00  0.00    +0.000 OA
ATOM      2  C   UNL     1      -0.626  13.681  21.869  0.00  0.00    +0.000 C 
ATOM      3  N   UNL     1      -0.485  12.395  22.277  0.00  0.00    +0.000 N 
ATOM      4  C   UNL     1       0.007  11.370  21.453  0.00  0.00    +0.000 A 
ATOM      5  C   UNL     1      -0.069  10.041  21.872  0.00  0.00    +0.000 A 
ATOM      6 CL   UNL     1      -0.780   9.620  23.390  0.00  0.00    +0.000 Cl
ATOM      7  C   UNL     1       0.499   9.030  21.098  0.00  0.00    +0.000 A 
ATOM      8  C   UNL     1       1.163   9.318  19.893  0.00  0.00    +0.000 A 
ATOM      9  C   UNL     1       1.178  10.665  19.455  0.00  0.00    +0.000 A 
ATOM     10  C   UNL     1       0.628  11.705  20.233  0.00  0.00    +0.000 A 
ATOM     11  C   UNL     1       0.974  13.190  20.022  0.00  0.00    +0.000 C 
ATOM     12  C   UNL     1       2.366  13.310  20.707  0.00  0.00    +0.000 C 
ATOM     13  C   UNL     1       3.112  14.626  20.577  0.00  0.00    +0.000 C 
ATOM     14  C   UNL     1       2.966  15.358  19.254  0.00  0.00    +0.000 C 
ATOM     15  C   UNL     1       1.646  15.152  18.520  0.00  0.00    +0.000 C 
ATOM     16  C   UNL     1       1.101  13.712  18.573  0.00  0.00    +0.000 C 
ATOM     17  N   UNL     1      -0.063  13.988  20.677  0.00  0.00    +0.000 N 
ATOM     18  H   UNL     1      -0.932  12.155  23.153  0.00  0.00    +0.000 HD
ATOM     19  H   UNL     1      -0.392  14.856  20.278  0.00  0.00    +0.000 HD
ENDROOT
BRANCH   8  20
ATOM     20  C   UNL     1       1.931   8.261  19.184  0.00  0.00    +0.000 A 
ATOM     21  C   UNL     1       2.509   8.482  17.923  0.00  0.00    +0.000 A 
ATOM     22  C   UNL     1       3.317   7.512  17.314  0.00  0.00    +0.000 A 
ATOM     23  C   UNL     1       3.548   6.289  17.944  0.00  0.00    +0.000 A 
ATOM     24  C   UNL     1       2.974   6.033  19.189  0.00  0.00    +0.000 A 
ATOM     25  C   UNL     1       2.176   7.010  19.791  0.00  0.00    +0.000 A 
BRANCH  23  26
ATOM     26  C   UNL     1       4.481   5.331  17.304  0.00  0.00    +0.000 C 
ATOM     27  O   UNL     1       4.967   5.528  16.206  0.00  0.00    +0.000 OA
BRANCH  26  28
ATOM     28  O   UNL     1       4.662   4.191  17.993  0.00  0.00    +0.000 OA
ATOM     29  H   UNL     1       4.533   3.367  17.494  0.00  0.00    +0.000 HD
ENDBRANCH  26  28
ENDBRANCH  23  26
ENDBRANCH   8  20
TORSDOF 3
ENDMDL
MODEL 9
REMARK VINA RESULT:      -7.0      2.431      3.961
REMARK  Name = 
REMARK  3 active torsions:
REMARK  status: ('A' for Active; 'I' for Inactive)
REMARK    1  A    between atoms: C_8  and  C_9
REMARK    2  A    between atoms: C_12  and  C_13
REMARK    3  A    between atoms: C_13  and  O_15
REMARK                            x       y       z     vdW  Elec       q    Type
REMARK                         _______ _______ _______ _____ _____    ______ ____
ROOT
ATOM      1  O   UNL     1       5.258   2.583  17.897  0.00  0.00    +0.000 OA
ATOM      2  C   UNL     1       4.500   3.527  18.086  0.00  0.00    +0.000 C 
ATOM      3  N   UNL     1       4.881   4.813  17.888  0.00  0.00    +0.000 N 
ATOM      4  C   UNL     1       3.979   5.887  17.816  0.00  0.00    +0.000 A 
ATOM      5  C   UNL     1       4.423   7.144  17.407  0.00  0.00    +0.000 A 
ATOM      6 CL   UNL     1       6.072   7.412  16.963  0.00  0.00    +0.000 Cl
ATOM      7  C   UNL     1       3.552   8.233  17.422  0.00  0.00    +0.000 A 
ATOM      8  C   UNL     1       2.220   8.097  17.851  0.00  0.00    +0.000 A 
ATOM      9  C   UNL     1       1.772   6.801  18.206  0.00  0.00    +0.000 A 
ATOM     10  C   UNL     1       2.643   5.691  18.218  0.00  0.00    +0.000 A 
ATOM     11  C   UNL     1       2.335   4.385  18.973  0.00  0.00    +0.000 C 
ATOM     12  C   UNL     1       2.670   4.763  20.445  0.00  0.00    +0.000 C 
ATOM     13  C   UNL     1       2.349   3.751  21.530  0.00  0.00    +0.000 C 
ATOM     14  C   UNL     1       1.088   2.927  21.334  0.00  0.00    +0.000 C 
ATOM     15  C   UNL     1       0.689   2.651  19.889  0.00  0.00    +0.000 C 
ATOM     16  C   UNL     1       0.889   3.840  18.931  0.00  0.00    +0.000 C 
ATOM     17  N   UNL     1       3.204   3.341  18.432  0.00  0.00    +0.000 N 
ATOM     18  H   UNL     1       5.842   4.952  17.599  0.00  0.00    +0.000 HD
ATOM     19  H   UNL     1       2.882   2.389  18.323  0.00  0.00    +0.000 HD
ENDROOT
BRANCH   8  20
ATOM     20  C   UNL     1       1.365   9.296  18.049  0.00  0.00    +0.000 A 
ATOM     21  C   UNL     1      -0.027   9.257  17.862  0.00  0.00    +0.000 A 
ATOM     22  C   UNL     1      -0.831  10.367  18.152  0.00  0.00    +0.000 A 
ATOM     23  C   UNL     1      -0.258  11.551  18.617  0.00  0.00    +0.000 A 
ATOM     24  C   UNL     1       1.122  11.627  18.797  0.00  0.00    +0.000 A 
ATOM     25  C   UNL     1       1.915  10.513  18.512  0.00  0.00    +0.000 A 
BRANCH  23  26
ATOM     26  C   UNL     1      -1.157  12.668  18.997  0.00  0.00    +0.000 C 
ATOM     27  O   UNL     1      -2.133  12.508  19.705  0.00  0.00    +0.000 OA
BRANCH  26  28
ATOM     28  O   UNL     1      -0.858  13.841  18.413  0.00  0.00    +0.000 OA
ATOM     29  H   UNL     1      -1.469  14.139  17.719  0.00  0.00    +0.000 HD
ENDBRANCH  26  28
ENDBRANCH  23  26
ENDBRANCH   8  20
TORSDOF 3
ENDMDL
