MODEL 1
REMARK VINA RESULT:      -9.1      0.000      0.000
REMARK  Name = 
REMARK  5 active torsions:
REMARK  status: ('A' for Active; 'I' for Inactive)
REMARK    1  A    between atoms: C_2  and  C_3
REMARK    2  A    between atoms: C_7  and  O_8
REMARK    3  A    between atoms: O_8  and  C_9
REMARK    4  A    between atoms: C_14  and  C_15
REMARK    5  A    between atoms: C_18  and  C_19
REMARK                            x       y       z     vdW  Elec       q    Type
REMARK                         _______ _______ _______ _____ _____    ______ ____
ROOT
ATOM      1  C   UNL     1       1.378   9.965  18.921  0.00  0.00    +0.000 A 
ATOM      2  C   UNL     1       1.947   9.350  17.794  0.00  0.00    +0.000 A 
ATOM      3  C   UNL     1       2.444   8.037  17.835  0.00  0.00    +0.000 A 
ATOM      4  C   UNL     1       2.372   7.261  19.002  0.00  0.00    +0.000 A 
ATOM      5  C   UNL     1       1.725   7.850  20.097  0.00  0.00    +0.000 A 
ATOM      6  F   UNL     1       1.583   7.175  21.248  0.00  0.00    +0.000 F 
ATOM      7  C   UNL     1       1.247   9.163  20.065  0.00  0.00    +0.000 A 
ENDROOT
BRANCH   4   8
ATOM      8  C   UNL     1       2.994   5.929  19.089  0.00  0.00    +0.000 A 
ATOM      9  C   UNL     1       4.366   5.734  19.127  0.00  0.00    +0.000 A 
ATOM     10  N   UNL     1       4.976   4.537  19.281  0.00  0.00    +0.000 NA
ATOM     11  C   UNL     1       4.178   3.480  19.428  0.00  0.00    +0.000 A 
ATOM     12  N   UNL     1       4.771   2.253  19.629  0.00  0.00    +0.000 N 
ATOM     13  N   UNL     1       2.847   3.521  19.364  0.00  0.00    +0.000 NA
ATOM     14  C   UNL     1       2.289   4.743  19.203  0.00  0.00    +0.000 A 
ATOM     15  H   UNL     1       5.706   2.259  19.251  0.00  0.00    +0.000 HD
ATOM     16  H   UNL     1       4.145   1.519  19.330  0.00  0.00    +0.000 HD
ENDBRANCH   4   8
BRANCH   1  22
ATOM     17  C   UNL     1      -0.414  11.796  18.936  0.00  0.00    +0.000 A 
ATOM     18  C   UNL     1      -0.751  13.163  18.985  0.00  0.00    +0.000 A 
ATOM     19  C   UNL     1       0.232  14.142  18.890  0.00  0.00    +0.000 A 
ATOM     20  C   UNL     1       1.566  13.769  18.828  0.00  0.00    +0.000 A 
ATOM     21  C   UNL     1       1.915  12.416  18.880  0.00  0.00    +0.000 A 
ATOM     22  C   UNL     1       0.944  11.391  18.927  0.00  0.00    +0.000 A 
BRANCH  17  23
ATOM     23  O   UNL     1      -1.384  10.809  18.919  0.00  0.00    +0.000 OA
BRANCH  23  28
ATOM     24  C   UNL     1      -4.250  11.351  16.926  0.00  0.00    +0.000 A 
ATOM     25  C   UNL     1      -4.008  10.636  15.759  0.00  0.00    +0.000 A 
ATOM     26  C   UNL     1      -2.841   9.886  15.674  0.00  0.00    +0.000 A 
ATOM     27  C   UNL     1      -1.958   9.883  16.748  0.00  0.00    +0.000 A 
ATOM     28  C   UNL     1      -2.237  10.694  17.845  0.00  0.00    +0.000 A 
ATOM     29  N   UNL     1      -3.383  11.399  17.965  0.00  0.00    +0.000 NA
BRANCH  24  31
ATOM     30  N   UNL     1      -6.490  12.637  17.207  0.00  0.00    +0.000 NA
ATOM     31  C   UNL     1      -5.475  12.088  17.089  0.00  0.00    +0.000 C 
ENDBRANCH  24  31
ENDBRANCH  23  28
ENDBRANCH  17  23
ENDBRANCH   1  22
TORSDOF 5
ENDMDL
MODEL 2
REMARK VINA RESULT:      -9.0      3.559      8.792
REMARK  Name = 
REMARK  5 active torsions:
REMARK  status: ('A' for Active; 'I' for Inactive)
REMARK    1  A    between atoms: C_2  and  C_3
REMARK    2  A    between atoms: C_7  and  O_8
REMARK    3  A    between atoms: O_8  and  C_9
REMARK    4  A    between atoms: C_14  and  C_15
REMARK    5  A    between atoms: C_18  and  C_19
REMARK                            x       y       z     vdW  Elec       q    Type
REMARK                         _______ _______ _______ _____ _____    ______ ____
ROOT
ATOM      1  C   UNL     1       3.018   6.928  18.366  0.00  0.00    +0.000 A 
ATOM      2  C   UNL     1       2.670   6.624  19.692  0.00  0.00    +0.000 A 
ATOM      3  C   UNL     1       1.839   7.461  20.454  0.00  0.00    +0.000 A 
ATOM      4  C   UNL     1       1.290   8.635  19.917  0.00  0.00    +0.000 A 
ATOM      5  C   UNL     1       1.570   8.888  18.568  0.00  0.00    +0.000 A 
ATOM      6  F   UNL     1       1.067   9.973  17.959  0.00  0.00    +0.000 F 
ATOM      7  C   UNL     1       2.413   8.067  17.813  0.00  0.00    +0.000 A 
ENDROOT
BRANCH   4   8
ATOM      8  C   UNL     1       0.514   9.578  20.741  0.00  0.00    +0.000 A 
ATOM      9  C   UNL     1       0.668   9.689  22.114  0.00  0.00    +0.000 A 
ATOM     10  N   UNL     1       0.033  10.590  22.897  0.00  0.00    +0.000 NA
ATOM     11  C   UNL     1      -0.783  11.441  22.276  0.00  0.00    +0.000 A 
ATOM     12  N   UNL     1      -1.413  12.398  23.043  0.00  0.00    +0.000 N 
ATOM     13  N   UNL     1      -1.058  11.414  20.973  0.00  0.00    +0.000 NA
ATOM     14  C   UNL     1      -0.399  10.488  20.237  0.00  0.00    +0.000 A 
ATOM     15  H   UNL     1      -1.478  12.082  23.999  0.00  0.00    +0.000 HD
ATOM     16  H   UNL     1      -2.262  12.696  22.584  0.00  0.00    +0.000 HD
ENDBRANCH   4   8
BRANCH   1  22
ATOM     17  C   UNL     1       3.716   4.788  17.143  0.00  0.00    +0.000 A 
ATOM     18  C   UNL     1       4.659   4.089  16.364  0.00  0.00    +0.000 A 
ATOM     19  C   UNL     1       5.919   4.625  16.121  0.00  0.00    +0.000 A 
ATOM     20  C   UNL     1       6.222   5.896  16.583  0.00  0.00    +0.000 A 
ATOM     21  C   UNL     1       5.257   6.638  17.271  0.00  0.00    +0.000 A 
ATOM     22  C   UNL     1       3.983   6.110  17.579  0.00  0.00    +0.000 A 
BRANCH  17  23
ATOM     23  O   UNL     1       2.498   4.227  17.486  0.00  0.00    +0.000 OA
BRANCH  23  28
ATOM     24  C   UNL     1       3.320   2.500  20.455  0.00  0.00    +0.000 A 
ATOM     25  C   UNL     1       2.164   2.550  21.225  0.00  0.00    +0.000 A 
ATOM     26  C   UNL     1       1.034   3.148  20.679  0.00  0.00    +0.000 A 
ATOM     27  C   UNL     1       1.101   3.678  19.396  0.00  0.00    +0.000 A 
ATOM     28  C   UNL     1       2.322   3.660  18.728  0.00  0.00    +0.000 A 
ATOM     29  N   UNL     1       3.422   3.050  19.223  0.00  0.00    +0.000 NA
BRANCH  24  31
ATOM     30  N   UNL     1       5.474   1.330  21.322  0.00  0.00    +0.000 NA
ATOM     31  C   UNL     1       4.496   1.832  20.950  0.00  0.00    +0.000 C 
ENDBRANCH  24  31
ENDBRANCH  23  28
ENDBRANCH  17  23
ENDBRANCH   1  22
TORSDOF 5
ENDMDL
MODEL 3
REMARK VINA RESULT:      -8.8      3.050      8.782
REMARK  Name = 
REMARK  5 active torsions:
REMARK  status: ('A' for Active; 'I' for Inactive)
REMARK    1  A    between atoms: C_2  and  C_3
REMARK    2  A    between atoms: C_7  and  O_8
REMARK    3  A    between atoms: O_8  and  C_9
REMARK    4  A    between atoms: C_14  and  C_15
REMARK    5  A    between atoms: C_18  and  C_19
REMARK                            x       y       z     vdW  Elec       q    Type
REMARK                         _______ _______ _______ _____ _____    ______ ____
ROOT
ATOM      1  C   UNL     1       2.892   7.321  18.268  0.00  0.00    +0.000 A 
ATOM      2  C   UNL     1       2.409   8.473  17.627  0.00  0.00    +0.000 A 
ATOM      3  C   UNL     1       1.542   9.373  18.268  0.00  0.00    +0.000 A 
ATOM      4  C   UNL     1       1.136   9.178  19.597  0.00  0.00    +0.000 A 
ATOM      5  C   UNL     1       1.689   8.074  20.259  0.00  0.00    +0.000 A 
ATOM      6  F   UNL     1       1.380   7.822  21.540  0.00  0.00    +0.000 F 
ATOM      7  C   UNL     1       2.536   7.166  19.617  0.00  0.00    +0.000 A 
ENDROOT
BRANCH   4   8
ATOM      8  C   UNL     1       0.137  10.051  20.239  0.00  0.00    +0.000 A 
ATOM      9  C   UNL     1       0.082  10.261  21.608  0.00  0.00    +0.000 A 
ATOM     10  N   UNL     1      -0.767  11.108  22.231  0.00  0.00    +0.000 NA
ATOM     11  C   UNL     1      -1.592  11.802  21.446  0.00  0.00    +0.000 A 
ATOM     12  N   UNL     1      -2.441  12.704  22.049  0.00  0.00    +0.000 N 
ATOM     13  N   UNL     1      -1.676  11.662  20.123  0.00  0.00    +0.000 NA
ATOM     14  C   UNL     1      -0.806  10.796  19.553  0.00  0.00    +0.000 A 
ATOM     15  H   UNL     1      -2.598  12.438  23.009  0.00  0.00    +0.000 HD
ATOM     16  H   UNL     1      -3.249  12.855  21.462  0.00  0.00    +0.000 HD
ENDBRANCH   4   8
BRANCH   1  22
ATOM     17  C   UNL     1       3.339   4.944  17.420  0.00  0.00    +0.000 A 
ATOM     18  C   UNL     1       4.158   4.044  16.709  0.00  0.00    +0.000 A 
ATOM     19  C   UNL     1       5.416   4.429  16.261  0.00  0.00    +0.000 A 
ATOM     20  C   UNL     1       5.837   5.737  16.442  0.00  0.00    +0.000 A 
ATOM     21  C   UNL     1       4.990   6.664  17.057  0.00  0.00    +0.000 A 
ATOM     22  C   UNL     1       3.725   6.300  17.570  0.00  0.00    +0.000 A 
BRANCH  17  23
ATOM     23  O   UNL     1       2.132   4.550  17.969  0.00  0.00    +0.000 OA
BRANCH  23  28
ATOM     24  C   UNL     1       3.292   2.549  20.638  0.00  0.00    +0.000 A 
ATOM     25  C   UNL     1       2.241   2.531  21.549  0.00  0.00    +0.000 A 
ATOM     26  C   UNL     1       1.062   3.182  21.207  0.00  0.00    +0.000 A 
ATOM     27  C   UNL     1       0.975   3.831  19.981  0.00  0.00    +0.000 A 
ATOM     28  C   UNL     1       2.104   3.871  19.165  0.00  0.00    +0.000 A 
ATOM     29  N   UNL     1       3.247   3.212  19.459  0.00  0.00    +0.000 NA
BRANCH  24  31
ATOM     30  N   UNL     1       5.478   1.259  21.193  0.00  0.00    +0.000 NA
ATOM     31  C   UNL     1       4.509   1.834  20.917  0.00  0.00    +0.000 C 
ENDBRANCH  24  31
ENDBRANCH  23  28
ENDBRANCH  17  23
ENDBRANCH   1  22
TORSDOF 5
ENDMDL
MODEL 4
REMARK VINA RESULT:      -8.8      1.057      1.626
REMARK  Name = 
REMARK  5 active torsions:
REMARK  status: ('A' for Active; 'I' for Inactive)
REMARK    1  A    between atoms: C_2  and  C_3
REMARK    2  A    between atoms: C_7  and  O_8
REMARK    3  A    between atoms: O_8  and  C_9
REMARK    4  A    between atoms: C_14  and  C_15
REMARK    5  A    between atoms: C_18  and  C_19
REMARK                            x       y       z     vdW  Elec       q    Type
REMARK                         _______ _______ _______ _____ _____    ______ ____
ROOT
ATOM      1  C   UNL     1       1.404  10.076  18.949  0.00  0.00    +0.000 A 
ATOM      2  C   UNL     1       1.965   9.448  17.825  0.00  0.00    +0.000 A 
ATOM      3  C   UNL     1       2.442   8.128  17.871  0.00  0.00    +0.000 A 
ATOM      4  C   UNL     1       2.357   7.358  19.041  0.00  0.00    +0.000 A 
ATOM      5  C   UNL     1       1.718   7.960  20.133  0.00  0.00    +0.000 A 
ATOM      6  F   UNL     1       1.565   7.291  21.287  0.00  0.00    +0.000 F 
ATOM      7  C   UNL     1       1.260   9.280  20.096  0.00  0.00    +0.000 A 
ENDROOT
BRANCH   4   8
ATOM      8  C   UNL     1       2.959   6.017  19.134  0.00  0.00    +0.000 A 
ATOM      9  C   UNL     1       4.315   5.782  18.973  0.00  0.00    +0.000 A 
ATOM     10  N   UNL     1       4.920   4.582  19.123  0.00  0.00    +0.000 NA
ATOM     11  C   UNL     1       4.134   3.564  19.475  0.00  0.00    +0.000 A 
ATOM     12  N   UNL     1       4.728   2.337  19.676  0.00  0.00    +0.000 N 
ATOM     13  N   UNL     1       2.811   3.642  19.616  0.00  0.00    +0.000 NA
ATOM     14  C   UNL     1       2.258   4.865  19.448  0.00  0.00    +0.000 A 
ATOM     15  H   UNL     1       5.591   2.286  19.157  0.00  0.00    +0.000 HD
ATOM     16  H   UNL     1       4.048   1.603  19.536  0.00  0.00    +0.000 HD
ENDBRANCH   4   8
BRANCH   1  22
ATOM     17  C   UNL     1      -0.360  11.934  18.983  0.00  0.00    +0.000 A 
ATOM     18  C   UNL     1      -0.676  13.306  19.026  0.00  0.00    +0.000 A 
ATOM     19  C   UNL     1       0.319  14.269  18.898  0.00  0.00    +0.000 A 
ATOM     20  C   UNL     1       1.646  13.875  18.811  0.00  0.00    +0.000 A 
ATOM     21  C   UNL     1       1.976  12.518  18.869  0.00  0.00    +0.000 A 
ATOM     22  C   UNL     1       0.991  11.508  18.949  0.00  0.00    +0.000 A 
BRANCH  17  23
ATOM     23  O   UNL     1      -1.345  10.961  18.999  0.00  0.00    +0.000 OA
BRANCH  23  28
ATOM     24  C   UNL     1      -3.235  10.658  16.031  0.00  0.00    +0.000 A 
ATOM     25  C   UNL     1      -4.504  11.110  16.372  0.00  0.00    +0.000 A 
ATOM     26  C   UNL     1      -4.706  11.596  17.658  0.00  0.00    +0.000 A 
ATOM     27  C   UNL     1      -3.644  11.608  18.554  0.00  0.00    +0.000 A 
ATOM     28  C   UNL     1      -2.428  11.058  18.155  0.00  0.00    +0.000 A 
ATOM     29  N   UNL     1      -2.198  10.616  16.899  0.00  0.00    +0.000 NA
BRANCH  24  31
ATOM     30  N   UNL     1      -2.760   9.887  13.594  0.00  0.00    +0.000 NA
ATOM     31  C   UNL     1      -2.958  10.207  14.692  0.00  0.00    +0.000 C 
ENDBRANCH  24  31
ENDBRANCH  23  28
ENDBRANCH  17  23
ENDBRANCH   1  22
TORSDOF 5
ENDMDL
MODEL 5
REMARK VINA RESULT:      -8.7      2.953      9.042
REMARK  Name = 
REMARK  5 active torsions:
REMARK  status: ('A' for Active; 'I' for Inactive)
REMARK    1  A    between atoms: C_2  and  C_3
REMARK    2  A    between atoms: C_7  and  O_8
REMARK    3  A    between atoms: O_8  and  C_9
REMARK    4  A    between atoms: C_14  and  C_15
REMARK    5  A    between atoms: C_18  and  C_19
REMARK                            x       y       z     vdW  Elec       q    Type
REMARK                         _______ _______ _______ _____ _____    ______ ____
ROOT
ATOM      1  C   UNL     1       2.100   6.866  19.509  0.00  0.00    +0.000 A 
ATOM      2  C   UNL     1       2.272   7.502  18.269  0.00  0.00    +0.000 A 
ATOM      3  C   UNL     1       1.898   8.840  18.062  0.00  0.00    +0.000 A 
ATOM      4  C   UNL     1       1.355   9.619  19.095  0.00  0.00    +0.000 A 
ATOM      5  C   UNL     1       1.266   9.004  20.351  0.00  0.00    +0.000 A 
ATOM      6  F   UNL     1       0.785   9.679  21.407  0.00  0.00    +0.000 F 
ATOM      7  C   UNL     1       1.619   7.667  20.556  0.00  0.00    +0.000 A 
ENDROOT
BRANCH   4   8
ATOM      8  C   UNL     1       0.852  10.983  18.858  0.00  0.00    +0.000 A 
ATOM      9  C   UNL     1      -0.494  11.280  18.717  0.00  0.00    +0.000 A 
ATOM     10  N   UNL     1      -1.004  12.524  18.573  0.00  0.00    +0.000 NA
ATOM     11  C   UNL     1      -0.128  13.529  18.594  0.00  0.00    +0.000 A 
ATOM     12  N   UNL     1      -0.622  14.811  18.491  0.00  0.00    +0.000 N 
ATOM     13  N   UNL     1       1.194  13.380  18.675  0.00  0.00    +0.000 NA
ATOM     14  C   UNL     1       1.650  12.113  18.811  0.00  0.00    +0.000 A 
ATOM     15  H   UNL     1      -1.518  14.796  18.027  0.00  0.00    +0.000 HD
ATOM     16  H   UNL     1       0.092  15.422  18.121  0.00  0.00    +0.000 HD
ENDBRANCH   4   8
BRANCH   1  22
ATOM     17  C   UNL     1       2.965   4.584  18.728  0.00  0.00    +0.000 A 
ATOM     18  C   UNL     1       3.253   3.235  19.011  0.00  0.00    +0.000 A 
ATOM     19  C   UNL     1       2.857   2.660  20.214  0.00  0.00    +0.000 A 
ATOM     20  C   UNL     1       2.246   3.445  21.179  0.00  0.00    +0.000 A 
ATOM     21  C   UNL     1       2.048   4.809  20.947  0.00  0.00    +0.000 A 
ATOM     22  C   UNL     1       2.391   5.419  19.719  0.00  0.00    +0.000 A 
BRANCH  17  23
ATOM     23  O   UNL     1       3.252   5.145  17.496  0.00  0.00    +0.000 OA
BRANCH  23  28
ATOM     24  C   UNL     1       6.614   6.117  17.023  0.00  0.00    +0.000 A 
ATOM     25  C   UNL     1       7.146   5.151  16.177  0.00  0.00    +0.000 A 
ATOM     26  C   UNL     1       6.300   4.157  15.699  0.00  0.00    +0.000 A 
ATOM     27  C   UNL     1       4.965   4.158  16.085  0.00  0.00    +0.000 A 
ATOM     28  C   UNL     1       4.536   5.114  17.002  0.00  0.00    +0.000 A 
ATOM     29  N   UNL     1       5.330   6.112  17.449  0.00  0.00    +0.000 NA
BRANCH  24  31
ATOM     30  N   UNL     1       8.050   8.100  17.897  0.00  0.00    +0.000 NA
ATOM     31  C   UNL     1       7.432   7.205  17.491  0.00  0.00    +0.000 C 
ENDBRANCH  24  31
ENDBRANCH  23  28
ENDBRANCH  17  23
ENDBRANCH   1  22
TORSDOF 5
ENDMDL
MODEL 6
REMARK VINA RESULT:      -8.6      3.125      9.270
REMARK  Name = 
REMARK  5 active torsions:
REMARK  status: ('A' for Active; 'I' for Inactive)
REMARK    1  A    between atoms: C_2  and  C_3
REMARK    2  A    between atoms: C_7  and  O_8
REMARK    3  A    between atoms: O_8  and  C_9
REMARK    4  A    between atoms: C_14  and  C_15
REMARK    5  A    between atoms: C_18  and  C_19
REMARK                            x       y       z     vdW  Elec       q    Type
REMARK                         _______ _______ _______ _____ _____    ______ ____
ROOT
ATOM      1  C   UNL     1       2.209   6.618  19.585  0.00  0.00    +0.000 A 
ATOM      2  C   UNL     1       2.411   7.243  18.344  0.00  0.00    +0.000 A 
ATOM      3  C   UNL     1       2.021   8.572  18.109  0.00  0.00    +0.000 A 
ATOM      4  C   UNL     1       1.434   9.353  19.117  0.00  0.00    +0.000 A 
ATOM      5  C   UNL     1       1.315   8.751  20.376  0.00  0.00    +0.000 A 
ATOM      6  F   UNL     1       0.789   9.429  21.409  0.00  0.00    +0.000 F 
ATOM      7  C   UNL     1       1.683   7.423  20.607  0.00  0.00    +0.000 A 
ENDROOT
BRANCH   4   8
ATOM      8  C   UNL     1       0.916  10.706  18.848  0.00  0.00    +0.000 A 
ATOM      9  C   UNL     1      -0.431  10.982  18.675  0.00  0.00    +0.000 A 
ATOM     10  N   UNL     1      -0.956  12.216  18.502  0.00  0.00    +0.000 NA
ATOM     11  C   UNL     1      -0.095  13.233  18.524  0.00  0.00    +0.000 A 
ATOM     12  N   UNL     1      -0.605  14.506  18.391  0.00  0.00    +0.000 N 
ATOM     13  N   UNL     1       1.227  13.104  18.634  0.00  0.00    +0.000 NA
ATOM     14  C   UNL     1       1.698  11.847  18.799  0.00  0.00    +0.000 A 
ATOM     15  H   UNL     1      -1.491  14.471  17.910  0.00  0.00    +0.000 HD
ATOM     16  H   UNL     1       0.108  15.122  18.025  0.00  0.00    +0.000 HD
ENDBRANCH   4   8
BRANCH   1  22
ATOM     17  C   UNL     1       3.172   4.352  18.873  0.00  0.00    +0.000 A 
ATOM     18  C   UNL     1       3.469   3.010  19.182  0.00  0.00    +0.000 A 
ATOM     19  C   UNL     1       3.010   2.432  20.360  0.00  0.00    +0.000 A 
ATOM     20  C   UNL     1       2.322   3.207  21.280  0.00  0.00    +0.000 A 
ATOM     21  C   UNL     1       2.109   4.566  21.028  0.00  0.00    +0.000 A 
ATOM     22  C   UNL     1       2.517   5.178  19.821  0.00  0.00    +0.000 A 
BRANCH  17  23
ATOM     23  O   UNL     1       3.525   4.915  17.659  0.00  0.00    +0.000 OA
BRANCH  23  28
ATOM     24  C   UNL     1       6.150   4.329  15.370  0.00  0.00    +0.000 A 
ATOM     25  C   UNL     1       7.309   4.605  16.084  0.00  0.00    +0.000 A 
ATOM     26  C   UNL     1       7.191   4.948  17.426  0.00  0.00    +0.000 A 
ATOM     27  C   UNL     1       5.928   5.011  18.001  0.00  0.00    +0.000 A 
ATOM     28  C   UNL     1       4.814   4.801  17.192  0.00  0.00    +0.000 A 
ATOM     29  N   UNL     1       4.906   4.428  15.896  0.00  0.00    +0.000 NA
BRANCH  24  31
ATOM     30  N   UNL     1       6.240   3.592  12.879  0.00  0.00    +0.000 NA
ATOM     31  C   UNL     1       6.224   3.904  13.996  0.00  0.00    +0.000 C 
ENDBRANCH  24  31
ENDBRANCH  23  28
ENDBRANCH  17  23
ENDBRANCH   1  22
TORSDOF 5
ENDMDL
MODEL 7
REMARK VINA RESULT:      -8.6      2.926      9.242
REMARK  Name = 
REMARK  5 active torsions:
REMARK  status: ('A' for Active; 'I' for Inactive)
REMARK    1  A    between atoms: C_2  and  C_3
REMARK    2  A    between atoms: C_7  and  O_8
REMARK    3  A    between atoms: O_8  and  C_9
REMARK    4  A    between atoms: C_14  and  C_15
REMARK    5  A    between atoms: C_18  and  C_19
REMARK                            x       y       z     vdW  Elec       q    Type
REMARK                         _______ _______ _______ _____ _____    ______ ____
ROOT
ATOM      1  C   UNL     1       1.975   6.780  19.569  0.00  0.00    +0.000 A 
ATOM      2  C   UNL     1       2.196   7.423  18.341  0.00  0.00    +0.000 A 
ATOM      3  C   UNL     1       1.852   8.769  18.133  0.00  0.00    +0.000 A 
ATOM      4  C   UNL     1       1.293   9.549  19.157  0.00  0.00    +0.000 A 
ATOM      5  C   UNL     1       1.155   8.926  20.405  0.00  0.00    +0.000 A 
ATOM      6  F   UNL     1       0.655   9.601  21.451  0.00  0.00    +0.000 F 
ATOM      7  C   UNL     1       1.478   7.581  20.608  0.00  0.00    +0.000 A 
ENDROOT
BRANCH   4   8
ATOM      8  C   UNL     1       0.821  10.924  18.917  0.00  0.00    +0.000 A 
ATOM      9  C   UNL     1      -0.521  11.267  18.869  0.00  0.00    +0.000 A 
ATOM     10  N   UNL     1      -0.996  12.525  18.726  0.00  0.00    +0.000 NA
ATOM     11  C   UNL     1      -0.086  13.496  18.649  0.00  0.00    +0.000 A 
ATOM     12  N   UNL     1      -0.541  14.793  18.544  0.00  0.00    +0.000 N 
ATOM     13  N   UNL     1       1.232  13.299  18.633  0.00  0.00    +0.000 NA
ATOM     14  C   UNL     1       1.652  12.021  18.774  0.00  0.00    +0.000 A 
ATOM     15  H   UNL     1      -1.470  14.798  18.151  0.00  0.00    +0.000 HD
ATOM     16  H   UNL     1       0.163  15.365  18.101  0.00  0.00    +0.000 HD
ENDBRANCH   4   8
BRANCH   1  22
ATOM     17  C   UNL     1       3.531   4.756  19.792  0.00  0.00    +0.000 A 
ATOM     18  C   UNL     1       3.703   3.380  20.036  0.00  0.00    +0.000 A 
ATOM     19  C   UNL     1       2.605   2.531  20.129  0.00  0.00    +0.000 A 
ATOM     20  C   UNL     1       1.325   3.058  20.064  0.00  0.00    +0.000 A 
ATOM     21  C   UNL     1       1.145   4.438  19.923  0.00  0.00    +0.000 A 
ATOM     22  C   UNL     1       2.234   5.326  19.775  0.00  0.00    +0.000 A 
BRANCH  17  23
ATOM     23  O   UNL     1       4.611   5.598  19.587  0.00  0.00    +0.000 OA
BRANCH  23  28
ATOM     24  C   UNL     1       6.143   4.657  16.547  0.00  0.00    +0.000 A 
ATOM     25  C   UNL     1       7.499   4.585  16.843  0.00  0.00    +0.000 A 
ATOM     26  C   UNL     1       7.901   4.809  18.154  0.00  0.00    +0.000 A 
ATOM     27  C   UNL     1       6.942   5.103  19.117  0.00  0.00    +0.000 A 
ATOM     28  C   UNL     1       5.615   5.238  18.717  0.00  0.00    +0.000 A 
ATOM     29  N   UNL     1       5.196   4.986  17.457  0.00  0.00    +0.000 NA
BRANCH  24  31
ATOM     30  N   UNL     1       5.299   4.184  14.135  0.00  0.00    +0.000 NA
ATOM     31  C   UNL     1       5.670   4.367  15.219  0.00  0.00    +0.000 C 
ENDBRANCH  24  31
ENDBRANCH  23  28
ENDBRANCH  17  23
ENDBRANCH   1  22
TORSDOF 5
ENDMDL
MODEL 8
REMARK VINA RESULT:      -8.6      3.362      9.107
REMARK  Name = 
REMARK  5 active torsions:
REMARK  status: ('A' for Active; 'I' for Inactive)
REMARK    1  A    between atoms: C_2  and  C_3
REMARK    2  A    between atoms: C_7  and  O_8
REMARK    3  A    between atoms: O_8  and  C_9
REMARK    4  A    between atoms: C_14  and  C_15
REMARK    5  A    between atoms: C_18  and  C_19
REMARK                            x       y       z     vdW  Elec       q    Type
REMARK                         _______ _______ _______ _____ _____    ______ ____
ROOT
ATOM      1  C   UNL     1       2.266   6.000  19.032  0.00  0.00    +0.000 A 
ATOM      2  C   UNL     1       2.375   6.780  17.869  0.00  0.00    +0.000 A 
ATOM      3  C   UNL     1       2.076   8.153  17.864  0.00  0.00    +0.000 A 
ATOM      4  C   UNL     1       1.678   8.821  19.032  0.00  0.00    +0.000 A 
ATOM      5  C   UNL     1       1.655   8.056  20.205  0.00  0.00    +0.000 A 
ATOM      6  F   UNL     1       1.313   8.615  21.377  0.00  0.00    +0.000 F 
ATOM      7  C   UNL     1       1.933   6.686  20.210  0.00  0.00    +0.000 A 
ENDROOT
BRANCH   4   8
ATOM      8  C   UNL     1       1.251  10.231  19.013  0.00  0.00    +0.000 A 
ATOM      9  C   UNL     1       2.042  11.256  18.520  0.00  0.00    +0.000 A 
ATOM     10  N   UNL     1       1.662  12.550  18.414  0.00  0.00    +0.000 NA
ATOM     11  C   UNL     1       0.418  12.833  18.800  0.00  0.00    +0.000 A 
ATOM     12  N   UNL     1      -0.012  14.136  18.665  0.00  0.00    +0.000 N 
ATOM     13  N   UNL     1      -0.429  11.954  19.335  0.00  0.00    +0.000 NA
ATOM     14  C   UNL     1       0.006  10.675  19.422  0.00  0.00    +0.000 A 
ATOM     15  H   UNL     1       0.781  14.759  18.665  0.00  0.00    +0.000 HD
ATOM     16  H   UNL     1      -0.757  14.317  19.323  0.00  0.00    +0.000 HD
ENDBRANCH   4   8
BRANCH   1  22
ATOM     17  C   UNL     1       3.737   3.912  19.227  0.00  0.00    +0.000 A 
ATOM     18  C   UNL     1       3.853   2.508  19.260  0.00  0.00    +0.000 A 
ATOM     19  C   UNL     1       2.761   1.698  18.969  0.00  0.00    +0.000 A 
ATOM     20  C   UNL     1       1.525   2.276  18.724  0.00  0.00    +0.000 A 
ATOM     21  C   UNL     1       1.379   3.665  18.789  0.00  0.00    +0.000 A 
ATOM     22  C   UNL     1       2.474   4.524  19.033  0.00  0.00    +0.000 A 
BRANCH  17  23
ATOM     23  O   UNL     1       4.835   4.735  19.406  0.00  0.00    +0.000 OA
BRANCH  23  28
ATOM     24  C   UNL     1       7.064   6.681  17.477  0.00  0.00    +0.000 A 
ATOM     25  C   UNL     1       7.242   5.955  16.305  0.00  0.00    +0.000 A 
ATOM     26  C   UNL     1       6.520   4.779  16.141  0.00  0.00    +0.000 A 
ATOM     27  C   UNL     1       5.659   4.366  17.151  0.00  0.00    +0.000 A 
ATOM     28  C   UNL     1       5.604   5.108  18.328  0.00  0.00    +0.000 A 
ATOM     29  N   UNL     1       6.266   6.275  18.492  0.00  0.00    +0.000 NA
BRANCH  24  31
ATOM     30  N   UNL     1       8.242   8.967  17.851  0.00  0.00    +0.000 NA
ATOM     31  C   UNL     1       7.737   7.939  17.664  0.00  0.00    +0.000 C 
ENDBRANCH  24  31
ENDBRANCH  23  28
ENDBRANCH  17  23
ENDBRANCH   1  22
TORSDOF 5
ENDMDL
MODEL 9
REMARK VINA RESULT:      -8.4      3.329      9.185
REMARK  Name = 
REMARK  5 active torsions:
REMARK  status: ('A' for Active; 'I' for Inactive)
REMARK    1  A    between atoms: C_2  and  C_3
REMARK    2  A    between atoms: C_7  and  O_8
REMARK    3  A    between atoms: O_8  and  C_9
REMARK    4  A    between atoms: C_14  and  C_15
REMARK    5  A    between atoms: C_18  and  C_19
REMARK                            x       y       z     vdW  Elec       q    Type
REMARK                         _______ _______ _______ _____ _____    ______ ____
ROOT
ATOM      1  C   UNL     1       2.341   5.973  18.959  0.00  0.00    +0.000 A 
ATOM      2  C   UNL     1       2.459   6.761  17.803  0.00  0.00    +0.000 A 
ATOM      3  C   UNL     1       2.172   8.137  17.809  0.00  0.00    +0.000 A 
ATOM      4  C   UNL     1       1.777   8.798  18.982  0.00  0.00    +0.000 A 
ATOM      5  C   UNL     1       1.746   8.023  20.149  0.00  0.00    +0.000 A 
ATOM      6  F   UNL     1       1.406   8.575  21.324  0.00  0.00    +0.000 F 
ATOM      7  C   UNL     1       2.011   6.651  20.142  0.00  0.00    +0.000 A 
ENDROOT
BRANCH   4   8
ATOM      8  C   UNL     1       1.362  10.212  18.974  0.00  0.00    +0.000 A 
ATOM      9  C   UNL     1       2.125  11.223  18.412  0.00  0.00    +0.000 A 
ATOM     10  N   UNL     1       1.749  12.518  18.316  0.00  0.00    +0.000 NA
ATOM     11  C   UNL     1       0.538  12.819  18.785  0.00  0.00    +0.000 A 
ATOM     12  N   UNL     1       0.111  14.123  18.664  0.00  0.00    +0.000 N 
ATOM     13  N   UNL     1      -0.276  11.955  19.391  0.00  0.00    +0.000 NA
ATOM     14  C   UNL     1       0.153  10.673  19.465  0.00  0.00    +0.000 A 
ATOM     15  H   UNL     1       0.907  14.739  18.599  0.00  0.00    +0.000 HD
ATOM     16  H   UNL     1      -0.584  14.321  19.370  0.00  0.00    +0.000 HD
ENDBRANCH   4   8
BRANCH   1  22
ATOM     17  C   UNL     1       3.763   3.865  19.278  0.00  0.00    +0.000 A 
ATOM     18  C   UNL     1       3.863   2.460  19.289  0.00  0.00    +0.000 A 
ATOM     19  C   UNL     1       2.809   1.668  18.848  0.00  0.00    +0.000 A 
ATOM     20  C   UNL     1       1.615   2.264  18.471  0.00  0.00    +0.000 A 
ATOM     21  C   UNL     1       1.473   3.653  18.553  0.00  0.00    +0.000 A 
ATOM     22  C   UNL     1       2.537   4.495  18.948  0.00  0.00    +0.000 A 
BRANCH  17  23
ATOM     23  O   UNL     1       4.838   4.673  19.608  0.00  0.00    +0.000 OA
BRANCH  23  28
ATOM     24  C   UNL     1       6.286   4.978  16.401  0.00  0.00    +0.000 A 
ATOM     25  C   UNL     1       7.291   5.925  16.557  0.00  0.00    +0.000 A 
ATOM     26  C   UNL     1       7.524   6.437  17.828  0.00  0.00    +0.000 A 
ATOM     27  C   UNL     1       6.745   5.995  18.890  0.00  0.00    +0.000 A 
ATOM     28  C   UNL     1       5.704   5.107  18.631  0.00  0.00    +0.000 A 
ATOM     29  N   UNL     1       5.485   4.567  17.412  0.00  0.00    +0.000 NA
BRANCH  24  31
ATOM     30  N   UNL     1       5.912   3.859  14.086  0.00  0.00    +0.000 NA
ATOM     31  C   UNL     1       6.051   4.369  15.118  0.00  0.00    +0.000 C 
ENDBRANCH  24  31
ENDBRANCH  23  28
ENDBRANCH  17  23
ENDBRANCH   1  22
TORSDOF 5
ENDMDL
