MODEL 1
REMARK VINA RESULT:      -8.5      0.000      0.000
REMARK  Name = 
REMARK  9 active torsions:
REMARK  status: ('A' for Active; 'I' for Inactive)
REMARK    1  A    between atoms: C_1  and  C_2
REMARK    2  A    between atoms: C_5  and  N_6
REMARK    3  A    between atoms: C_8  and  C_9
REMARK    4  A    between atoms: C_15  and  S_16
REMARK    5  A    between atoms: S_16  and  C_17
REMARK    6  A    between atoms: C_17  and  C_18
REMARK    7  A    between atoms: N_20  and  C_21
REMARK    8  A    between atoms: C_21  and  C_22
REMARK    9  A    between atoms: C_32  and  C_33
REMARK                            x       y       z     vdW  Elec       q    Type
REMARK                         _______ _______ _______ _____ _____    ______ ____
ROOT
ATOM      1  C   UNL     1       1.441   9.795  18.734  0.00  0.00    +0.000 C 
ATOM      2  O   UNL     1       1.445   9.440  17.558  0.00  0.00    +0.000 OA
ATOM      3  N   UNL     1       1.636   8.964  19.823  0.00  0.00    +0.000 N 
ATOM      4  C   UNL     1       1.954   7.621  19.735  0.00  0.00    +0.000 A 
ATOM      5  N   UNL     1       1.631   6.742  20.660  0.00  0.00    +0.000 NA
ATOM      6  N   UNL     1       1.859   5.440  20.240  0.00  0.00    +0.000 NA
ATOM      7  C   UNL     1       2.419   5.402  19.048  0.00  0.00    +0.000 A 
ATOM      8  S   UNL     1       2.800   6.950  18.407  0.00  0.00    +0.000 S 
ATOM      9  H   UNL     1       1.214   9.210  20.712  0.00  0.00    +0.000 HD
ENDROOT
BRANCH   1  12
ATOM     10  N   UNL     1      -1.132  11.563  19.376  0.00  0.00    +0.000 N 
ATOM     11  C   UNL     1      -0.098  11.807  18.401  0.00  0.00    +0.000 C 
ATOM     12  C   UNL     1       1.154  11.265  19.056  0.00  0.00    +0.000 C 
ATOM     13  C   UNL     1       0.916  11.481  20.539  0.00  0.00    +0.000 C 
ATOM     14  C   UNL     1      -0.587  11.409  20.658  0.00  0.00    +0.000 C 
ATOM     15  O   UNL     1      -1.154  11.254  21.729  0.00  0.00    +0.000 OA
BRANCH  10  20
ATOM     16  C   UNL     1      -6.710  11.689  17.934  0.00  0.00    +0.000 C 
ATOM     17  C   UNL     1      -5.265  11.658  18.350  0.00  0.00    +0.000 A 
ATOM     18  C   UNL     1      -4.370  10.838  17.656  0.00  0.00    +0.000 A 
ATOM     19  C   UNL     1      -3.017  10.790  18.003  0.00  0.00    +0.000 A 
ATOM     20  C   UNL     1      -2.514  11.571  19.048  0.00  0.00    +0.000 A 
ATOM     21  C   UNL     1      -3.416  12.389  19.746  0.00  0.00    +0.000 A 
ATOM     22  C   UNL     1      -4.784  12.438  19.415  0.00  0.00    +0.000 A 
ATOM     23  C   UNL     1      -5.703  13.332  20.205  0.00  0.00    +0.000 C 
ENDBRANCH  10  20
ENDBRANCH   1  12
BRANCH   7  24
ATOM     24  S   UNL     1       2.751   3.920  18.184  0.00  0.00    +0.000 S 
BRANCH  24  25
ATOM     25  C   UNL     1       4.280   3.330  18.961  0.00  0.00    +0.000 C 
BRANCH  25  26
ATOM     26  C   UNL     1       5.507   4.082  18.458  0.00  0.00    +0.000 C 
ATOM     27  O   UNL     1       6.247   4.709  19.219  0.00  0.00    +0.000 OA
ATOM     28  N   UNL     1       5.715   3.998  17.101  0.00  0.00    +0.000 N 
ATOM     29  H   UNL     1       4.971   3.636  16.506  0.00  0.00    +0.000 HD
BRANCH  28  30
ATOM     30  C   UNL     1       6.810   4.689  16.440  0.00  0.00    +0.000 C 
BRANCH  30  31
ATOM     31  C   UNL     1       6.565   4.989  14.953  0.00  0.00    +0.000 C 
ATOM     32  C   UNL     1       6.138   3.810  14.091  0.00  0.00    +0.000 C 
ATOM     33  C   UNL     1       6.606   4.219  12.718  0.00  0.00    +0.000 C 
ATOM     34  C   UNL     1       7.874   4.964  13.040  0.00  0.00    +0.000 C 
ATOM     35  O   UNL     1       7.746   5.543  14.339  0.00  0.00    +0.000 OA
ENDBRANCH  30  31
ENDBRANCH  28  30
ENDBRANCH  25  26
ENDBRANCH  24  25
ENDBRANCH   7  24
TORSDOF 7
ENDMDL
MODEL 2
REMARK VINA RESULT:      -8.1      2.604      4.211
REMARK  Name = 
REMARK  9 active torsions:
REMARK  status: ('A' for Active; 'I' for Inactive)
REMARK    1  A    between atoms: C_1  and  C_2
REMARK    2  A    between atoms: C_5  and  N_6
REMARK    3  A    between atoms: C_8  and  C_9
REMARK    4  A    between atoms: C_15  and  S_16
REMARK    5  A    between atoms: S_16  and  C_17
REMARK    6  A    between atoms: C_17  and  C_18
REMARK    7  A    between atoms: N_20  and  C_21
REMARK    8  A    between atoms: C_21  and  C_22
REMARK    9  A    between atoms: C_32  and  C_33
REMARK                            x       y       z     vdW  Elec       q    Type
REMARK                         _______ _______ _______ _____ _____    ______ ____
ROOT
ATOM      1  C   UNL     1       0.835   9.195  20.676  0.00  0.00    +0.000 C 
ATOM      2  O   UNL     1       1.268   8.600  21.660  0.00  0.00    +0.000 OA
ATOM      3  N   UNL     1       1.226   8.970  19.368  0.00  0.00    +0.000 N 
ATOM      4  C   UNL     1       2.101   7.976  18.973  0.00  0.00    +0.000 A 
ATOM      5  N   UNL     1       2.865   8.070  17.905  0.00  0.00    +0.000 NA
ATOM      6  N   UNL     1       3.807   7.054  17.849  0.00  0.00    +0.000 NA
ATOM      7  C   UNL     1       3.658   6.194  18.836  0.00  0.00    +0.000 A 
ATOM      8  S   UNL     1       2.295   6.510  19.836  0.00  0.00    +0.000 S 
ATOM      9  H   UNL     1       1.169   9.731  18.699  0.00  0.00    +0.000 HD
ENDROOT
BRANCH   1  12
ATOM     10  N   UNL     1       0.367  12.143  19.560  0.00  0.00    +0.000 N 
ATOM     11  C   UNL     1       0.411  11.701  20.932  0.00  0.00    +0.000 C 
ATOM     12  C   UNL     1      -0.191  10.313  20.886  0.00  0.00    +0.000 C 
ATOM     13  C   UNL     1      -1.190  10.383  19.746  0.00  0.00    +0.000 C 
ATOM     14  C   UNL     1      -0.593  11.427  18.833  0.00  0.00    +0.000 C 
ATOM     15  O   UNL     1      -0.951  11.566  17.673  0.00  0.00    +0.000 OA
BRANCH  10  20
ATOM     16  C   UNL     1       3.625  16.528  17.725  0.00  0.00    +0.000 C 
ATOM     17  C   UNL     1       2.742  15.402  18.188  0.00  0.00    +0.000 A 
ATOM     18  C   UNL     1       3.214  14.088  18.117  0.00  0.00    +0.000 A 
ATOM     19  C   UNL     1       2.429  13.015  18.549  0.00  0.00    +0.000 A 
ATOM     20  C   UNL     1       1.151  13.223  19.076  0.00  0.00    +0.000 A 
ATOM     21  C   UNL     1       0.679  14.544  19.141  0.00  0.00    +0.000 A 
ATOM     22  C   UNL     1       1.453  15.634  18.699  0.00  0.00    +0.000 A 
ATOM     23  C   UNL     1       0.888  17.026  18.789  0.00  0.00    +0.000 C 
ENDBRANCH  10  20
ENDBRANCH   1  12
BRANCH   7  24
ATOM     24  S   UNL     1       4.738   4.850  19.117  0.00  0.00    +0.000 S 
BRANCH  24  25
ATOM     25  C   UNL     1       6.338   5.490  18.554  0.00  0.00    +0.000 C 
BRANCH  25  26
ATOM     26  C   UNL     1       6.898   4.690  17.385  0.00  0.00    +0.000 C 
ATOM     27  O   UNL     1       8.095   4.404  17.300  0.00  0.00    +0.000 OA
ATOM     28  N   UNL     1       5.965   4.317  16.446  0.00  0.00    +0.000 N 
ATOM     29  H   UNL     1       5.040   4.744  16.467  0.00  0.00    +0.000 HD
BRANCH  28  30
ATOM     30  C   UNL     1       6.326   3.588  15.241  0.00  0.00    +0.000 C 
BRANCH  30  31
ATOM     31  C   UNL     1       6.444   4.462  13.982  0.00  0.00    +0.000 C 
ATOM     32  C   UNL     1       6.626   3.723  12.665  0.00  0.00    +0.000 C 
ATOM     33  C   UNL     1       7.334   4.742  11.810  0.00  0.00    +0.000 C 
ATOM     34  C   UNL     1       8.199   5.441  12.826  0.00  0.00    +0.000 C 
ATOM     35  O   UNL     1       7.549   5.381  14.097  0.00  0.00    +0.000 OA
ENDBRANCH  30  31
ENDBRANCH  28  30
ENDBRANCH  25  26
ENDBRANCH  24  25
ENDBRANCH   7  24
TORSDOF 7
ENDMDL
MODEL 3
REMARK VINA RESULT:      -8.0      1.823      2.075
REMARK  Name = 
REMARK  9 active torsions:
REMARK  status: ('A' for Active; 'I' for Inactive)
REMARK    1  A    between atoms: C_1  and  C_2
REMARK    2  A    between atoms: C_5  and  N_6
REMARK    3  A    between atoms: C_8  and  C_9
REMARK    4  A    between atoms: C_15  and  S_16
REMARK    5  A    between atoms: S_16  and  C_17
REMARK    6  A    between atoms: C_17  and  C_18
REMARK    7  A    between atoms: N_20  and  C_21
REMARK    8  A    between atoms: C_21  and  C_22
REMARK    9  A    between atoms: C_32  and  C_33
REMARK                            x       y       z     vdW  Elec       q    Type
REMARK                         _______ _______ _______ _____ _____    ______ ____
ROOT
ATOM      1  C   UNL     1       1.351   9.374  18.913  0.00  0.00    +0.000 C 
ATOM      2  O   UNL     1       1.146   9.085  17.737  0.00  0.00    +0.000 OA
ATOM      3  N   UNL     1       1.693   8.477  19.910  0.00  0.00    +0.000 N 
ATOM      4  C   UNL     1       1.940   7.133  19.703  0.00  0.00    +0.000 A 
ATOM      5  N   UNL     1       1.742   6.213  20.623  0.00  0.00    +0.000 NA
ATOM      6  N   UNL     1       1.848   4.930  20.105  0.00  0.00    +0.000 NA
ATOM      7  C   UNL     1       2.200   4.943  18.836  0.00  0.00    +0.000 A 
ATOM      8  S   UNL     1       2.527   6.514  18.219  0.00  0.00    +0.000 S 
ATOM      9  H   UNL     1       1.435   8.685  20.870  0.00  0.00    +0.000 HD
ENDROOT
BRANCH   1  12
ATOM     10  N   UNL     1      -1.088  11.322  19.556  0.00  0.00    +0.000 N 
ATOM     11  C   UNL     1       0.031  11.548  18.674  0.00  0.00    +0.000 C 
ATOM     12  C   UNL     1       1.178  10.831  19.353  0.00  0.00    +0.000 C 
ATOM     13  C   UNL     1       0.856  10.940  20.832  0.00  0.00    +0.000 C 
ATOM     14  C   UNL     1      -0.652  11.005  20.849  0.00  0.00    +0.000 C 
ATOM     15  O   UNL     1      -1.305  10.813  21.864  0.00  0.00    +0.000 OA
BRANCH  10  20
ATOM     16  C   UNL     1      -6.513  12.111  17.779  0.00  0.00    +0.000 C 
ATOM     17  C   UNL     1      -5.110  11.908  18.282  0.00  0.00    +0.000 A 
ATOM     18  C   UNL     1      -4.271  11.004  17.622  0.00  0.00    +0.000 A 
ATOM     19  C   UNL     1      -2.956  10.796  18.051  0.00  0.00    +0.000 A 
ATOM     20  C   UNL     1      -2.436  11.494  19.144  0.00  0.00    +0.000 A 
ATOM     21  C   UNL     1      -3.283  12.396  19.807  0.00  0.00    +0.000 A 
ATOM     22  C   UNL     1      -4.613  12.607  19.394  0.00  0.00    +0.000 A 
ATOM     23  C   UNL     1      -5.474  13.585  20.150  0.00  0.00    +0.000 C 
ENDBRANCH  10  20
ENDBRANCH   1  12
BRANCH   7  24
ATOM     24  S   UNL     1       2.326   3.503  17.855  0.00  0.00    +0.000 S 
BRANCH  24  25
ATOM     25  C   UNL     1       3.025   2.287  19.006  0.00  0.00    +0.000 C 
BRANCH  25  26
ATOM     26  C   UNL     1       4.414   2.685  19.489  0.00  0.00    +0.000 C 
ATOM     27  O   UNL     1       4.966   2.116  20.433  0.00  0.00    +0.000 OA
ATOM     28  N   UNL     1       4.991   3.718  18.788  0.00  0.00    +0.000 N 
ATOM     29  H   UNL     1       4.415   4.272  18.155  0.00  0.00    +0.000 HD
BRANCH  28  30
ATOM     30  C   UNL     1       6.294   4.259  19.138  0.00  0.00    +0.000 C 
BRANCH  30  31
ATOM     31  C   UNL     1       6.892   5.203  18.083  0.00  0.00    +0.000 C 
ATOM     32  C   UNL     1       7.749   6.344  18.610  0.00  0.00    +0.000 C 
ATOM     33  C   UNL     1       7.623   7.381  17.523  0.00  0.00    +0.000 C 
ATOM     34  C   UNL     1       6.204   7.170  17.066  0.00  0.00    +0.000 C 
ATOM     35  O   UNL     1       5.854   5.802  17.282  0.00  0.00    +0.000 OA
ENDBRANCH  30  31
ENDBRANCH  28  30
ENDBRANCH  25  26
ENDBRANCH  24  25
ENDBRANCH   7  24
TORSDOF 7
ENDMDL
MODEL 4
REMARK VINA RESULT:      -8.0      2.295     11.523
REMARK  Name = 
REMARK  9 active torsions:
REMARK  status: ('A' for Active; 'I' for Inactive)
REMARK    1  A    between atoms: C_1  and  C_2
REMARK    2  A    between atoms: C_5  and  N_6
REMARK    3  A    between atoms: C_8  and  C_9
REMARK    4  A    between atoms: C_15  and  S_16
REMARK    5  A    between atoms: S_16  and  C_17
REMARK    6  A    between atoms: C_17  and  C_18
REMARK    7  A    between atoms: N_20  and  C_21
REMARK    8  A    between atoms: C_21  and  C_22
REMARK    9  A    between atoms: C_32  and  C_33
REMARK                            x       y       z     vdW  Elec       q    Type
REMARK                         _______ _______ _______ _____ _____    ______ ____
ROOT
ATOM      1  C   UNL     1       2.398   6.628  19.284  0.00  0.00    +0.000 C 
ATOM      2  O   UNL     1       2.720   7.373  18.362  0.00  0.00    +0.000 OA
ATOM      3  N   UNL     1       1.807   7.030  20.470  0.00  0.00    +0.000 N 
ATOM      4  C   UNL     1       1.414   8.326  20.748  0.00  0.00    +0.000 A 
ATOM      5  N   UNL     1       1.361   8.818  21.967  0.00  0.00    +0.000 NA
ATOM      6  N   UNL     1       1.157  10.190  21.965  0.00  0.00    +0.000 NA
ATOM      7  C   UNL     1       0.985  10.657  20.745  0.00  0.00    +0.000 A 
ATOM      8  S   UNL     1       0.957   9.440  19.531  0.00  0.00    +0.000 S 
ATOM      9  H   UNL     1       1.958   6.478  21.308  0.00  0.00    +0.000 HD
ENDROOT
BRANCH   1  12
ATOM     10  N   UNL     1       4.607   4.826  17.860  0.00  0.00    +0.000 N 
ATOM     11  C   UNL     1       3.171   4.710  17.786  0.00  0.00    +0.000 C 
ATOM     12  C   UNL     1       2.702   5.132  19.161  0.00  0.00    +0.000 C 
ATOM     13  C   UNL     1       3.831   4.708  20.082  0.00  0.00    +0.000 C 
ATOM     14  C   UNL     1       5.046   4.785  19.190  0.00  0.00    +0.000 C 
ATOM     15  O   UNL     1       6.185   4.793  19.632  0.00  0.00    +0.000 OA
BRANCH  10  20
ATOM     16  C   UNL     1       7.898   5.206  13.145  0.00  0.00    +0.000 C 
ATOM     17  C   UNL     1       7.032   5.068  14.366  0.00  0.00    +0.000 A 
ATOM     18  C   UNL     1       7.412   5.706  15.551  0.00  0.00    +0.000 A 
ATOM     19  C   UNL     1       6.627   5.612  16.704  0.00  0.00    +0.000 A 
ATOM     20  C   UNL     1       5.432   4.887  16.706  0.00  0.00    +0.000 A 
ATOM     21  C   UNL     1       5.057   4.244  15.516  0.00  0.00    +0.000 A 
ATOM     22  C   UNL     1       5.843   4.319  14.350  0.00  0.00    +0.000 A 
ATOM     23  C   UNL     1       5.389   3.602  13.106  0.00  0.00    +0.000 C 
ENDBRANCH  10  20
ENDBRANCH   1  12
BRANCH   7  24
ATOM     24  S   UNL     1       0.802  12.355  20.378  0.00  0.00    +0.000 S 
BRANCH  24  25
ATOM     25  C   UNL     1      -0.772  12.776  21.174  0.00  0.00    +0.000 C 
BRANCH  25  26
ATOM     26  C   UNL     1      -1.963  12.545  20.251  0.00  0.00    +0.000 C 
ATOM     27  O   UNL     1      -1.832  12.068  19.121  0.00  0.00    +0.000 OA
ATOM     28  N   UNL     1      -3.178  12.909  20.780  0.00  0.00    +0.000 N 
ATOM     29  H   UNL     1      -3.202  13.473  21.629  0.00  0.00    +0.000 HD
BRANCH  28  30
ATOM     30  C   UNL     1      -4.416  12.802  20.025  0.00  0.00    +0.000 C 
BRANCH  30  31
ATOM     31  C   UNL     1      -5.565  12.120  20.785  0.00  0.00    +0.000 C 
ATOM     32  C   UNL     1      -6.973  12.442  20.306  0.00  0.00    +0.000 C 
ATOM     33  C   UNL     1      -7.803  12.212  21.543  0.00  0.00    +0.000 C 
ATOM     34  C   UNL     1      -6.862  12.667  22.628  0.00  0.00    +0.000 C 
ATOM     35  O   UNL     1      -5.521  12.450  22.188  0.00  0.00    +0.000 OA
ENDBRANCH  30  31
ENDBRANCH  28  30
ENDBRANCH  25  26
ENDBRANCH  24  25
ENDBRANCH   7  24
TORSDOF 7
ENDMDL
MODEL 5
REMARK VINA RESULT:      -8.0      2.481     11.378
REMARK  Name = 
REMARK  9 active torsions:
REMARK  status: ('A' for Active; 'I' for Inactive)
REMARK    1  A    between atoms: C_1  and  C_2
REMARK    2  A    between atoms: C_5  and  N_6
REMARK    3  A    between atoms: C_8  and  C_9
REMARK    4  A    between atoms: C_15  and  S_16
REMARK    5  A    between atoms: S_16  and  C_17
REMARK    6  A    between atoms: C_17  and  C_18
REMARK    7  A    between atoms: N_20  and  C_21
REMARK    8  A    between atoms: C_21  and  C_22
REMARK    9  A    between atoms: C_32  and  C_33
REMARK                            x       y       z     vdW  Elec       q    Type
REMARK                         _______ _______ _______ _____ _____    ______ ____
ROOT
ATOM      1  C   UNL     1       2.407   6.492  19.259  0.00  0.00    +0.000 C 
ATOM      2  O   UNL     1       2.679   7.234  18.319  0.00  0.00    +0.000 OA
ATOM      3  N   UNL     1       1.859   6.894  20.465  0.00  0.00    +0.000 N 
ATOM      4  C   UNL     1       1.457   8.185  20.750  0.00  0.00    +0.000 A 
ATOM      5  N   UNL     1       1.447   8.686  21.967  0.00  0.00    +0.000 NA
ATOM      6  N   UNL     1       1.222  10.054  21.964  0.00  0.00    +0.000 NA
ATOM      7  C   UNL     1       0.993  10.509  20.749  0.00  0.00    +0.000 A 
ATOM      8  S   UNL     1       0.934   9.283  19.545  0.00  0.00    +0.000 S 
ATOM      9  H   UNL     1       2.053   6.350  21.300  0.00  0.00    +0.000 HD
ENDROOT
BRANCH   1  12
ATOM     10  N   UNL     1       4.613   4.716  17.798  0.00  0.00    +0.000 N 
ATOM     11  C   UNL     1       3.178   4.580  17.751  0.00  0.00    +0.000 C 
ATOM     12  C   UNL     1       2.728   4.999  19.134  0.00  0.00    +0.000 C 
ATOM     13  C   UNL     1       3.880   4.592  20.035  0.00  0.00    +0.000 C 
ATOM     14  C   UNL     1       5.077   4.684  19.120  0.00  0.00    +0.000 C 
ATOM     15  O   UNL     1       6.224   4.708  19.540  0.00  0.00    +0.000 OA
BRANCH  10  20
ATOM     16  C   UNL     1       7.819   5.132  13.028  0.00  0.00    +0.000 C 
ATOM     17  C   UNL     1       6.973   4.985  14.262  0.00  0.00    +0.000 A 
ATOM     18  C   UNL     1       7.411   5.550  15.464  0.00  0.00    +0.000 A 
ATOM     19  C   UNL     1       6.647   5.445  16.631  0.00  0.00    +0.000 A 
ATOM     20  C   UNL     1       5.416   4.785  16.629  0.00  0.00    +0.000 A 
ATOM     21  C   UNL     1       4.982   4.214  15.422  0.00  0.00    +0.000 A 
ATOM     22  C   UNL     1       5.746   4.300  14.241  0.00  0.00    +0.000 A 
ATOM     23  C   UNL     1       5.229   3.663  12.979  0.00  0.00    +0.000 C 
ENDBRANCH  10  20
ENDBRANCH   1  12
BRANCH   7  24
ATOM     24  S   UNL     1       0.769  12.202  20.378  0.00  0.00    +0.000 S 
BRANCH  24  25
ATOM     25  C   UNL     1      -0.358  12.161  18.958  0.00  0.00    +0.000 C 
BRANCH  25  26
ATOM     26  C   UNL     1      -1.797  12.461  19.357  0.00  0.00    +0.000 C 
ATOM     27  O   UNL     1      -2.754  11.881  18.838  0.00  0.00    +0.000 OA
ATOM     28  N   UNL     1      -1.934  13.418  20.334  0.00  0.00    +0.000 N 
ATOM     29  H   UNL     1      -1.131  13.995  20.581  0.00  0.00    +0.000 HD
BRANCH  28  30
ATOM     30  C   UNL     1      -3.235  13.864  20.807  0.00  0.00    +0.000 C 
BRANCH  30  31
ATOM     31  C   UNL     1      -3.420  13.777  22.330  0.00  0.00    +0.000 C 
ATOM     32  C   UNL     1      -3.045  12.452  22.978  0.00  0.00    +0.000 C 
ATOM     33  C   UNL     1      -3.899  12.440  24.220  0.00  0.00    +0.000 C 
ATOM     34  C   UNL     1      -5.146  13.132  23.737  0.00  0.00    +0.000 C 
ATOM     35  O   UNL     1      -4.788  14.044  22.698  0.00  0.00    +0.000 OA
ENDBRANCH  30  31
ENDBRANCH  28  30
ENDBRANCH  25  26
ENDBRANCH  24  25
ENDBRANCH   7  24
TORSDOF 7
ENDMDL
MODEL 6
REMARK VINA RESULT:      -8.0      3.789     10.801
REMARK  Name = 
REMARK  9 active torsions:
REMARK  status: ('A' for Active; 'I' for Inactive)
REMARK    1  A    between atoms: C_1  and  C_2
REMARK    2  A    between atoms: C_5  and  N_6
REMARK    3  A    between atoms: C_8  and  C_9
REMARK    4  A    between atoms: C_15  and  S_16
REMARK    5  A    between atoms: S_16  and  C_17
REMARK    6  A    between atoms: C_17  and  C_18
REMARK    7  A    between atoms: N_20  and  C_21
REMARK    8  A    between atoms: C_21  and  C_22
REMARK    9  A    between atoms: C_32  and  C_33
REMARK                            x       y       z     vdW  Elec       q    Type
REMARK                         _______ _______ _______ _____ _____    ______ ____
ROOT
ATOM      1  C   UNL     1       2.306   6.734  19.270  0.00  0.00    +0.000 C 
ATOM      2  O   UNL     1       2.614   7.462  18.330  0.00  0.00    +0.000 OA
ATOM      3  N   UNL     1       1.752   7.158  20.465  0.00  0.00    +0.000 N 
ATOM      4  C   UNL     1       1.383   8.463  20.736  0.00  0.00    +0.000 A 
ATOM      5  N   UNL     1       1.368   8.971  21.950  0.00  0.00    +0.000 NA
ATOM      6  N   UNL     1       1.182  10.345  21.936  0.00  0.00    +0.000 NA
ATOM      7  C   UNL     1       0.986  10.799  20.715  0.00  0.00    +0.000 A 
ATOM      8  S   UNL     1       0.909   9.568  19.518  0.00  0.00    +0.000 S 
ATOM      9  H   UNL     1       1.917   6.615  21.306  0.00  0.00    +0.000 HD
ENDROOT
BRANCH   1  12
ATOM     10  N   UNL     1       4.506   4.888  17.888  0.00  0.00    +0.000 N 
ATOM     11  C   UNL     1       3.070   4.795  17.793  0.00  0.00    +0.000 C 
ATOM     12  C   UNL     1       2.587   5.231  19.159  0.00  0.00    +0.000 C 
ATOM     13  C   UNL     1       3.694   4.793  20.098  0.00  0.00    +0.000 C 
ATOM     14  C   UNL     1       4.924   4.846  19.225  0.00  0.00    +0.000 C 
ATOM     15  O   UNL     1       6.056   4.837  19.684  0.00  0.00    +0.000 OA
BRANCH  10  20
ATOM     16  C   UNL     1       7.873   5.189  13.221  0.00  0.00    +0.000 C 
ATOM     17  C   UNL     1       6.987   5.071  14.430  0.00  0.00    +0.000 A 
ATOM     18  C   UNL     1       7.347   5.730  15.609  0.00  0.00    +0.000 A 
ATOM     19  C   UNL     1       6.544   5.656  16.752  0.00  0.00    +0.000 A 
ATOM     20  C   UNL     1       5.350   4.930  16.746  0.00  0.00    +0.000 A 
ATOM     21  C   UNL     1       4.995   4.265  15.562  0.00  0.00    +0.000 A 
ATOM     22  C   UNL     1       5.799   4.321  14.407  0.00  0.00    +0.000 A 
ATOM     23  C   UNL     1       5.366   3.582  13.169  0.00  0.00    +0.000 C 
ENDBRANCH  10  20
ENDBRANCH   1  12
BRANCH   7  24
ATOM     24  S   UNL     1       0.816  12.495  20.331  0.00  0.00    +0.000 S 
BRANCH  24  25
ATOM     25  C   UNL     1       2.009  12.729  18.986  0.00  0.00    +0.000 C 
BRANCH  25  26
ATOM     26  C   UNL     1       2.449  14.182  18.854  0.00  0.00    +0.000 C 
ATOM     27  O   UNL     1       3.244  14.548  17.985  0.00  0.00    +0.000 OA
ATOM     28  N   UNL     1       1.889  15.036  19.774  0.00  0.00    +0.000 N 
ATOM     29  H   UNL     1       1.400  14.649  20.579  0.00  0.00    +0.000 HD
BRANCH  28  30
ATOM     30  C   UNL     1       2.228  16.449  19.826  0.00  0.00    +0.000 C 
BRANCH  30  31
ATOM     31  C   UNL     1       1.188  17.376  19.177  0.00  0.00    +0.000 C 
ATOM     32  C   UNL     1      -0.031  16.697  18.570  0.00  0.00    +0.000 C 
ATOM     33  C   UNL     1      -0.466  17.683  17.517  0.00  0.00    +0.000 C 
ATOM     34  C   UNL     1       0.856  18.230  17.047  0.00  0.00    +0.000 C 
ATOM     35  O   UNL     1       1.785  18.166  18.130  0.00  0.00    +0.000 OA
ENDBRANCH  30  31
ENDBRANCH  28  30
ENDBRANCH  25  26
ENDBRANCH  24  25
ENDBRANCH   7  24
TORSDOF 7
ENDMDL
MODEL 7
REMARK VINA RESULT:      -7.9      2.727     11.495
REMARK  Name = 
REMARK  9 active torsions:
REMARK  status: ('A' for Active; 'I' for Inactive)
REMARK    1  A    between atoms: C_1  and  C_2
REMARK    2  A    between atoms: C_5  and  N_6
REMARK    3  A    between atoms: C_8  and  C_9
REMARK    4  A    between atoms: C_15  and  S_16
REMARK    5  A    between atoms: S_16  and  C_17
REMARK    6  A    between atoms: C_17  and  C_18
REMARK    7  A    between atoms: N_20  and  C_21
REMARK    8  A    between atoms: C_21  and  C_22
REMARK    9  A    between atoms: C_32  and  C_33
REMARK                            x       y       z     vdW  Elec       q    Type
REMARK                         _______ _______ _______ _____ _____    ______ ____
ROOT
ATOM      1  C   UNL     1       2.189   5.149  18.943  0.00  0.00    +0.000 C 
ATOM      2  O   UNL     1       1.308   5.274  19.790  0.00  0.00    +0.000 OA
ATOM      3  N   UNL     1       2.711   6.174  18.173  0.00  0.00    +0.000 N 
ATOM      4  C   UNL     1       2.373   7.507  18.311  0.00  0.00    +0.000 A 
ATOM      5  N   UNL     1       2.422   8.370  17.319  0.00  0.00    +0.000 NA
ATOM      6  N   UNL     1       1.826   9.578  17.652  0.00  0.00    +0.000 NA
ATOM      7  C   UNL     1       1.426   9.596  18.907  0.00  0.00    +0.000 A 
ATOM      8  S   UNL     1       1.844   8.183  19.792  0.00  0.00    +0.000 S 
ATOM      9  H   UNL     1       3.087   5.958  17.255  0.00  0.00    +0.000 HD
ENDROOT
BRANCH   1  12
ATOM     10  N   UNL     1       4.689   3.924  17.393  0.00  0.00    +0.000 N 
ATOM     11  C   UNL     1       3.296   3.575  17.263  0.00  0.00    +0.000 C 
ATOM     12  C   UNL     1       2.746   3.750  18.662  0.00  0.00    +0.000 C 
ATOM     13  C   UNL     1       3.921   3.419  19.563  0.00  0.00    +0.000 C 
ATOM     14  C   UNL     1       5.115   3.804  18.723  0.00  0.00    +0.000 C 
ATOM     15  O   UNL     1       6.231   3.953  19.197  0.00  0.00    +0.000 OA
BRANCH  10  20
ATOM     16  C   UNL     1       7.917   5.398  12.852  0.00  0.00    +0.000 C 
ATOM     17  C   UNL     1       7.074   4.974  14.024  0.00  0.00    +0.000 A 
ATOM     18  C   UNL     1       7.324   5.530  15.283  0.00  0.00    +0.000 A 
ATOM     19  C   UNL     1       6.555   5.172  16.394  0.00  0.00    +0.000 A 
ATOM     20  C   UNL     1       5.504   4.257  16.279  0.00  0.00    +0.000 A 
ATOM     21  C   UNL     1       5.261   3.698  15.014  0.00  0.00    +0.000 A 
ATOM     22  C   UNL     1       6.035   4.039  13.888  0.00  0.00    +0.000 A 
ATOM     23  C   UNL     1       5.727   3.401  12.559  0.00  0.00    +0.000 C 
ENDBRANCH  10  20
ENDBRANCH   1  12
BRANCH   7  24
ATOM     24  S   UNL     1       0.548  10.927  19.621  0.00  0.00    +0.000 S 
BRANCH  24  25
ATOM     25  C   UNL     1      -0.069  10.221  21.173  0.00  0.00    +0.000 C 
BRANCH  25  26
ATOM     26  C   UNL     1      -0.791  11.255  22.029  0.00  0.00    +0.000 C 
ATOM     27  O   UNL     1      -0.798  11.196  23.260  0.00  0.00    +0.000 OA
ATOM     28  N   UNL     1      -1.423  12.248  21.317  0.00  0.00    +0.000 N 
ATOM     29  H   UNL     1      -1.548  12.136  20.312  0.00  0.00    +0.000 HD
BRANCH  28  30
ATOM     30  C   UNL     1      -2.198  13.293  21.966  0.00  0.00    +0.000 C 
BRANCH  30  31
ATOM     31  C   UNL     1      -3.705  13.005  22.051  0.00  0.00    +0.000 C 
ATOM     32  C   UNL     1      -4.623  14.218  22.061  0.00  0.00    +0.000 C 
ATOM     33  C   UNL     1      -5.844  13.702  22.779  0.00  0.00    +0.000 C 
ATOM     34  C   UNL     1      -5.231  12.758  23.779  0.00  0.00    +0.000 C 
ATOM     35  O   UNL     1      -4.016  12.241  23.234  0.00  0.00    +0.000 OA
ENDBRANCH  30  31
ENDBRANCH  28  30
ENDBRANCH  25  26
ENDBRANCH  24  25
ENDBRANCH   7  24
TORSDOF 7
ENDMDL
MODEL 8
REMARK VINA RESULT:      -7.9      2.889     11.714
REMARK  Name = 
REMARK  9 active torsions:
REMARK  status: ('A' for Active; 'I' for Inactive)
REMARK    1  A    between atoms: C_1  and  C_2
REMARK    2  A    between atoms: C_5  and  N_6
REMARK    3  A    between atoms: C_8  and  C_9
REMARK    4  A    between atoms: C_15  and  S_16
REMARK    5  A    between atoms: S_16  and  C_17
REMARK    6  A    between atoms: C_17  and  C_18
REMARK    7  A    between atoms: N_20  and  C_21
REMARK    8  A    between atoms: C_21  and  C_22
REMARK    9  A    between atoms: C_32  and  C_33
REMARK                            x       y       z     vdW  Elec       q    Type
REMARK                         _______ _______ _______ _____ _____    ______ ____
ROOT
ATOM      1  C   UNL     1       2.356   6.527  19.221  0.00  0.00    +0.000 C 
ATOM      2  O   UNL     1       2.656   7.300  18.314  0.00  0.00    +0.000 OA
ATOM      3  N   UNL     1       1.806   6.895  20.437  0.00  0.00    +0.000 N 
ATOM      4  C   UNL     1       1.433   8.183  20.770  0.00  0.00    +0.000 A 
ATOM      5  N   UNL     1       1.423   8.635  22.006  0.00  0.00    +0.000 NA
ATOM      6  N   UNL     1       1.232  10.008  22.056  0.00  0.00    +0.000 NA
ATOM      7  C   UNL     1       1.027  10.516  20.858  0.00  0.00    +0.000 A 
ATOM      8  S   UNL     1       0.949   9.342  19.606  0.00  0.00    +0.000 S 
ATOM      9  H   UNL     1       1.978   6.314  21.251  0.00  0.00    +0.000 HD
ENDROOT
BRANCH   1  12
ATOM     10  N   UNL     1       4.563   4.757  17.754  0.00  0.00    +0.000 N 
ATOM     11  C   UNL     1       3.127   4.664  17.654  0.00  0.00    +0.000 C 
ATOM     12  C   UNL     1       2.641   5.033  19.039  0.00  0.00    +0.000 C 
ATOM     13  C   UNL     1       3.750   4.555  19.957  0.00  0.00    +0.000 C 
ATOM     14  C   UNL     1       4.980   4.653  19.088  0.00  0.00    +0.000 C 
ATOM     15  O   UNL     1       6.112   4.627  19.547  0.00  0.00    +0.000 OA
BRANCH  10  20
ATOM     16  C   UNL     1       7.920   5.282  13.100  0.00  0.00    +0.000 C 
ATOM     17  C   UNL     1       7.040   5.105  14.307  0.00  0.00    +0.000 A 
ATOM     18  C   UNL     1       7.338   5.805  15.480  0.00  0.00    +0.000 A 
ATOM     19  C   UNL     1       6.537   5.677  16.619  0.00  0.00    +0.000 A 
ATOM     20  C   UNL     1       5.407   4.855  16.617  0.00  0.00    +0.000 A 
ATOM     21  C   UNL     1       5.114   4.151  15.438  0.00  0.00    +0.000 A 
ATOM     22  C   UNL     1       5.918   4.260  14.287  0.00  0.00    +0.000 A 
ATOM     23  C   UNL     1       5.554   3.474  13.055  0.00  0.00    +0.000 C 
ENDBRANCH  10  20
ENDBRANCH   1  12
BRANCH   7  24
ATOM     24  S   UNL     1       0.848  12.228  20.554  0.00  0.00    +0.000 S 
BRANCH  24  25
ATOM     25  C   UNL     1      -0.936  12.490  20.745  0.00  0.00    +0.000 C 
BRANCH  25  26
ATOM     26  C   UNL     1      -1.360  12.513  22.208  0.00  0.00    +0.000 C 
ATOM     27  O   UNL     1      -0.552  12.694  23.121  0.00  0.00    +0.000 OA
ATOM     28  N   UNL     1      -2.705  12.319  22.419  0.00  0.00    +0.000 N 
ATOM     29  H   UNL     1      -3.285  11.983  21.651  0.00  0.00    +0.000 HD
BRANCH  28  30
ATOM     30  C   UNL     1      -3.282  12.265  23.752  0.00  0.00    +0.000 C 
BRANCH  30  31
ATOM     31  C   UNL     1      -4.331  13.352  24.034  0.00  0.00    +0.000 C 
ATOM     32  C   UNL     1      -5.772  12.999  23.696  0.00  0.00    +0.000 C 
ATOM     33  C   UNL     1      -6.393  14.350  23.449  0.00  0.00    +0.000 C 
ATOM     34  C   UNL     1      -5.249  15.098  22.815  0.00  0.00    +0.000 C 
ATOM     35  O   UNL     1      -4.023  14.563  23.315  0.00  0.00    +0.000 OA
ENDBRANCH  30  31
ENDBRANCH  28  30
ENDBRANCH  25  26
ENDBRANCH  24  25
ENDBRANCH   7  24
TORSDOF 7
ENDMDL
MODEL 9
REMARK VINA RESULT:      -7.9      2.790      4.349
REMARK  Name = 
REMARK  9 active torsions:
REMARK  status: ('A' for Active; 'I' for Inactive)
REMARK    1  A    between atoms: C_1  and  C_2
REMARK    2  A    between atoms: C_5  and  N_6
REMARK    3  A    between atoms: C_8  and  C_9
REMARK    4  A    between atoms: C_15  and  S_16
REMARK    5  A    between atoms: S_16  and  C_17
REMARK    6  A    between atoms: C_17  and  C_18
REMARK    7  A    between atoms: N_20  and  C_21
REMARK    8  A    between atoms: C_21  and  C_22
REMARK    9  A    between atoms: C_32  and  C_33
REMARK                            x       y       z     vdW  Elec       q    Type
REMARK                         _______ _______ _______ _____ _____    ______ ____
ROOT
ATOM      1  C   UNL     1       1.051   9.046  20.539  0.00  0.00    +0.000 C 
ATOM      2  O   UNL     1       1.519   8.319  21.411  0.00  0.00    +0.000 OA
ATOM      3  N   UNL     1       1.365   8.988  19.193  0.00  0.00    +0.000 N 
ATOM      4  C   UNL     1       2.192   8.038  18.623  0.00  0.00    +0.000 A 
ATOM      5  N   UNL     1       2.900   8.257  17.535  0.00  0.00    +0.000 NA
ATOM      6  N   UNL     1       3.810   7.239  17.294  0.00  0.00    +0.000 NA
ATOM      7  C   UNL     1       3.691   6.260  18.168  0.00  0.00    +0.000 A 
ATOM      8  S   UNL     1       2.392   6.468  19.275  0.00  0.00    +0.000 S 
ATOM      9  H   UNL     1       1.293   9.832  18.633  0.00  0.00    +0.000 HD
ENDROOT
BRANCH   1  12
ATOM     10  N   UNL     1       0.473  12.064  19.695  0.00  0.00    +0.000 N 
ATOM     11  C   UNL     1       0.682  11.528  21.017  0.00  0.00    +0.000 C 
ATOM     12  C   UNL     1       0.067  10.147  20.950  0.00  0.00    +0.000 C 
ATOM     13  C   UNL     1      -1.064  10.295  19.950  0.00  0.00    +0.000 C 
ATOM     14  C   UNL     1      -0.575  11.400  19.044  0.00  0.00    +0.000 C 
ATOM     15  O   UNL     1      -1.072  11.619  17.949  0.00  0.00    +0.000 OA
BRANCH  10  20
ATOM     16  C   UNL     1       3.507  16.575  17.783  0.00  0.00    +0.000 C 
ATOM     17  C   UNL     1       2.681  15.416  18.268  0.00  0.00    +0.000 A 
ATOM     18  C   UNL     1       3.184  14.117  18.143  0.00  0.00    +0.000 A 
ATOM     19  C   UNL     1       2.452  13.014  18.593  0.00  0.00    +0.000 A 
ATOM     20  C   UNL     1       1.200  13.176  19.193  0.00  0.00    +0.000 A 
ATOM     21  C   UNL     1       0.697  14.481  19.312  0.00  0.00    +0.000 A 
ATOM     22  C   UNL     1       1.416  15.601  18.852  0.00  0.00    +0.000 A 
ATOM     23  C   UNL     1       0.820  16.975  19.004  0.00  0.00    +0.000 C 
ENDBRANCH  10  20
ENDBRANCH   1  12
BRANCH   7  24
ATOM     24  S   UNL     1       4.748   4.869  18.210  0.00  0.00    +0.000 S 
BRANCH  24  25
ATOM     25  C   UNL     1       6.389   5.598  17.954  0.00  0.00    +0.000 C 
BRANCH  25  26
ATOM     26  C   UNL     1       7.090   5.020  16.731  0.00  0.00    +0.000 C 
ATOM     27  O   UNL     1       8.037   4.235  16.830  0.00  0.00    +0.000 OA
ATOM     28  N   UNL     1       6.582   5.441  15.525  0.00  0.00    +0.000 N 
ATOM     29  H   UNL     1       5.938   6.231  15.506  0.00  0.00    +0.000 HD
BRANCH  28  30
ATOM     30  C   UNL     1       7.155   5.028  14.255  0.00  0.00    +0.000 C 
BRANCH  30  31
ATOM     31  C   UNL     1       6.469   3.809  13.617  0.00  0.00    +0.000 C 
ATOM     32  C   UNL     1       6.933   3.433  12.218  0.00  0.00    +0.000 C 
ATOM     33  C   UNL     1       5.730   2.725  11.651  0.00  0.00    +0.000 C 
ATOM     34  C   UNL     1       4.599   3.495  12.282  0.00  0.00    +0.000 C 
ATOM     35  O   UNL     1       5.043   4.004  13.541  0.00  0.00    +0.000 OA
ENDBRANCH  30  31
ENDBRANCH  28  30
ENDBRANCH  25  26
ENDBRANCH  24  25
ENDBRANCH   7  24
TORSDOF 7
ENDMDL
