MODEL 1
REMARK VINA RESULT:      -7.4      0.000      0.000
REMARK  Name = 
REMARK  9 active torsions:
REMARK  status: ('A' for Active; 'I' for Inactive)
REMARK    1  A    between atoms: C_1  and  C_2
REMARK    2  A    between atoms: C_2  and  C_3
REMARK    3  A    between atoms: C_3  and  C_4
REMARK    4  A    between atoms: C_4  and  C_5
REMARK    5  A    between atoms: N_16  and  S_17
REMARK    6  A    between atoms: S_17  and  C_20
REMARK    7  A    between atoms: C_25  and  C_26
REMARK    8  A    between atoms: C_26  and  O_28
REMARK    9  A    between atoms: O_28  and  C_29
REMARK                            x       y       z     vdW  Elec       q    Type
REMARK                         _______ _______ _______ _____ _____    ______ ____
ROOT
ATOM      1  C   UNL     1       4.132   6.056  18.288  0.00  0.00    +0.000 C 
ATOM      2  C   UNL     1       3.242   4.957  17.580  0.00  0.00    +0.000 C 
ATOM      3  C   UNL     1       4.008   3.886  16.728  0.00  0.00    +0.000 C 
ATOM      4  C   UNL     1       3.921   2.414  17.162  0.00  0.00    +0.000 C 
ATOM      5  C   UNL     1       2.554   2.055  17.705  0.00  0.00    +0.000 C 
ATOM      6  N   UNL     1       2.241   2.882  18.850  0.00  0.00    +0.000 NA
ATOM      7  C   UNL     1       3.062   2.624  20.028  0.00  0.00    +0.000 C 
ATOM      8  C   UNL     1       2.361   3.153  21.281  0.00  0.00    +0.000 C 
ATOM      9  C   UNL     1       1.286   4.185  20.946  0.00  0.00    +0.000 C 
ATOM     10  C   UNL     1       1.713   5.096  19.784  0.00  0.00    +0.000 C 
ATOM     11  C   UNL     1       2.801   6.022  20.274  0.00  0.00    +0.000 C 
ATOM     12  N   UNL     1       3.269   6.922  19.198  0.00  0.00    +0.000 NA
ATOM     13  C   UNL     1       2.116   4.311  18.506  0.00  0.00    +0.000 C 
ENDROOT
BRANCH  12  14
ATOM     14  S   UNL     1       2.119   8.058  18.500  0.00  0.00    +0.000 S 
ATOM     15  O   UNL     1       2.863   9.114  17.874  0.00  0.00    +0.000 OA
ATOM     16  O   UNL     1       1.139   7.299  17.753  0.00  0.00    +0.000 OA
BRANCH  14  17
ATOM     17  C   UNL     1       1.256   8.821  19.884  0.00  0.00    +0.000 A 
ATOM     18  C   UNL     1       1.494   8.362  21.192  0.00  0.00    +0.000 A 
ATOM     19  C   UNL     1       0.751   8.830  22.283  0.00  0.00    +0.000 A 
ATOM     20  C   UNL     1      -0.165   9.858  22.107  0.00  0.00    +0.000 A 
ATOM     21  C   UNL     1      -0.371  10.369  20.829  0.00  0.00    +0.000 A 
ATOM     22  C   UNL     1       0.296   9.829  19.705  0.00  0.00    +0.000 A 
BRANCH  22  23
ATOM     23  C   UNL     1      -0.128  10.467  18.442  0.00  0.00    +0.000 C 
ATOM     24  O   UNL     1      -0.918   9.929  17.677  0.00  0.00    +0.000 OA
BRANCH  23  25
ATOM     25  O   UNL     1       0.296  11.743  18.383  0.00  0.00    +0.000 OA
ATOM     26  C   UNL     1      -0.755  12.712  18.229  0.00  0.00    +0.000 C 
ENDBRANCH  23  25
ENDBRANCH  22  23
ENDBRANCH  14  17
ENDBRANCH  12  14
BRANCH   1  27
ATOM     27  C   UNL     1       5.113   6.920  17.450  0.00  0.00    +0.000 C 
BRANCH  27  28
ATOM     28  C   UNL     1       6.545   6.341  17.236  0.00  0.00    +0.000 C 
BRANCH  28  30
ATOM     29  C   UNL     1       7.968   8.363  17.791  0.00  0.00    +0.000 C 
ATOM     30  C   UNL     1       7.662   6.902  18.125  0.00  0.00    +0.000 C 
ENDBRANCH  28  30
ENDBRANCH  27  28
ENDBRANCH   1  27
TORSDOF 7
ENDMDL
MODEL 2
REMARK VINA RESULT:      -7.2      0.654      1.115
REMARK  Name = 
REMARK  9 active torsions:
REMARK  status: ('A' for Active; 'I' for Inactive)
REMARK    1  A    between atoms: C_1  and  C_2
REMARK    2  A    between atoms: C_2  and  C_3
REMARK    3  A    between atoms: C_3  and  C_4
REMARK    4  A    between atoms: C_4  and  C_5
REMARK    5  A    between atoms: N_16  and  S_17
REMARK    6  A    between atoms: S_17  and  C_20
REMARK    7  A    between atoms: C_25  and  C_26
REMARK    8  A    between atoms: C_26  and  O_28
REMARK    9  A    between atoms: O_28  and  C_29
REMARK                            x       y       z     vdW  Elec       q    Type
REMARK                         _______ _______ _______ _____ _____    ______ ____
ROOT
ATOM      1  C   UNL     1       4.137   6.145  18.255  0.00  0.00    +0.000 C 
ATOM      2  C   UNL     1       3.266   5.028  17.552  0.00  0.00    +0.000 C 
ATOM      3  C   UNL     1       4.050   3.975  16.693  0.00  0.00    +0.000 C 
ATOM      4  C   UNL     1       3.999   2.501  17.126  0.00  0.00    +0.000 C 
ATOM      5  C   UNL     1       2.645   2.111  17.678  0.00  0.00    +0.000 C 
ATOM      6  N   UNL     1       2.322   2.929  18.827  0.00  0.00    +0.000 NA
ATOM      7  C   UNL     1       3.156   2.689  19.999  0.00  0.00    +0.000 C 
ATOM      8  C   UNL     1       2.452   3.201  21.257  0.00  0.00    +0.000 C 
ATOM      9  C   UNL     1       1.352   4.209  20.931  0.00  0.00    +0.000 C 
ATOM     10  C   UNL     1       1.751   5.131  19.767  0.00  0.00    +0.000 C 
ATOM     11  C   UNL     1       2.821   6.079  20.251  0.00  0.00    +0.000 C 
ATOM     12  N   UNL     1       3.261   6.992  19.172  0.00  0.00    +0.000 NA
ATOM     13  C   UNL     1       2.162   4.356  18.485  0.00  0.00    +0.000 C 
ENDROOT
BRANCH  12  14
ATOM     14  S   UNL     1       2.081   8.102  18.483  0.00  0.00    +0.000 S 
ATOM     15  O   UNL     1       2.797   9.179  17.861  0.00  0.00    +0.000 OA
ATOM     16  O   UNL     1       1.119   7.324  17.735  0.00  0.00    +0.000 OA
BRANCH  14  17
ATOM     17  C   UNL     1       1.204   8.835  19.874  0.00  0.00    +0.000 A 
ATOM     18  C   UNL     1       1.372   8.302  21.165  0.00  0.00    +0.000 A 
ATOM     19  C   UNL     1       0.612   8.750  22.252  0.00  0.00    +0.000 A 
ATOM     20  C   UNL     1      -0.250   9.827  22.097  0.00  0.00    +0.000 A 
ATOM     21  C   UNL     1      -0.385  10.410  20.841  0.00  0.00    +0.000 A 
ATOM     22  C   UNL     1       0.297   9.895  19.714  0.00  0.00    +0.000 A 
BRANCH  22  23
ATOM     23  C   UNL     1      -0.051  10.613  18.472  0.00  0.00    +0.000 C 
ATOM     24  O   UNL     1       0.461  11.686  18.176  0.00  0.00    +0.000 OA
BRANCH  23  25
ATOM     25  O   UNL     1      -0.806   9.842  17.667  0.00  0.00    +0.000 OA
ATOM     26  C   UNL     1      -2.190  10.228  17.602  0.00  0.00    +0.000 C 
ENDBRANCH  23  25
ENDBRANCH  22  23
ENDBRANCH  14  17
ENDBRANCH  12  14
BRANCH   1  27
ATOM     27  C   UNL     1       5.093   7.032  17.411  0.00  0.00    +0.000 C 
BRANCH  27  28
ATOM     28  C   UNL     1       6.620   6.770  17.581  0.00  0.00    +0.000 C 
BRANCH  28  30
ATOM     29  C   UNL     1       7.686   4.471  17.577  0.00  0.00    +0.000 C 
ATOM     30  C   UNL     1       7.028   5.559  18.429  0.00  0.00    +0.000 C 
ENDBRANCH  28  30
ENDBRANCH  27  28
ENDBRANCH   1  27
TORSDOF 7
ENDMDL
MODEL 3
REMARK VINA RESULT:      -6.7      6.611      9.261
REMARK  Name = 
REMARK  9 active torsions:
REMARK  status: ('A' for Active; 'I' for Inactive)
REMARK    1  A    between atoms: C_1  and  C_2
REMARK    2  A    between atoms: C_2  and  C_3
REMARK    3  A    between atoms: C_3  and  C_4
REMARK    4  A    between atoms: C_4  and  C_5
REMARK    5  A    between atoms: N_16  and  S_17
REMARK    6  A    between atoms: S_17  and  C_20
REMARK    7  A    between atoms: C_25  and  C_26
REMARK    8  A    between atoms: C_26  and  O_28
REMARK    9  A    between atoms: O_28  and  C_29
REMARK                            x       y       z     vdW  Elec       q    Type
REMARK                         _______ _______ _______ _____ _____    ______ ____
ROOT
ATOM      1  C   UNL     1      -2.504  11.833  20.767  0.00  0.00    +0.000 C 
ATOM      2  C   UNL     1      -2.379  12.010  19.200  0.00  0.00    +0.000 C 
ATOM      3  C   UNL     1      -1.437  10.997  18.460  0.00  0.00    +0.000 C 
ATOM      4  C   UNL     1      -2.059  10.053  17.418  0.00  0.00    +0.000 C 
ATOM      5  C   UNL     1      -3.160  10.722  16.622  0.00  0.00    +0.000 C 
ATOM      6  N   UNL     1      -4.212  11.171  17.509  0.00  0.00    +0.000 NA
ATOM      7  C   UNL     1      -4.969  10.100  18.146  0.00  0.00    +0.000 C 
ATOM      8  C   UNL     1      -6.317  10.631  18.637  0.00  0.00    +0.000 C 
ATOM      9  C   UNL     1      -6.322  12.153  18.770  0.00  0.00    +0.000 C 
ATOM     10  C   UNL     1      -4.977  12.684  19.293  0.00  0.00    +0.000 C 
ATOM     11  C   UNL     1      -4.848  12.308  20.750  0.00  0.00    +0.000 C 
ATOM     12  N   UNL     1      -3.565  12.780  21.317  0.00  0.00    +0.000 NA
ATOM     13  C   UNL     1      -3.763  12.225  18.439  0.00  0.00    +0.000 C 
ENDROOT
BRANCH  12  14
ATOM     14  S   UNL     1      -3.259  14.513  21.363  0.00  0.00    +0.000 S 
ATOM     15  O   UNL     1      -2.117  14.784  20.537  0.00  0.00    +0.000 OA
ATOM     16  O   UNL     1      -4.514  15.195  21.138  0.00  0.00    +0.000 OA
BRANCH  14  17
ATOM     17  C   UNL     1      -2.746  14.892  23.047  0.00  0.00    +0.000 A 
ATOM     18  C   UNL     1      -1.671  15.773  23.267  0.00  0.00    +0.000 A 
ATOM     19  C   UNL     1      -1.150  15.993  24.549  0.00  0.00    +0.000 A 
ATOM     20  C   UNL     1      -1.772  15.430  25.655  0.00  0.00    +0.000 A 
ATOM     21  C   UNL     1      -2.876  14.605  25.464  0.00  0.00    +0.000 A 
ATOM     22  C   UNL     1      -3.343  14.290  24.166  0.00  0.00    +0.000 A 
BRANCH  22  23
ATOM     23  C   UNL     1      -4.471  13.339  24.192  0.00  0.00    +0.000 C 
ATOM     24  O   UNL     1      -4.333  12.176  24.549  0.00  0.00    +0.000 OA
BRANCH  23  25
ATOM     25  O   UNL     1      -5.640  13.975  23.985  0.00  0.00    +0.000 OA
ATOM     26  C   UNL     1      -6.786  13.108  23.933  0.00  0.00    +0.000 C 
ENDBRANCH  23  25
ENDBRANCH  22  23
ENDBRANCH  14  17
ENDBRANCH  12  14
BRANCH   1  27
ATOM     27  C   UNL     1      -1.229  11.837  21.653  0.00  0.00    +0.000 C 
BRANCH  27  28
ATOM     28  C   UNL     1      -1.323  11.084  23.014  0.00  0.00    +0.000 C 
BRANCH  28  30
ATOM     29  C   UNL     1      -0.270   9.087  21.862  0.00  0.00    +0.000 C 
ATOM     30  C   UNL     1      -0.443   9.839  23.183  0.00  0.00    +0.000 C 
ENDBRANCH  28  30
ENDBRANCH  27  28
ENDBRANCH   1  27
TORSDOF 7
ENDMDL
MODEL 4
REMARK VINA RESULT:      -6.7      8.891     10.608
REMARK  Name = 
REMARK  9 active torsions:
REMARK  status: ('A' for Active; 'I' for Inactive)
REMARK    1  A    between atoms: C_1  and  C_2
REMARK    2  A    between atoms: C_2  and  C_3
REMARK    3  A    between atoms: C_3  and  C_4
REMARK    4  A    between atoms: C_4  and  C_5
REMARK    5  A    between atoms: N_16  and  S_17
REMARK    6  A    between atoms: S_17  and  C_20
REMARK    7  A    between atoms: C_25  and  C_26
REMARK    8  A    between atoms: C_26  and  O_28
REMARK    9  A    between atoms: O_28  and  C_29
REMARK                            x       y       z     vdW  Elec       q    Type
REMARK                         _______ _______ _______ _____ _____    ______ ____
ROOT
ATOM      1  C   UNL     1       8.465  13.031  21.837  0.00  0.00    +0.000 C 
ATOM      2  C   UNL     1       9.757  13.250  20.951  0.00  0.00    +0.000 C 
ATOM      3  C   UNL     1      10.598  11.968  20.620  0.00  0.00    +0.000 C 
ATOM      4  C   UNL     1      10.733  11.548  19.148  0.00  0.00    +0.000 C 
ATOM      5  C   UNL     1      10.844  12.737  18.218  0.00  0.00    +0.000 C 
ATOM      6  N   UNL     1       9.671  13.576  18.342  0.00  0.00    +0.000 NA
ATOM      7  C   UNL     1       8.439  12.974  17.843  0.00  0.00    +0.000 C 
ATOM      8  C   UNL     1       7.404  14.063  17.556  0.00  0.00    +0.000 C 
ATOM      9  C   UNL     1       7.726  15.369  18.280  0.00  0.00    +0.000 C 
ATOM     10  C   UNL     1       8.299  15.116  19.684  0.00  0.00    +0.000 C 
ATOM     11  C   UNL     1       7.188  14.608  20.571  0.00  0.00    +0.000 C 
ATOM     12  N   UNL     1       7.675  14.331  21.940  0.00  0.00    +0.000 NA
ATOM     13  C   UNL     1       9.544  14.187  19.679  0.00  0.00    +0.000 C 
ENDROOT
BRANCH  12  14
ATOM     14  S   UNL     1       8.308  15.672  22.889  0.00  0.00    +0.000 S 
ATOM     15  O   UNL     1       9.741  15.580  22.887  0.00  0.00    +0.000 OA
ATOM     16  O   UNL     1       7.644  16.881  22.453  0.00  0.00    +0.000 OA
BRANCH  14  17
ATOM     17  C   UNL     1       7.801  15.373  24.591  0.00  0.00    +0.000 A 
ATOM     18  C   UNL     1       8.773  15.297  25.605  0.00  0.00    +0.000 A 
ATOM     19  C   UNL     1       8.441  14.934  26.917  0.00  0.00    +0.000 A 
ATOM     20  C   UNL     1       7.111  14.758  27.271  0.00  0.00    +0.000 A 
ATOM     21  C   UNL     1       6.128  14.890  26.295  0.00  0.00    +0.000 A 
ATOM     22  C   UNL     1       6.461  15.150  24.945  0.00  0.00    +0.000 A 
BRANCH  22  23
ATOM     23  C   UNL     1       5.273  15.172  24.069  0.00  0.00    +0.000 C 
ATOM     24  O   UNL     1       4.744  14.144  23.665  0.00  0.00    +0.000 OA
BRANCH  23  25
ATOM     25  O   UNL     1       4.770  16.417  23.974  0.00  0.00    +0.000 OA
ATOM     26  C   UNL     1       3.806  16.589  22.921  0.00  0.00    +0.000 C 
ENDBRANCH  23  25
ENDBRANCH  22  23
ENDBRANCH  14  17
ENDBRANCH  12  14
BRANCH   1  27
ATOM     27  C   UNL     1       8.579  12.328  23.217  0.00  0.00    +0.000 C 
BRANCH  27  28
ATOM     28  C   UNL     1       7.287  11.648  23.762  0.00  0.00    +0.000 C 
BRANCH  28  30
ATOM     29  C   UNL     1       5.695  11.263  25.696  0.00  0.00    +0.000 C 
ATOM     30  C   UNL     1       7.140  11.555  25.286  0.00  0.00    +0.000 C 
ENDBRANCH  28  30
ENDBRANCH  27  28
ENDBRANCH   1  27
TORSDOF 7
ENDMDL
MODEL 5
REMARK VINA RESULT:      -6.6      5.290      9.779
REMARK  Name = 
REMARK  9 active torsions:
REMARK  status: ('A' for Active; 'I' for Inactive)
REMARK    1  A    between atoms: C_1  and  C_2
REMARK    2  A    between atoms: C_2  and  C_3
REMARK    3  A    between atoms: C_3  and  C_4
REMARK    4  A    between atoms: C_4  and  C_5
REMARK    5  A    between atoms: N_16  and  S_17
REMARK    6  A    between atoms: S_17  and  C_20
REMARK    7  A    between atoms: C_25  and  C_26
REMARK    8  A    between atoms: C_26  and  O_28
REMARK    9  A    between atoms: O_28  and  C_29
REMARK                            x       y       z     vdW  Elec       q    Type
REMARK                         _______ _______ _______ _____ _____    ______ ____
ROOT
ATOM      1  C   UNL     1      -1.134  12.909  22.746  0.00  0.00    +0.000 C 
ATOM      2  C   UNL     1      -2.296  13.958  22.974  0.00  0.00    +0.000 C 
ATOM      3  C   UNL     1      -3.194  13.735  24.241  0.00  0.00    +0.000 C 
ATOM      4  C   UNL     1      -3.196  14.819  25.331  0.00  0.00    +0.000 C 
ATOM      5  C   UNL     1      -3.106  16.215  24.752  0.00  0.00    +0.000 C 
ATOM      6  N   UNL     1      -1.891  16.355  23.978  0.00  0.00    +0.000 NA
ATOM      7  C   UNL     1      -0.663  16.324  24.764  0.00  0.00    +0.000 C 
ATOM      8  C   UNL     1       0.482  16.959  23.973  0.00  0.00    +0.000 C 
ATOM      9  C   UNL     1       0.186  17.015  22.475  0.00  0.00    +0.000 C 
ATOM     10  C   UNL     1      -0.560  15.759  21.996  0.00  0.00    +0.000 C 
ATOM     11  C   UNL     1       0.399  14.593  22.016  0.00  0.00    +0.000 C 
ATOM     12  N   UNL     1      -0.260  13.344  21.575  0.00  0.00    +0.000 NA
ATOM     13  C   UNL     1      -1.867  15.482  22.789  0.00  0.00    +0.000 C 
ENDROOT
BRANCH  12  14
ATOM     14  S   UNL     1      -0.886  13.265  19.932  0.00  0.00    +0.000 S 
ATOM     15  O   UNL     1      -2.255  12.839  20.000  0.00  0.00    +0.000 OA
ATOM     16  O   UNL     1      -0.525  14.492  19.257  0.00  0.00    +0.000 OA
BRANCH  14  17
ATOM     17  C   UNL     1       0.002  11.929  19.115  0.00  0.00    +0.000 A 
ATOM     18  C   UNL     1      -0.675  10.740  18.786  0.00  0.00    +0.000 A 
ATOM     19  C   UNL     1       0.000   9.625  18.274  0.00  0.00    +0.000 A 
ATOM     20  C   UNL     1       1.351   9.716  17.965  0.00  0.00    +0.000 A 
ATOM     21  C   UNL     1       2.026  10.904  18.224  0.00  0.00    +0.000 A 
ATOM     22  C   UNL     1       1.377  11.999  18.841  0.00  0.00    +0.000 A 
BRANCH  22  23
ATOM     23  C   UNL     1       2.297  13.126  19.094  0.00  0.00    +0.000 C 
ATOM     24  O   UNL     1       2.865  13.272  20.169  0.00  0.00    +0.000 OA
BRANCH  23  25
ATOM     25  O   UNL     1       2.561  13.795  17.956  0.00  0.00    +0.000 OA
ATOM     26  C   UNL     1       3.609  14.772  18.071  0.00  0.00    +0.000 C 
ENDBRANCH  23  25
ENDBRANCH  22  23
ENDBRANCH  14  17
ENDBRANCH  12  14
BRANCH   1  27
ATOM     27  C   UNL     1      -1.458  11.392  22.676  0.00  0.00    +0.000 C 
BRANCH  27  28
ATOM     28  C   UNL     1      -0.259  10.413  22.857  0.00  0.00    +0.000 C 
BRANCH  28  30
ATOM     29  C   UNL     1       1.126   8.673  21.642  0.00  0.00    +0.000 C 
ATOM     30  C   UNL     1      -0.284   9.122  22.031  0.00  0.00    +0.000 C 
ENDBRANCH  28  30
ENDBRANCH  27  28
ENDBRANCH   1  27
TORSDOF 7
ENDMDL
MODEL 6
REMARK VINA RESULT:      -6.6      5.653      9.629
REMARK  Name = 
REMARK  9 active torsions:
REMARK  status: ('A' for Active; 'I' for Inactive)
REMARK    1  A    between atoms: C_1  and  C_2
REMARK    2  A    between atoms: C_2  and  C_3
REMARK    3  A    between atoms: C_3  and  C_4
REMARK    4  A    between atoms: C_4  and  C_5
REMARK    5  A    between atoms: N_16  and  S_17
REMARK    6  A    between atoms: S_17  and  C_20
REMARK    7  A    between atoms: C_25  and  C_26
REMARK    8  A    between atoms: C_26  and  O_28
REMARK    9  A    between atoms: O_28  and  C_29
REMARK                            x       y       z     vdW  Elec       q    Type
REMARK                         _______ _______ _______ _____ _____    ______ ____
ROOT
ATOM      1  C   UNL     1      -3.277  12.404  20.307  0.00  0.00    +0.000 C 
ATOM      2  C   UNL     1      -3.858  13.823  20.691  0.00  0.00    +0.000 C 
ATOM      3  C   UNL     1      -5.247  14.197  20.066  0.00  0.00    +0.000 C 
ATOM      4  C   UNL     1      -6.433  14.431  21.016  0.00  0.00    +0.000 C 
ATOM      5  C   UNL     1      -6.015  15.121  22.297  0.00  0.00    +0.000 C 
ATOM      6  N   UNL     1      -5.030  14.321  22.993  0.00  0.00    +0.000 NA
ATOM      7  C   UNL     1      -5.539  13.064  23.532  0.00  0.00    +0.000 C 
ATOM      8  C   UNL     1      -4.609  12.552  24.634  0.00  0.00    +0.000 C 
ATOM      9  C   UNL     1      -3.221  13.184  24.556  0.00  0.00    +0.000 C 
ATOM     10  C   UNL     1      -2.761  13.373  23.101  0.00  0.00    +0.000 C 
ATOM     11  C   UNL     1      -2.449  12.016  22.517  0.00  0.00    +0.000 C 
ATOM     12  N   UNL     1      -2.010  12.123  21.108  0.00  0.00    +0.000 NA
ATOM     13  C   UNL     1      -3.768  14.185  22.241  0.00  0.00    +0.000 C 
ENDROOT
BRANCH  12  14
ATOM     14  S   UNL     1      -0.532  13.014  20.759  0.00  0.00    +0.000 S 
ATOM     15  O   UNL     1      -0.889  14.192  20.020  0.00  0.00    +0.000 OA
ATOM     16  O   UNL     1       0.231  13.110  21.983  0.00  0.00    +0.000 OA
BRANCH  14  17
ATOM     17  C   UNL     1       0.418  11.992  19.621  0.00  0.00    +0.000 A 
ATOM     18  C   UNL     1       0.003  10.675  19.353  0.00  0.00    +0.000 A 
ATOM     19  C   UNL     1       0.780   9.800  18.584  0.00  0.00    +0.000 A 
ATOM     20  C   UNL     1       1.932  10.262  17.962  0.00  0.00    +0.000 A 
ATOM     21  C   UNL     1       2.327  11.580  18.163  0.00  0.00    +0.000 A 
ATOM     22  C   UNL     1       1.608  12.441  19.026  0.00  0.00    +0.000 A 
BRANCH  22  23
ATOM     23  C   UNL     1       2.245  13.766  19.154  0.00  0.00    +0.000 C 
ATOM     24  O   UNL     1       1.918  14.715  18.452  0.00  0.00    +0.000 OA
BRANCH  23  25
ATOM     25  O   UNL     1       3.034  13.816  20.244  0.00  0.00    +0.000 OA
ATOM     26  C   UNL     1       2.979  15.062  20.960  0.00  0.00    +0.000 C 
ENDBRANCH  23  25
ENDBRANCH  22  23
ENDBRANCH  14  17
ENDBRANCH  12  14
BRANCH   1  27
ATOM     27  C   UNL     1      -3.098  12.015  18.814  0.00  0.00    +0.000 C 
BRANCH  27  28
ATOM     28  C   UNL     1      -4.034  10.894  18.268  0.00  0.00    +0.000 C 
BRANCH  28  30
ATOM     29  C   UNL     1      -2.332  10.211  16.519  0.00  0.00    +0.000 C 
ATOM     30  C   UNL     1      -3.366   9.724  17.537  0.00  0.00    +0.000 C 
ENDBRANCH  28  30
ENDBRANCH  27  28
ENDBRANCH   1  27
TORSDOF 7
ENDMDL
MODEL 7
REMARK VINA RESULT:      -6.6      5.741      9.845
REMARK  Name = 
REMARK  9 active torsions:
REMARK  status: ('A' for Active; 'I' for Inactive)
REMARK    1  A    between atoms: C_1  and  C_2
REMARK    2  A    between atoms: C_2  and  C_3
REMARK    3  A    between atoms: C_3  and  C_4
REMARK    4  A    between atoms: C_4  and  C_5
REMARK    5  A    between atoms: N_16  and  S_17
REMARK    6  A    between atoms: S_17  and  C_20
REMARK    7  A    between atoms: C_25  and  C_26
REMARK    8  A    between atoms: C_26  and  O_28
REMARK    9  A    between atoms: O_28  and  C_29
REMARK                            x       y       z     vdW  Elec       q    Type
REMARK                         _______ _______ _______ _____ _____    ______ ____
ROOT
ATOM      1  C   UNL     1      -3.234  12.813  20.665  0.00  0.00    +0.000 C 
ATOM      2  C   UNL     1      -4.044  14.101  21.097  0.00  0.00    +0.000 C 
ATOM      3  C   UNL     1      -5.331  14.425  20.261  0.00  0.00    +0.000 C 
ATOM      4  C   UNL     1      -6.690  14.406  20.979  0.00  0.00    +0.000 C 
ATOM      5  C   UNL     1      -6.600  14.940  22.393  0.00  0.00    +0.000 C 
ATOM      6  N   UNL     1      -5.669  14.147  23.166  0.00  0.00    +0.000 NA
ATOM      7  C   UNL     1      -6.110  12.783  23.435  0.00  0.00    +0.000 C 
ATOM      8  C   UNL     1      -5.343  12.210  24.628  0.00  0.00    +0.000 C 
ATOM      9  C   UNL     1      -4.051  12.977  24.904  0.00  0.00    +0.000 C 
ATOM     10  C   UNL     1      -3.360  13.416  23.603  0.00  0.00    +0.000 C 
ATOM     11  C   UNL     1      -2.783  12.194  22.930  0.00  0.00    +0.000 C 
ATOM     12  N   UNL     1      -2.110  12.544  21.660  0.00  0.00    +0.000 NA
ATOM     13  C   UNL     1      -4.284  14.243  22.667  0.00  0.00    +0.000 C 
ENDROOT
BRANCH  12  14
ATOM     14  S   UNL     1      -0.713  13.613  21.721  0.00  0.00    +0.000 S 
ATOM     15  O   UNL     1      -1.150  14.934  21.364  0.00  0.00    +0.000 OA
ATOM     16  O   UNL     1      -0.022  13.374  22.969  0.00  0.00    +0.000 OA
BRANCH  14  17
ATOM     17  C   UNL     1       0.387  13.087  20.396  0.00  0.00    +0.000 A 
ATOM     18  C   UNL     1       0.907  14.040  19.502  0.00  0.00    +0.000 A 
ATOM     19  C   UNL     1       1.656  13.665  18.379  0.00  0.00    +0.000 A 
ATOM     20  C   UNL     1       2.004  12.334  18.193  0.00  0.00    +0.000 A 
ATOM     21  C   UNL     1       1.551  11.382  19.101  0.00  0.00    +0.000 A 
ATOM     22  C   UNL     1       0.705  11.737  20.178  0.00  0.00    +0.000 A 
BRANCH  22  23
ATOM     23  C   UNL     1       0.281  10.564  20.968  0.00  0.00    +0.000 C 
ATOM     24  O   UNL     1      -0.542   9.761  20.549  0.00  0.00    +0.000 OA
BRANCH  23  25
ATOM     25  O   UNL     1       1.059  10.413  22.057  0.00  0.00    +0.000 OA
ATOM     26  C   UNL     1       1.388   9.048  22.367  0.00  0.00    +0.000 C 
ENDBRANCH  23  25
ENDBRANCH  22  23
ENDBRANCH  14  17
ENDBRANCH  12  14
BRANCH   1  27
ATOM     27  C   UNL     1      -2.739  12.662  19.200  0.00  0.00    +0.000 C 
BRANCH  27  28
ATOM     28  C   UNL     1      -2.965  11.274  18.528  0.00  0.00    +0.000 C 
BRANCH  28  30
ATOM     29  C   UNL     1      -2.484   9.936  16.430  0.00  0.00    +0.000 C 
ATOM     30  C   UNL     1      -1.887  10.792  17.549  0.00  0.00    +0.000 C 
ENDBRANCH  28  30
ENDBRANCH  27  28
ENDBRANCH   1  27
TORSDOF 7
ENDMDL
MODEL 8
REMARK VINA RESULT:      -6.5      4.953      9.492
REMARK  Name = 
REMARK  9 active torsions:
REMARK  status: ('A' for Active; 'I' for Inactive)
REMARK    1  A    between atoms: C_1  and  C_2
REMARK    2  A    between atoms: C_2  and  C_3
REMARK    3  A    between atoms: C_3  and  C_4
REMARK    4  A    between atoms: C_4  and  C_5
REMARK    5  A    between atoms: N_16  and  S_17
REMARK    6  A    between atoms: S_17  and  C_20
REMARK    7  A    between atoms: C_25  and  C_26
REMARK    8  A    between atoms: C_26  and  O_28
REMARK    9  A    between atoms: O_28  and  C_29
REMARK                            x       y       z     vdW  Elec       q    Type
REMARK                         _______ _______ _______ _____ _____    ______ ____
ROOT
ATOM      1  C   UNL     1      -1.095  12.649  22.686  0.00  0.00    +0.000 C 
ATOM      2  C   UNL     1      -2.267  13.695  22.872  0.00  0.00    +0.000 C 
ATOM      3  C   UNL     1      -3.044  13.632  24.233  0.00  0.00    +0.000 C 
ATOM      4  C   UNL     1      -2.987  14.856  25.161  0.00  0.00    +0.000 C 
ATOM      5  C   UNL     1      -2.992  16.160  24.392  0.00  0.00    +0.000 C 
ATOM      6  N   UNL     1      -1.854  16.217  23.501  0.00  0.00    +0.000 NA
ATOM      7  C   UNL     1      -0.562  16.318  24.170  0.00  0.00    +0.000 C 
ATOM      8  C   UNL     1       0.489  16.861  23.200  0.00  0.00    +0.000 C 
ATOM      9  C   UNL     1       0.064  16.703  21.742  0.00  0.00    +0.000 C 
ATOM     10  C   UNL     1      -0.680  15.378  21.506  0.00  0.00    +0.000 C 
ATOM     11  C   UNL     1       0.315  14.246  21.599  0.00  0.00    +0.000 C 
ATOM     12  N   UNL     1      -0.340  12.935  21.393  0.00  0.00    +0.000 NA
ATOM     13  C   UNL     1      -1.904  15.188  22.444  0.00  0.00    +0.000 C 
ENDROOT
BRANCH  12  14
ATOM     14  S   UNL     1      -1.103  12.617  19.839  0.00  0.00    +0.000 S 
ATOM     15  O   UNL     1      -2.416  12.095  20.089  0.00  0.00    +0.000 OA
ATOM     16  O   UNL     1      -0.916  13.782  19.002  0.00  0.00    +0.000 OA
BRANCH  14  17
ATOM     17  C   UNL     1      -0.175  11.270  19.085  0.00  0.00    +0.000 A 
ATOM     18  C   UNL     1       1.190  11.110  19.385  0.00  0.00    +0.000 A 
ATOM     19  C   UNL     1       1.983  10.164  18.723  0.00  0.00    +0.000 A 
ATOM     20  C   UNL     1       1.400   9.272  17.833  0.00  0.00    +0.000 A 
ATOM     21  C   UNL     1       0.038   9.373  17.570  0.00  0.00    +0.000 A 
ATOM     22  C   UNL     1      -0.750  10.394  18.150  0.00  0.00    +0.000 A 
BRANCH  22  23
ATOM     23  C   UNL     1      -2.148  10.363  17.674  0.00  0.00    +0.000 C 
ATOM     24  O   UNL     1      -2.991   9.636  18.182  0.00  0.00    +0.000 OA
BRANCH  23  25
ATOM     25  O   UNL     1      -2.378  11.359  16.797  0.00  0.00    +0.000 OA
ATOM     26  C   UNL     1      -2.954  10.930  15.552  0.00  0.00    +0.000 C 
ENDBRANCH  23  25
ENDBRANCH  22  23
ENDBRANCH  14  17
ENDBRANCH  12  14
BRANCH   1  27
ATOM     27  C   UNL     1      -1.376  11.130  22.852  0.00  0.00    +0.000 C 
BRANCH  27  28
ATOM     28  C   UNL     1      -0.155  10.174  22.695  0.00  0.00    +0.000 C 
BRANCH  28  30
ATOM     29  C   UNL     1       0.935   8.195  21.546  0.00  0.00    +0.000 C 
ATOM     30  C   UNL     1      -0.386   8.873  21.918  0.00  0.00    +0.000 C 
ENDBRANCH  28  30
ENDBRANCH  27  28
ENDBRANCH   1  27
TORSDOF 7
ENDMDL
MODEL 9
REMARK VINA RESULT:      -6.4      6.176      9.759
REMARK  Name = 
REMARK  9 active torsions:
REMARK  status: ('A' for Active; 'I' for Inactive)
REMARK    1  A    between atoms: C_1  and  C_2
REMARK    2  A    between atoms: C_2  and  C_3
REMARK    3  A    between atoms: C_3  and  C_4
REMARK    4  A    between atoms: C_4  and  C_5
REMARK    5  A    between atoms: N_16  and  S_17
REMARK    6  A    between atoms: S_17  and  C_20
REMARK    7  A    between atoms: C_25  and  C_26
REMARK    8  A    between atoms: C_26  and  O_28
REMARK    9  A    between atoms: O_28  and  C_29
REMARK                            x       y       z     vdW  Elec       q    Type
REMARK                         _______ _______ _______ _____ _____    ______ ____
ROOT
ATOM      1  C   UNL     1      -2.294  12.368  22.428  0.00  0.00    +0.000 C 
ATOM      2  C   UNL     1      -0.878  11.688  22.616  0.00  0.00    +0.000 C 
ATOM      3  C   UNL     1      -0.876  10.253  23.250  0.00  0.00    +0.000 C 
ATOM      4  C   UNL     1      -0.346   9.084  22.404  0.00  0.00    +0.000 C 
ATOM      5  C   UNL     1       0.830   9.488  21.540  0.00  0.00    +0.000 C 
ATOM      6  N   UNL     1       0.444  10.556  20.642  0.00  0.00    +0.000 NA
ATOM      7  C   UNL     1      -0.512  10.167  19.611  0.00  0.00    +0.000 C 
ATOM      8  C   UNL     1      -0.474  11.170  18.457  0.00  0.00    +0.000 C 
ATOM      9  C   UNL     1       0.154  12.500  18.870  0.00  0.00    +0.000 C 
ATOM     10  C   UNL     1      -0.241  12.895  20.302  0.00  0.00    +0.000 C 
ATOM     11  C   UNL     1      -1.696  13.296  20.307  0.00  0.00    +0.000 C 
ATOM     12  N   UNL     1      -2.147  13.679  21.663  0.00  0.00    +0.000 NA
ATOM     13  C   UNL     1       0.089  11.799  21.353  0.00  0.00    +0.000 C 
ENDROOT
BRANCH  12  14
ATOM     14  S   UNL     1      -1.389  15.068  22.434  0.00  0.00    +0.000 S 
ATOM     15  O   UNL     1      -0.594  14.588  23.529  0.00  0.00    +0.000 OA
ATOM     16  O   UNL     1      -0.803  15.890  21.398  0.00  0.00    +0.000 OA
BRANCH  14  17
ATOM     17  C   UNL     1      -2.721  16.024  23.178  0.00  0.00    +0.000 A 
ATOM     18  C   UNL     1      -2.759  16.199  24.573  0.00  0.00    +0.000 A 
ATOM     19  C   UNL     1      -3.843  16.818  25.209  0.00  0.00    +0.000 A 
ATOM     20  C   UNL     1      -4.859  17.384  24.450  0.00  0.00    +0.000 A 
ATOM     21  C   UNL     1      -4.809  17.276  23.065  0.00  0.00    +0.000 A 
ATOM     22  C   UNL     1      -3.774  16.559  22.419  0.00  0.00    +0.000 A 
BRANCH  22  23
ATOM     23  C   UNL     1      -3.959  16.504  20.955  0.00  0.00    +0.000 C 
ATOM     24  O   UNL     1      -4.642  15.642  20.419  0.00  0.00    +0.000 OA
BRANCH  23  25
ATOM     25  O   UNL     1      -3.467  17.612  20.368  0.00  0.00    +0.000 OA
ATOM     26  C   UNL     1      -4.187  18.030  19.195  0.00  0.00    +0.000 C 
ENDBRANCH  23  25
ENDBRANCH  22  23
ENDBRANCH  14  17
ENDBRANCH  12  14
BRANCH   1  27
ATOM     27  C   UNL     1      -3.246  12.528  23.644  0.00  0.00    +0.000 C 
BRANCH  27  28
ATOM     28  C   UNL     1      -4.773  12.560  23.335  0.00  0.00    +0.000 C 
BRANCH  28  30
ATOM     29  C   UNL     1      -7.065  13.459  23.936  0.00  0.00    +0.000 C 
ATOM     30  C   UNL     1      -5.566  13.760  23.868  0.00  0.00    +0.000 C 
ENDBRANCH  28  30
ENDBRANCH  27  28
ENDBRANCH   1  27
TORSDOF 7
ENDMDL
