MODEL 1
REMARK VINA RESULT:      -7.8      0.000      0.000
REMARK  Name = 
REMARK  17 active torsions:
REMARK  status: ('A' for Active; 'I' for Inactive)
REMARK    1  A    between atoms: C_1  and  C_2
REMARK    2  A    between atoms: C_2  and  C_3
REMARK    3  A    between atoms: C_3  and  C_4
REMARK    4  A    between atoms: C_4  and  C_5
REMARK    5  A    between atoms: C_5  and  C_6
REMARK    6  A    between atoms: C_6  and  C_7
REMARK    7  A    between atoms: C_7  and  C_8
REMARK    8  A    between atoms: C_8  and  C_9
REMARK    9  A    between atoms: C_9  and  C_10
REMARK   10  A    between atoms: C_10  and  O_11
REMARK   11  A    between atoms: O_11  and  C_12
REMARK   12  A    between atoms: C_15  and  C_16
REMARK   13  A    between atoms: C_16  and  C_18
REMARK   14  A    between atoms: C_22  and  C_23
REMARK   15  A    between atoms: C_30  and  C_31
REMARK   16  A    between atoms: C_31  and  C_32
REMARK   17  A    between atoms: C_32  and  O_34
REMARK                            x       y       z     vdW  Elec       q    Type
REMARK                         _______ _______ _______ _____ _____    ______ ____
ROOT
ATOM      1  C   UNL     1       2.561   5.605  18.583  0.00  0.00    +0.000 A 
ATOM      2  C   UNL     1       2.897   6.947  18.352  0.00  0.00    +0.000 A 
ATOM      3  C   UNL     1       2.423   7.956  19.187  0.00  0.00    +0.000 A 
ATOM      4  C   UNL     1       1.580   7.644  20.251  0.00  0.00    +0.000 A 
ATOM      5  C   UNL     1       1.238   6.308  20.492  0.00  0.00    +0.000 A 
ATOM      6  C   UNL     1       1.770   5.276  19.697  0.00  0.00    +0.000 A 
ENDROOT
BRANCH   4   7
ATOM      7  C   UNL     1       1.055   8.772  21.060  0.00  0.00    +0.000 C 
ATOM      8  O   UNL     1       1.154   8.724  22.284  0.00  0.00    +0.000 OA
BRANCH   7   9
ATOM      9  C   UNL     1       0.417   9.954  20.439  0.00  0.00    +0.000 A 
ATOM     10  C   UNL     1       0.826  11.221  20.864  0.00  0.00    +0.000 A 
ATOM     11  C   UNL     1       0.260  12.359  20.297  0.00  0.00    +0.000 A 
ATOM     12  C   UNL     1      -0.717  12.232  19.305  0.00  0.00    +0.000 A 
ATOM     13  C   UNL     1      -1.152  10.967  18.886  0.00  0.00    +0.000 A 
ATOM     14  C   UNL     1      -0.592   9.827  19.477  0.00  0.00    +0.000 A 
BRANCH  13  15
ATOM     15  C   UNL     1      -2.159  10.823  17.843  0.00  0.00    +0.000 A 
ATOM     16  N   UNL     1      -3.243  11.666  17.731  0.00  0.00    +0.000 NA
ATOM     17  N   UNL     1      -3.962  11.235  16.705  0.00  0.00    +0.000 NA
ATOM     18  N   UNL     1      -3.295  10.168  16.254  0.00  0.00    +0.000 N 
ATOM     19  N   UNL     1      -2.167   9.856  16.909  0.00  0.00    +0.000 NA
ATOM     20  H   UNL     1      -3.630   9.625  15.463  0.00  0.00    +0.000 HD
ENDBRANCH  13  15
ENDBRANCH   7   9
ENDBRANCH   4   7
BRANCH   6  21
ATOM     21  C   UNL     1       1.460   3.845  20.065  0.00  0.00    +0.000 C 
BRANCH  21  22
ATOM     22  C   UNL     1       2.503   3.231  20.954  0.00  0.00    +0.000 C 
ATOM     23  O   UNL     1       3.523   2.705  20.534  0.00  0.00    +0.000 OA
BRANCH  22  24
ATOM     24  O   UNL     1       2.194   3.292  22.270  0.00  0.00    +0.000 OA
ATOM     25  H   UNL     1       2.061   2.408  22.667  0.00  0.00    +0.000 HD
ENDBRANCH  22  24
ENDBRANCH  21  22
ENDBRANCH   6  21
BRANCH   1  26
ATOM     26  O   UNL     1       2.920   4.564  17.744  0.00  0.00    +0.000 OA
BRANCH  26  27
ATOM     27  C   UNL     1       4.352   4.377  17.674  0.00  0.00    +0.000 C 
BRANCH  27  28
ATOM     28  C   UNL     1       4.779   3.909  16.290  0.00  0.00    +0.000 C 
BRANCH  28  29
ATOM     29  C   UNL     1       6.281   4.126  16.063  0.00  0.00    +0.000 C 
BRANCH  29  30
ATOM     30  C   UNL     1       6.533   4.770  14.700  0.00  0.00    +0.000 C 
BRANCH  30  31
ATOM     31  C   UNL     1       5.583   4.233  13.630  0.00  0.00    +0.000 C 
BRANCH  31  32
ATOM     32  C   UNL     1       6.302   3.244  12.711  0.00  0.00    +0.000 C 
BRANCH  32  33
ATOM     33  C   UNL     1       5.435   2.880  11.507  0.00  0.00    +0.000 C 
BRANCH  33  34
ATOM     34  C   UNL     1       4.004   3.385  11.688  0.00  0.00    +0.000 C 
BRANCH  34  36
ATOM     35  C   UNL     1       2.984   4.343   9.599  0.00  0.00    +0.000 C 
ATOM     36  C   UNL     1       3.154   3.097  10.452  0.00  0.00    +0.000 C 
ENDBRANCH  34  36
ENDBRANCH  33  34
ENDBRANCH  32  33
ENDBRANCH  31  32
ENDBRANCH  30  31
ENDBRANCH  29  30
ENDBRANCH  28  29
ENDBRANCH  27  28
ENDBRANCH  26  27
ENDBRANCH   1  26
TORSDOF 16
ENDMDL
MODEL 2
REMARK VINA RESULT:      -7.7      3.400      5.652
REMARK  Name = 
REMARK  17 active torsions:
REMARK  status: ('A' for Active; 'I' for Inactive)
REMARK    1  A    between atoms: C_1  and  C_2
REMARK    2  A    between atoms: C_2  and  C_3
REMARK    3  A    between atoms: C_3  and  C_4
REMARK    4  A    between atoms: C_4  and  C_5
REMARK    5  A    between atoms: C_5  and  C_6
REMARK    6  A    between atoms: C_6  and  C_7
REMARK    7  A    between atoms: C_7  and  C_8
REMARK    8  A    between atoms: C_8  and  C_9
REMARK    9  A    between atoms: C_9  and  C_10
REMARK   10  A    between atoms: C_10  and  O_11
REMARK   11  A    between atoms: O_11  and  C_12
REMARK   12  A    between atoms: C_15  and  C_16
REMARK   13  A    between atoms: C_16  and  C_18
REMARK   14  A    between atoms: C_22  and  C_23
REMARK   15  A    between atoms: C_30  and  C_31
REMARK   16  A    between atoms: C_31  and  C_32
REMARK   17  A    between atoms: C_32  and  O_34
REMARK                            x       y       z     vdW  Elec       q    Type
REMARK                         _______ _______ _______ _____ _____    ______ ____
ROOT
ATOM      1  C   UNL     1       1.437   8.483  19.489  0.00  0.00    +0.000 A 
ATOM      2  C   UNL     1       1.594   9.133  18.257  0.00  0.00    +0.000 A 
ATOM      3  C   UNL     1       0.805  10.232  17.922  0.00  0.00    +0.000 A 
ATOM      4  C   UNL     1      -0.175  10.681  18.802  0.00  0.00    +0.000 A 
ATOM      5  C   UNL     1      -0.342  10.041  20.036  0.00  0.00    +0.000 A 
ATOM      6  C   UNL     1       0.498   8.977  20.413  0.00  0.00    +0.000 A 
ENDROOT
BRANCH   4   7
ATOM      7  C   UNL     1      -1.027  11.812  18.357  0.00  0.00    +0.000 C 
ATOM      8  O   UNL     1      -0.520  12.923  18.223  0.00  0.00    +0.000 OA
BRANCH   7   9
ATOM      9  C   UNL     1      -2.469  11.643  18.069  0.00  0.00    +0.000 A 
ATOM     10  C   UNL     1      -2.837  11.194  16.798  0.00  0.00    +0.000 A 
ATOM     11  C   UNL     1      -4.182  11.009  16.489  0.00  0.00    +0.000 A 
ATOM     12  C   UNL     1      -5.161  11.276  17.451  0.00  0.00    +0.000 A 
ATOM     13  C   UNL     1      -4.806  11.749  18.722  0.00  0.00    +0.000 A 
ATOM     14  C   UNL     1      -3.451  11.951  19.017  0.00  0.00    +0.000 A 
BRANCH  13  15
ATOM     15  C   UNL     1      -5.817  12.016  19.737  0.00  0.00    +0.000 A 
ATOM     16  N   UNL     1      -5.555  11.946  21.087  0.00  0.00    +0.000 NA
ATOM     17  N   UNL     1      -6.691  12.215  21.714  0.00  0.00    +0.000 NA
ATOM     18  N   UNL     1      -7.573  12.427  20.732  0.00  0.00    +0.000 N 
ATOM     19  N   UNL     1      -7.101  12.325  19.481  0.00  0.00    +0.000 NA
ATOM     20  H   UNL     1      -8.546  12.650  20.927  0.00  0.00    +0.000 HD
ENDBRANCH  13  15
ENDBRANCH   7   9
ENDBRANCH   4   7
BRANCH   6  21
ATOM     21  C   UNL     1       0.352   8.393  21.797  0.00  0.00    +0.000 C 
BRANCH  21  22
ATOM     22  C   UNL     1       0.898   9.289  22.870  0.00  0.00    +0.000 C 
ATOM     23  O   UNL     1       0.195   9.910  23.655  0.00  0.00    +0.000 OA
BRANCH  22  24
ATOM     24  O   UNL     1       2.249   9.369  22.871  0.00  0.00    +0.000 OA
ATOM     25  H   UNL     1       2.618   9.520  21.977  0.00  0.00    +0.000 HD
ENDBRANCH  22  24
ENDBRANCH  21  22
ENDBRANCH   6  21
BRANCH   1  26
ATOM     26  O   UNL     1       2.120   7.335  19.850  0.00  0.00    +0.000 OA
BRANCH  26  27
ATOM     27  C   UNL     1       3.243   7.062  18.980  0.00  0.00    +0.000 C 
BRANCH  27  28
ATOM     28  C   UNL     1       2.972   5.853  18.095  0.00  0.00    +0.000 C 
BRANCH  28  29
ATOM     29  C   UNL     1       4.183   5.522  17.212  0.00  0.00    +0.000 C 
BRANCH  29  30
ATOM     30  C   UNL     1       4.174   4.046  16.816  0.00  0.00    +0.000 C 
BRANCH  30  31
ATOM     31  C   UNL     1       3.944   3.133  18.020  0.00  0.00    +0.000 C 
BRANCH  31  32
ATOM     32  C   UNL     1       2.812   2.143  17.743  0.00  0.00    +0.000 C 
BRANCH  32  33
ATOM     33  C   UNL     1       1.985   1.886  19.001  0.00  0.00    +0.000 C 
BRANCH  33  34
ATOM     34  C   UNL     1       1.004   3.029  19.256  0.00  0.00    +0.000 C 
BRANCH  34  36
ATOM     35  C   UNL     1       2.278   4.018  21.186  0.00  0.00    +0.000 C 
ATOM     36  C   UNL     1       0.962   3.404  20.736  0.00  0.00    +0.000 C 
ENDBRANCH  34  36
ENDBRANCH  33  34
ENDBRANCH  32  33
ENDBRANCH  31  32
ENDBRANCH  30  31
ENDBRANCH  29  30
ENDBRANCH  28  29
ENDBRANCH  27  28
ENDBRANCH  26  27
ENDBRANCH   1  26
TORSDOF 16
ENDMDL
MODEL 3
REMARK VINA RESULT:      -7.4      1.133      1.499
REMARK  Name = 
REMARK  17 active torsions:
REMARK  status: ('A' for Active; 'I' for Inactive)
REMARK    1  A    between atoms: C_1  and  C_2
REMARK    2  A    between atoms: C_2  and  C_3
REMARK    3  A    between atoms: C_3  and  C_4
REMARK    4  A    between atoms: C_4  and  C_5
REMARK    5  A    between atoms: C_5  and  C_6
REMARK    6  A    between atoms: C_6  and  C_7
REMARK    7  A    between atoms: C_7  and  C_8
REMARK    8  A    between atoms: C_8  and  C_9
REMARK    9  A    between atoms: C_9  and  C_10
REMARK   10  A    between atoms: C_10  and  O_11
REMARK   11  A    between atoms: O_11  and  C_12
REMARK   12  A    between atoms: C_15  and  C_16
REMARK   13  A    between atoms: C_16  and  C_18
REMARK   14  A    between atoms: C_22  and  C_23
REMARK   15  A    between atoms: C_30  and  C_31
REMARK   16  A    between atoms: C_31  and  C_32
REMARK   17  A    between atoms: C_32  and  O_34
REMARK                            x       y       z     vdW  Elec       q    Type
REMARK                         _______ _______ _______ _____ _____    ______ ____
ROOT
ATOM      1  C   UNL     1       3.099   6.581  18.135  0.00  0.00    +0.000 A 
ATOM      2  C   UNL     1       2.858   7.854  17.598  0.00  0.00    +0.000 A 
ATOM      3  C   UNL     1       2.130   8.804  18.311  0.00  0.00    +0.000 A 
ATOM      4  C   UNL     1       1.605   8.488  19.561  0.00  0.00    +0.000 A 
ATOM      5  C   UNL     1       1.839   7.221  20.108  0.00  0.00    +0.000 A 
ATOM      6  C   UNL     1       2.634   6.280  19.427  0.00  0.00    +0.000 A 
ENDROOT
BRANCH   4   7
ATOM      7  C   UNL     1       0.781   9.521  20.237  0.00  0.00    +0.000 C 
ATOM      8  O   UNL     1       0.631   9.460  21.455  0.00  0.00    +0.000 OA
BRANCH   7   9
ATOM      9  C   UNL     1       0.136  10.624  19.490  0.00  0.00    +0.000 A 
ATOM     10  C   UNL     1       0.738  11.884  19.528  0.00  0.00    +0.000 A 
ATOM     11  C   UNL     1       0.170  12.946  18.829  0.00  0.00    +0.000 A 
ATOM     12  C   UNL     1      -1.002  12.749  18.092  0.00  0.00    +0.000 A 
ATOM     13  C   UNL     1      -1.628  11.494  18.065  0.00  0.00    +0.000 A 
ATOM     14  C   UNL     1      -1.061  10.437  18.788  0.00  0.00    +0.000 A 
BRANCH  13  15
ATOM     15  C   UNL     1      -2.841  11.274  17.289  0.00  0.00    +0.000 A 
ATOM     16  N   UNL     1      -2.839  10.638  16.067  0.00  0.00    +0.000 NA
ATOM     17  N   UNL     1      -4.091  10.636  15.632  0.00  0.00    +0.000 NA
ATOM     18  N   UNL     1      -4.779  11.263  16.591  0.00  0.00    +0.000 N 
ATOM     19  N   UNL     1      -4.070  11.683  17.649  0.00  0.00    +0.000 NA
ATOM     20  H   UNL     1      -5.782  11.415  16.516  0.00  0.00    +0.000 HD
ENDBRANCH  13  15
ENDBRANCH   7   9
ENDBRANCH   4   7
BRANCH   6  21
ATOM     21  C   UNL     1       2.949   4.969  20.108  0.00  0.00    +0.000 C 
BRANCH  21  22
ATOM     22  C   UNL     1       2.127   3.828  19.585  0.00  0.00    +0.000 C 
ATOM     23  O   UNL     1       0.919   3.892  19.403  0.00  0.00    +0.000 OA
BRANCH  22  24
ATOM     24  O   UNL     1       2.846   2.705  19.357  0.00  0.00    +0.000 OA
ATOM     25  H   UNL     1       2.477   2.162  18.630  0.00  0.00    +0.000 HD
ENDBRANCH  22  24
ENDBRANCH  21  22
ENDBRANCH   6  21
BRANCH   1  26
ATOM     26  O   UNL     1       3.733   5.560  17.449  0.00  0.00    +0.000 OA
BRANCH  26  27
ATOM     27  C   UNL     1       5.143   5.476  17.759  0.00  0.00    +0.000 C 
BRANCH  27  28
ATOM     28  C   UNL     1       5.787   4.279  17.074  0.00  0.00    +0.000 C 
BRANCH  28  29
ATOM     29  C   UNL     1       6.942   4.709  16.160  0.00  0.00    +0.000 C 
BRANCH  29  30
ATOM     30  C   UNL     1       6.407   5.310  14.861  0.00  0.00    +0.000 C 
BRANCH  30  31
ATOM     31  C   UNL     1       6.784   4.468  13.643  0.00  0.00    +0.000 C 
BRANCH  31  32
ATOM     32  C   UNL     1       5.567   3.713  13.106  0.00  0.00    +0.000 C 
BRANCH  32  33
ATOM     33  C   UNL     1       5.961   2.773  11.968  0.00  0.00    +0.000 C 
BRANCH  33  34
ATOM     34  C   UNL     1       4.752   2.425  11.100  0.00  0.00    +0.000 C 
BRANCH  34  36
ATOM     35  C   UNL     1       3.186   3.934   9.838  0.00  0.00    +0.000 C 
ATOM     36  C   UNL     1       3.665   3.492  11.211  0.00  0.00    +0.000 C 
ENDBRANCH  34  36
ENDBRANCH  33  34
ENDBRANCH  32  33
ENDBRANCH  31  32
ENDBRANCH  30  31
ENDBRANCH  29  30
ENDBRANCH  28  29
ENDBRANCH  27  28
ENDBRANCH  26  27
ENDBRANCH   1  26
TORSDOF 16
ENDMDL
MODEL 4
REMARK VINA RESULT:      -7.4      4.247      6.455
REMARK  Name = 
REMARK  17 active torsions:
REMARK  status: ('A' for Active; 'I' for Inactive)
REMARK    1  A    between atoms: C_1  and  C_2
REMARK    2  A    between atoms: C_2  and  C_3
REMARK    3  A    between atoms: C_3  and  C_4
REMARK    4  A    between atoms: C_4  and  C_5
REMARK    5  A    between atoms: C_5  and  C_6
REMARK    6  A    between atoms: C_6  and  C_7
REMARK    7  A    between atoms: C_7  and  C_8
REMARK    8  A    between atoms: C_8  and  C_9
REMARK    9  A    between atoms: C_9  and  C_10
REMARK   10  A    between atoms: C_10  and  O_11
REMARK   11  A    between atoms: O_11  and  C_12
REMARK   12  A    between atoms: C_15  and  C_16
REMARK   13  A    between atoms: C_16  and  C_18
REMARK   14  A    between atoms: C_22  and  C_23
REMARK   15  A    between atoms: C_30  and  C_31
REMARK   16  A    between atoms: C_31  and  C_32
REMARK   17  A    between atoms: C_32  and  O_34
REMARK                            x       y       z     vdW  Elec       q    Type
REMARK                         _______ _______ _______ _____ _____    ______ ____
ROOT
ATOM      1  C   UNL     1       1.078   9.021  19.138  0.00  0.00    +0.000 A 
ATOM      2  C   UNL     1       1.563   8.618  20.391  0.00  0.00    +0.000 A 
ATOM      3  C   UNL     1       1.026   9.138  21.566  0.00  0.00    +0.000 A 
ATOM      4  C   UNL     1       0.015  10.093  21.510  0.00  0.00    +0.000 A 
ATOM      5  C   UNL     1      -0.478  10.504  20.266  0.00  0.00    +0.000 A 
ATOM      6  C   UNL     1       0.008   9.931  19.076  0.00  0.00    +0.000 A 
ENDROOT
BRANCH   4   7
ATOM      7  C   UNL     1      -0.465  10.657  22.796  0.00  0.00    +0.000 C 
ATOM      8  O   UNL     1      -0.148  10.102  23.845  0.00  0.00    +0.000 OA
BRANCH   7   9
ATOM      9  C   UNL     1      -1.314  11.868  22.854  0.00  0.00    +0.000 A 
ATOM     10  C   UNL     1      -0.714  13.104  22.597  0.00  0.00    +0.000 A 
ATOM     11  C   UNL     1      -1.479  14.267  22.629  0.00  0.00    +0.000 A 
ATOM     12  C   UNL     1      -2.844  14.195  22.919  0.00  0.00    +0.000 A 
ATOM     13  C   UNL     1      -3.454  12.964  23.201  0.00  0.00    +0.000 A 
ATOM     14  C   UNL     1      -2.672  11.802  23.187  0.00  0.00    +0.000 A 
BRANCH  13  15
ATOM     15  C   UNL     1      -4.879  12.877  23.491  0.00  0.00    +0.000 A 
ATOM     16  N   UNL     1      -5.400  11.993  24.409  0.00  0.00    +0.000 NA
ATOM     17  N   UNL     1      -6.715  12.158  24.400  0.00  0.00    +0.000 NA
ATOM     18  N   UNL     1      -6.925  13.115  23.491  0.00  0.00    +0.000 N 
ATOM     19  N   UNL     1      -5.832  13.610  22.890  0.00  0.00    +0.000 NA
ATOM     20  H   UNL     1      -7.861  13.442  23.267  0.00  0.00    +0.000 HD
ENDBRANCH  13  15
ENDBRANCH   7   9
ENDBRANCH   4   7
BRANCH   6  21
ATOM     21  C   UNL     1      -0.633  10.326  17.767  0.00  0.00    +0.000 C 
BRANCH  21  22
ATOM     22  C   UNL     1      -1.793  11.262  17.944  0.00  0.00    +0.000 C 
ATOM     23  O   UNL     1      -2.876  10.917  18.393  0.00  0.00    +0.000 OA
BRANCH  22  24
ATOM     24  O   UNL     1      -1.535  12.525  17.533  0.00  0.00    +0.000 OA
ATOM     25  H   UNL     1      -0.958  12.554  16.742  0.00  0.00    +0.000 HD
ENDBRANCH  22  24
ENDBRANCH  21  22
ENDBRANCH   6  21
BRANCH   1  26
ATOM     26  O   UNL     1       1.623   8.617  17.932  0.00  0.00    +0.000 OA
BRANCH  26  27
ATOM     27  C   UNL     1       2.835   7.846  18.102  0.00  0.00    +0.000 C 
BRANCH  27  28
ATOM     28  C   UNL     1       2.591   6.369  17.823  0.00  0.00    +0.000 C 
BRANCH  28  29
ATOM     29  C   UNL     1       3.893   5.646  17.454  0.00  0.00    +0.000 C 
BRANCH  29  30
ATOM     30  C   UNL     1       3.811   4.165  17.824  0.00  0.00    +0.000 C 
BRANCH  30  31
ATOM     31  C   UNL     1       2.538   3.512  17.286  0.00  0.00    +0.000 C 
BRANCH  31  32
ATOM     32  C   UNL     1       2.088   2.367  18.194  0.00  0.00    +0.000 C 
BRANCH  32  33
ATOM     33  C   UNL     1       2.873   2.363  19.505  0.00  0.00    +0.000 C 
BRANCH  33  34
ATOM     34  C   UNL     1       1.950   2.608  20.698  0.00  0.00    +0.000 C 
BRANCH  34  36
ATOM     35  C   UNL     1       1.452   5.073  20.743  0.00  0.00    +0.000 C 
ATOM     36  C   UNL     1       0.921   3.694  20.389  0.00  0.00    +0.000 C 
ENDBRANCH  34  36
ENDBRANCH  33  34
ENDBRANCH  32  33
ENDBRANCH  31  32
ENDBRANCH  30  31
ENDBRANCH  29  30
ENDBRANCH  28  29
ENDBRANCH  27  28
ENDBRANCH  26  27
ENDBRANCH   1  26
TORSDOF 16
ENDMDL
MODEL 5
REMARK VINA RESULT:      -7.4      3.152      5.181
REMARK  Name = 
REMARK  17 active torsions:
REMARK  status: ('A' for Active; 'I' for Inactive)
REMARK    1  A    between atoms: C_1  and  C_2
REMARK    2  A    between atoms: C_2  and  C_3
REMARK    3  A    between atoms: C_3  and  C_4
REMARK    4  A    between atoms: C_4  and  C_5
REMARK    5  A    between atoms: C_5  and  C_6
REMARK    6  A    between atoms: C_6  and  C_7
REMARK    7  A    between atoms: C_7  and  C_8
REMARK    8  A    between atoms: C_8  and  C_9
REMARK    9  A    between atoms: C_9  and  C_10
REMARK   10  A    between atoms: C_10  and  O_11
REMARK   11  A    between atoms: O_11  and  C_12
REMARK   12  A    between atoms: C_15  and  C_16
REMARK   13  A    between atoms: C_16  and  C_18
REMARK   14  A    between atoms: C_22  and  C_23
REMARK   15  A    between atoms: C_30  and  C_31
REMARK   16  A    between atoms: C_31  and  C_32
REMARK   17  A    between atoms: C_32  and  O_34
REMARK                            x       y       z     vdW  Elec       q    Type
REMARK                         _______ _______ _______ _____ _____    ______ ____
ROOT
ATOM      1  C   UNL     1       1.508   8.507  19.737  0.00  0.00    +0.000 A 
ATOM      2  C   UNL     1       1.375   8.780  18.368  0.00  0.00    +0.000 A 
ATOM      3  C   UNL     1       0.624   9.866  17.925  0.00  0.00    +0.000 A 
ATOM      4  C   UNL     1      -0.031  10.683  18.843  0.00  0.00    +0.000 A 
ATOM      5  C   UNL     1       0.094  10.422  20.212  0.00  0.00    +0.000 A 
ATOM      6  C   UNL     1       0.909   9.370  20.671  0.00  0.00    +0.000 A 
ENDROOT
BRANCH   4   7
ATOM      7  C   UNL     1      -0.869  11.782  18.303  0.00  0.00    +0.000 C 
ATOM      8  O   UNL     1      -0.371  12.896  18.159  0.00  0.00    +0.000 OA
BRANCH   7   9
ATOM      9  C   UNL     1      -2.288  11.578  17.931  0.00  0.00    +0.000 A 
ATOM     10  C   UNL     1      -2.579  11.250  16.605  0.00  0.00    +0.000 A 
ATOM     11  C   UNL     1      -3.899  11.037  16.216  0.00  0.00    +0.000 A 
ATOM     12  C   UNL     1      -4.929  11.154  17.153  0.00  0.00    +0.000 A 
ATOM     13  C   UNL     1      -4.652  11.506  18.482  0.00  0.00    +0.000 A 
ATOM     14  C   UNL     1      -3.323  11.738  18.860  0.00  0.00    +0.000 A 
BRANCH  13  15
ATOM     15  C   UNL     1      -5.717  11.616  19.470  0.00  0.00    +0.000 A 
ATOM     16  N   UNL     1      -5.487  11.990  20.776  0.00  0.00    +0.000 NA
ATOM     17  N   UNL     1      -6.656  11.959  21.398  0.00  0.00    +0.000 NA
ATOM     18  N   UNL     1      -7.524  11.570  20.458  0.00  0.00    +0.000 N 
ATOM     19  N   UNL     1      -7.013  11.343  19.239  0.00  0.00    +0.000 NA
ATOM     20  H   UNL     1      -8.513  11.450  20.662  0.00  0.00    +0.000 HD
ENDBRANCH  13  15
ENDBRANCH   7   9
ENDBRANCH   4   7
BRANCH   6  21
ATOM     21  C   UNL     1       1.100   9.198  22.159  0.00  0.00    +0.000 C 
BRANCH  21  22
ATOM     22  C   UNL     1      -0.137   9.516  22.947  0.00  0.00    +0.000 C 
ATOM     23  O   UNL     1      -0.315  10.578  23.526  0.00  0.00    +0.000 OA
BRANCH  22  24
ATOM     24  O   UNL     1      -1.032   8.501  22.980  0.00  0.00    +0.000 OA
ATOM     25  H   UNL     1      -1.545   8.424  22.150  0.00  0.00    +0.000 HD
ENDBRANCH  22  24
ENDBRANCH  21  22
ENDBRANCH   6  21
BRANCH   1  26
ATOM     26  O   UNL     1       2.160   7.396  20.243  0.00  0.00    +0.000 OA
BRANCH  26  27
ATOM     27  C   UNL     1       2.686   6.540  19.204  0.00  0.00    +0.000 C 
BRANCH  27  28
ATOM     28  C   UNL     1       3.756   5.605  19.750  0.00  0.00    +0.000 C 
BRANCH  28  29
ATOM     29  C   UNL     1       3.675   4.218  19.099  0.00  0.00    +0.000 C 
BRANCH  29  30
ATOM     30  C   UNL     1       2.658   4.217  17.958  0.00  0.00    +0.000 C 
BRANCH  30  31
ATOM     31  C   UNL     1       3.319   3.961  16.603  0.00  0.00    +0.000 C 
BRANCH  31  32
ATOM     32  C   UNL     1       4.821   3.728  16.767  0.00  0.00    +0.000 C 
BRANCH  32  33
ATOM     33  C   UNL     1       5.627   4.718  15.927  0.00  0.00    +0.000 C 
BRANCH  33  34
ATOM     34  C   UNL     1       5.084   6.138  16.080  0.00  0.00    +0.000 C 
BRANCH  34  36
ATOM     35  C   UNL     1       7.272   6.312  17.307  0.00  0.00    +0.000 C 
ATOM     36  C   UNL     1       5.904   6.939  17.089  0.00  0.00    +0.000 C 
ENDBRANCH  34  36
ENDBRANCH  33  34
ENDBRANCH  32  33
ENDBRANCH  31  32
ENDBRANCH  30  31
ENDBRANCH  29  30
ENDBRANCH  28  29
ENDBRANCH  27  28
ENDBRANCH  26  27
ENDBRANCH   1  26
TORSDOF 16
ENDMDL
MODEL 6
REMARK VINA RESULT:      -7.4      3.687      5.566
REMARK  Name = 
REMARK  17 active torsions:
REMARK  status: ('A' for Active; 'I' for Inactive)
REMARK    1  A    between atoms: C_1  and  C_2
REMARK    2  A    between atoms: C_2  and  C_3
REMARK    3  A    between atoms: C_3  and  C_4
REMARK    4  A    between atoms: C_4  and  C_5
REMARK    5  A    between atoms: C_5  and  C_6
REMARK    6  A    between atoms: C_6  and  C_7
REMARK    7  A    between atoms: C_7  and  C_8
REMARK    8  A    between atoms: C_8  and  C_9
REMARK    9  A    between atoms: C_9  and  C_10
REMARK   10  A    between atoms: C_10  and  O_11
REMARK   11  A    between atoms: O_11  and  C_12
REMARK   12  A    between atoms: C_15  and  C_16
REMARK   13  A    between atoms: C_16  and  C_18
REMARK   14  A    between atoms: C_22  and  C_23
REMARK   15  A    between atoms: C_30  and  C_31
REMARK   16  A    between atoms: C_31  and  C_32
REMARK   17  A    between atoms: C_32  and  O_34
REMARK                            x       y       z     vdW  Elec       q    Type
REMARK                         _______ _______ _______ _____ _____    ______ ____
ROOT
ATOM      1  C   UNL     1       1.472   8.795  19.335  0.00  0.00    +0.000 A 
ATOM      2  C   UNL     1       1.192   9.193  18.019  0.00  0.00    +0.000 A 
ATOM      3  C   UNL     1       0.344  10.269  17.764  0.00  0.00    +0.000 A 
ATOM      4  C   UNL     1      -0.260  10.947  18.819  0.00  0.00    +0.000 A 
ATOM      5  C   UNL     1       0.012  10.560  20.136  0.00  0.00    +0.000 A 
ATOM      6  C   UNL     1       0.922   9.521  20.405  0.00  0.00    +0.000 A 
ENDROOT
BRANCH   4   7
ATOM      7  C   UNL     1      -1.205  12.040  18.477  0.00  0.00    +0.000 C 
ATOM      8  O   UNL     1      -0.781  13.189  18.386  0.00  0.00    +0.000 OA
BRANCH   7   9
ATOM      9  C   UNL     1      -2.645  11.787  18.240  0.00  0.00    +0.000 A 
ATOM     10  C   UNL     1      -3.026  11.275  16.997  0.00  0.00    +0.000 A 
ATOM     11  C   UNL     1      -4.368  11.011  16.737  0.00  0.00    +0.000 A 
ATOM     12  C   UNL     1      -5.331  11.262  17.720  0.00  0.00    +0.000 A 
ATOM     13  C   UNL     1      -4.964  11.797  18.963  0.00  0.00    +0.000 A 
ATOM     14  C   UNL     1      -3.613  12.078  19.208  0.00  0.00    +0.000 A 
BRANCH  13  15
ATOM     15  C   UNL     1      -5.957  12.048  19.999  0.00  0.00    +0.000 A 
ATOM     16  N   UNL     1      -6.485  11.047  20.784  0.00  0.00    +0.000 NA
ATOM     17  N   UNL     1      -7.369  11.616  21.590  0.00  0.00    +0.000 NA
ATOM     18  N   UNL     1      -7.340  12.910  21.259  0.00  0.00    +0.000 N 
ATOM     19  N   UNL     1      -6.485  13.252  20.283  0.00  0.00    +0.000 NA
ATOM     20  H   UNL     1      -7.936  13.593  21.720  0.00  0.00    +0.000 HD
ENDBRANCH  13  15
ENDBRANCH   7   9
ENDBRANCH   4   7
BRANCH   6  21
ATOM     21  C   UNL     1       1.267   9.214  21.843  0.00  0.00    +0.000 C 
BRANCH  21  22
ATOM     22  C   UNL     1       0.054   9.019  22.705  0.00  0.00    +0.000 C 
ATOM     23  O   UNL     1      -0.901   8.328  22.382  0.00  0.00    +0.000 OA
BRANCH  22  24
ATOM     24  O   UNL     1       0.104   9.706  23.870  0.00  0.00    +0.000 OA
ATOM     25  H   UNL     1       0.775   9.351  24.489  0.00  0.00    +0.000 HD
ENDBRANCH  22  24
ENDBRANCH  21  22
ENDBRANCH   6  21
BRANCH   1  26
ATOM     26  O   UNL     1       2.229   7.683  19.660  0.00  0.00    +0.000 OA
BRANCH  26  27
ATOM     27  C   UNL     1       2.425   6.796  18.534  0.00  0.00    +0.000 C 
BRANCH  27  28
ATOM     28  C   UNL     1       3.716   7.119  17.796  0.00  0.00    +0.000 C 
BRANCH  28  29
ATOM     29  C   UNL     1       4.774   6.029  18.014  0.00  0.00    +0.000 C 
BRANCH  29  30
ATOM     30  C   UNL     1       4.367   5.104  19.160  0.00  0.00    +0.000 C 
BRANCH  30  31
ATOM     31  C   UNL     1       4.563   3.631  18.803  0.00  0.00    +0.000 C 
BRANCH  31  32
ATOM     32  C   UNL     1       4.010   3.330  17.410  0.00  0.00    +0.000 C 
BRANCH  32  33
ATOM     33  C   UNL     1       2.486   3.212  17.435  0.00  0.00    +0.000 C 
BRANCH  33  34
ATOM     34  C   UNL     1       2.029   2.239  18.520  0.00  0.00    +0.000 C 
BRANCH  34  36
ATOM     35  C   UNL     1       1.037   3.781  20.241  0.00  0.00    +0.000 C 
ATOM     36  C   UNL     1       0.745   2.721  19.191  0.00  0.00    +0.000 C 
ENDBRANCH  34  36
ENDBRANCH  33  34
ENDBRANCH  32  33
ENDBRANCH  31  32
ENDBRANCH  30  31
ENDBRANCH  29  30
ENDBRANCH  28  29
ENDBRANCH  27  28
ENDBRANCH  26  27
ENDBRANCH   1  26
TORSDOF 16
ENDMDL
MODEL 7
REMARK VINA RESULT:      -7.4      3.060      4.679
REMARK  Name = 
REMARK  17 active torsions:
REMARK  status: ('A' for Active; 'I' for Inactive)
REMARK    1  A    between atoms: C_1  and  C_2
REMARK    2  A    between atoms: C_2  and  C_3
REMARK    3  A    between atoms: C_3  and  C_4
REMARK    4  A    between atoms: C_4  and  C_5
REMARK    5  A    between atoms: C_5  and  C_6
REMARK    6  A    between atoms: C_6  and  C_7
REMARK    7  A    between atoms: C_7  and  C_8
REMARK    8  A    between atoms: C_8  and  C_9
REMARK    9  A    between atoms: C_9  and  C_10
REMARK   10  A    between atoms: C_10  and  O_11
REMARK   11  A    between atoms: O_11  and  C_12
REMARK   12  A    between atoms: C_15  and  C_16
REMARK   13  A    between atoms: C_16  and  C_18
REMARK   14  A    between atoms: C_22  and  C_23
REMARK   15  A    between atoms: C_30  and  C_31
REMARK   16  A    between atoms: C_31  and  C_32
REMARK   17  A    between atoms: C_32  and  O_34
REMARK                            x       y       z     vdW  Elec       q    Type
REMARK                         _______ _______ _______ _____ _____    ______ ____
ROOT
ATOM      1  C   UNL     1       3.066   5.794  18.286  0.00  0.00    +0.000 A 
ATOM      2  C   UNL     1       2.874   7.122  17.880  0.00  0.00    +0.000 A 
ATOM      3  C   UNL     1       2.306   8.058  18.741  0.00  0.00    +0.000 A 
ATOM      4  C   UNL     1       1.894   7.675  20.015  0.00  0.00    +0.000 A 
ATOM      5  C   UNL     1       2.081   6.352  20.433  0.00  0.00    +0.000 A 
ATOM      6  C   UNL     1       2.719   5.418  19.595  0.00  0.00    +0.000 A 
ENDROOT
BRANCH   4   7
ATOM      7  C   UNL     1       1.235   8.703  20.858  0.00  0.00    +0.000 C 
ATOM      8  O   UNL     1       1.235   8.563  22.078  0.00  0.00    +0.000 OA
BRANCH   7   9
ATOM      9  C   UNL     1       0.578   9.894  20.274  0.00  0.00    +0.000 A 
ATOM     10  C   UNL     1       0.886  11.146  20.813  0.00  0.00    +0.000 A 
ATOM     11  C   UNL     1       0.300  12.293  20.285  0.00  0.00    +0.000 A 
ATOM     12  C   UNL     1      -0.597  12.189  19.218  0.00  0.00    +0.000 A 
ATOM     13  C   UNL     1      -0.933  10.937  18.682  0.00  0.00    +0.000 A 
ATOM     14  C   UNL     1      -0.353   9.787  19.234  0.00  0.00    +0.000 A 
BRANCH  13  15
ATOM     15  C   UNL     1      -1.855  10.819  17.561  0.00  0.00    +0.000 A 
ATOM     16  N   UNL     1      -2.322   9.606  17.105  0.00  0.00    +0.000 NA
ATOM     17  N   UNL     1      -3.107   9.861  16.068  0.00  0.00    +0.000 NA
ATOM     18  N   UNL     1      -3.076  11.192  15.945  0.00  0.00    +0.000 N 
ATOM     19  N   UNL     1      -2.324  11.851  16.838  0.00  0.00    +0.000 NA
ATOM     20  H   UNL     1      -3.592  11.672  15.212  0.00  0.00    +0.000 HD
ENDBRANCH  13  15
ENDBRANCH   7   9
ENDBRANCH   4   7
BRANCH   6  21
ATOM     21  C   UNL     1       2.998   4.035  20.133  0.00  0.00    +0.000 C 
BRANCH  21  22
ATOM     22  C   UNL     1       1.804   3.418  20.803  0.00  0.00    +0.000 C 
ATOM     23  O   UNL     1       0.766   3.146  20.218  0.00  0.00    +0.000 OA
BRANCH  22  24
ATOM     24  O   UNL     1       1.976   3.213  22.130  0.00  0.00    +0.000 OA
ATOM     25  H   UNL     1       2.875   2.893  22.348  0.00  0.00    +0.000 HD
ENDBRANCH  22  24
ENDBRANCH  21  22
ENDBRANCH   6  21
BRANCH   1  26
ATOM     26  O   UNL     1       3.538   4.793  17.455  0.00  0.00    +0.000 OA
BRANCH  26  27
ATOM     27  C   UNL     1       4.983   4.752  17.401  0.00  0.00    +0.000 C 
BRANCH  27  28
ATOM     28  C   UNL     1       5.517   5.639  16.285  0.00  0.00    +0.000 C 
BRANCH  28  29
ATOM     29  C   UNL     1       6.417   6.753  16.836  0.00  0.00    +0.000 C 
BRANCH  29  30
ATOM     30  C   UNL     1       7.353   6.206  17.913  0.00  0.00    +0.000 C 
BRANCH  30  31
ATOM     31  C   UNL     1       8.177   7.313  18.570  0.00  0.00    +0.000 C 
BRANCH  31  32
ATOM     32  C   UNL     1       8.058   8.620  17.784  0.00  0.00    +0.000 C 
BRANCH  32  33
ATOM     33  C   UNL     1       8.837   9.745  18.464  0.00  0.00    +0.000 C 
BRANCH  33  34
ATOM     34  C   UNL     1       8.425  11.109  17.913  0.00  0.00    +0.000 C 
BRANCH  34  36
ATOM     35  C   UNL     1      10.889  11.418  18.305  0.00  0.00    +0.000 C 
ATOM     36  C   UNL     1       9.571  12.114  18.007  0.00  0.00    +0.000 C 
ENDBRANCH  34  36
ENDBRANCH  33  34
ENDBRANCH  32  33
ENDBRANCH  31  32
ENDBRANCH  30  31
ENDBRANCH  29  30
ENDBRANCH  28  29
ENDBRANCH  27  28
ENDBRANCH  26  27
ENDBRANCH   1  26
TORSDOF 16
ENDMDL
MODEL 8
REMARK VINA RESULT:      -7.3      3.176      4.910
REMARK  Name = 
REMARK  17 active torsions:
REMARK  status: ('A' for Active; 'I' for Inactive)
REMARK    1  A    between atoms: C_1  and  C_2
REMARK    2  A    between atoms: C_2  and  C_3
REMARK    3  A    between atoms: C_3  and  C_4
REMARK    4  A    between atoms: C_4  and  C_5
REMARK    5  A    between atoms: C_5  and  C_6
REMARK    6  A    between atoms: C_6  and  C_7
REMARK    7  A    between atoms: C_7  and  C_8
REMARK    8  A    between atoms: C_8  and  C_9
REMARK    9  A    between atoms: C_9  and  C_10
REMARK   10  A    between atoms: C_10  and  O_11
REMARK   11  A    between atoms: O_11  and  C_12
REMARK   12  A    between atoms: C_15  and  C_16
REMARK   13  A    between atoms: C_16  and  C_18
REMARK   14  A    between atoms: C_22  and  C_23
REMARK   15  A    between atoms: C_30  and  C_31
REMARK   16  A    between atoms: C_31  and  C_32
REMARK   17  A    between atoms: C_32  and  O_34
REMARK                            x       y       z     vdW  Elec       q    Type
REMARK                         _______ _______ _______ _____ _____    ______ ____
ROOT
ATOM      1  C   UNL     1       3.201   6.024  18.121  0.00  0.00    +0.000 A 
ATOM      2  C   UNL     1       3.100   7.373  17.748  0.00  0.00    +0.000 A 
ATOM      3  C   UNL     1       2.423   8.287  18.552  0.00  0.00    +0.000 A 
ATOM      4  C   UNL     1       1.812   7.865  19.729  0.00  0.00    +0.000 A 
ATOM      5  C   UNL     1       1.906   6.521  20.113  0.00  0.00    +0.000 A 
ATOM      6  C   UNL     1       2.648   5.605  19.344  0.00  0.00    +0.000 A 
ENDROOT
BRANCH   4   7
ATOM      7  C   UNL     1       1.049   8.875  20.505  0.00  0.00    +0.000 C 
ATOM      8  O   UNL     1       0.879   8.698  21.708  0.00  0.00    +0.000 OA
BRANCH   7   9
ATOM      9  C   UNL     1       0.489  10.091  19.873  0.00  0.00    +0.000 A 
ATOM     10  C   UNL     1       1.141  11.307  20.095  0.00  0.00    +0.000 A 
ATOM     11  C   UNL     1       0.654  12.472  19.509  0.00  0.00    +0.000 A 
ATOM     12  C   UNL     1      -0.486  12.423  18.702  0.00  0.00    +0.000 A 
ATOM     13  C   UNL     1      -1.162  11.213  18.490  0.00  0.00    +0.000 A 
ATOM     14  C   UNL     1      -0.677  10.049  19.100  0.00  0.00    +0.000 A 
BRANCH  13  15
ATOM     15  C   UNL     1      -2.343  11.149  17.639  0.00  0.00    +0.000 A 
ATOM     16  N   UNL     1      -2.299  10.705  16.336  0.00  0.00    +0.000 NA
ATOM     17  N   UNL     1      -3.529  10.806  15.853  0.00  0.00    +0.000 NA
ATOM     18  N   UNL     1      -4.247  11.300  16.867  0.00  0.00    +0.000 N 
ATOM     19  N   UNL     1      -3.578  11.534  18.006  0.00  0.00    +0.000 NA
ATOM     20  H   UNL     1      -5.241  11.491  16.774  0.00  0.00    +0.000 HD
ENDBRANCH  13  15
ENDBRANCH   7   9
ENDBRANCH   4   7
BRANCH   6  21
ATOM     21  C   UNL     1       2.812   4.195  19.856  0.00  0.00    +0.000 C 
BRANCH  21  22
ATOM     22  C   UNL     1       1.819   3.843  20.925  0.00  0.00    +0.000 C 
ATOM     23  O   UNL     1       2.119   3.679  22.099  0.00  0.00    +0.000 OA
BRANCH  22  24
ATOM     24  O   UNL     1       0.556   3.696  20.461  0.00  0.00    +0.000 OA
ATOM     25  H   UNL     1       0.075   4.547  20.403  0.00  0.00    +0.000 HD
ENDBRANCH  22  24
ENDBRANCH  21  22
ENDBRANCH   6  21
BRANCH   1  26
ATOM     26  O   UNL     1       3.777   5.046  17.330  0.00  0.00    +0.000 OA
BRANCH  26  27
ATOM     27  C   UNL     1       5.157   5.333  17.009  0.00  0.00    +0.000 C 
BRANCH  27  28
ATOM     28  C   UNL     1       6.063   5.093  18.209  0.00  0.00    +0.000 C 
BRANCH  28  29
ATOM     29  C   UNL     1       7.520   5.452  17.892  0.00  0.00    +0.000 C 
BRANCH  29  30
ATOM     30  C   UNL     1       7.874   6.825  18.464  0.00  0.00    +0.000 C 
BRANCH  30  31
ATOM     31  C   UNL     1       7.837   7.916  17.395  0.00  0.00    +0.000 C 
BRANCH  31  32
ATOM     32  C   UNL     1       7.759   9.302  18.035  0.00  0.00    +0.000 C 
BRANCH  32  33
ATOM     33  C   UNL     1       9.150   9.910  18.205  0.00  0.00    +0.000 C 
BRANCH  33  34
ATOM     34  C   UNL     1       9.339  10.466  19.616  0.00  0.00    +0.000 C 
BRANCH  34  36
ATOM     35  C   UNL     1      10.238  12.468  18.389  0.00  0.00    +0.000 C 
ATOM     36  C   UNL     1       9.455  11.989  19.600  0.00  0.00    +0.000 C 
ENDBRANCH  34  36
ENDBRANCH  33  34
ENDBRANCH  32  33
ENDBRANCH  31  32
ENDBRANCH  30  31
ENDBRANCH  29  30
ENDBRANCH  28  29
ENDBRANCH  27  28
ENDBRANCH  26  27
ENDBRANCH   1  26
TORSDOF 16
ENDMDL
MODEL 9
REMARK VINA RESULT:      -7.3      3.040      4.882
REMARK  Name = 
REMARK  17 active torsions:
REMARK  status: ('A' for Active; 'I' for Inactive)
REMARK    1  A    between atoms: C_1  and  C_2
REMARK    2  A    between atoms: C_2  and  C_3
REMARK    3  A    between atoms: C_3  and  C_4
REMARK    4  A    between atoms: C_4  and  C_5
REMARK    5  A    between atoms: C_5  and  C_6
REMARK    6  A    between atoms: C_6  and  C_7
REMARK    7  A    between atoms: C_7  and  C_8
REMARK    8  A    between atoms: C_8  and  C_9
REMARK    9  A    between atoms: C_9  and  C_10
REMARK   10  A    between atoms: C_10  and  O_11
REMARK   11  A    between atoms: O_11  and  C_12
REMARK   12  A    between atoms: C_15  and  C_16
REMARK   13  A    between atoms: C_16  and  C_18
REMARK   14  A    between atoms: C_22  and  C_23
REMARK   15  A    between atoms: C_30  and  C_31
REMARK   16  A    between atoms: C_31  and  C_32
REMARK   17  A    between atoms: C_32  and  O_34
REMARK                            x       y       z     vdW  Elec       q    Type
REMARK                         _______ _______ _______ _____ _____    ______ ____
ROOT
ATOM      1  C   UNL     1       2.895   6.123  18.568  0.00  0.00    +0.000 A 
ATOM      2  C   UNL     1       2.791   7.423  18.053  0.00  0.00    +0.000 A 
ATOM      3  C   UNL     1       2.122   8.420  18.761  0.00  0.00    +0.000 A 
ATOM      4  C   UNL     1       1.522   8.127  19.982  0.00  0.00    +0.000 A 
ATOM      5  C   UNL     1       1.620   6.833  20.507  0.00  0.00    +0.000 A 
ATOM      6  C   UNL     1       2.354   5.838  19.834  0.00  0.00    +0.000 A 
ENDROOT
BRANCH   4   7
ATOM      7  C   UNL     1       0.768   9.216  20.652  0.00  0.00    +0.000 C 
ATOM      8  O   UNL     1       0.558   9.140  21.860  0.00  0.00    +0.000 OA
BRANCH   7   9
ATOM      9  C   UNL     1       0.260  10.391  19.909  0.00  0.00    +0.000 A 
ATOM     10  C   UNL     1       0.931  11.607  20.065  0.00  0.00    +0.000 A 
ATOM     11  C   UNL     1       0.494  12.735  19.375  0.00  0.00    +0.000 A 
ATOM     12  C   UNL     1      -0.615  12.648  18.529  0.00  0.00    +0.000 A 
ATOM     13  C   UNL     1      -1.310  11.439  18.381  0.00  0.00    +0.000 A 
ATOM     14  C   UNL     1      -0.876  10.315  19.095  0.00  0.00    +0.000 A 
BRANCH  13  15
ATOM     15  C   UNL     1      -2.459  11.334  17.490  0.00  0.00    +0.000 A 
ATOM     16  N   UNL     1      -3.741  11.640  17.888  0.00  0.00    +0.000 NA
ATOM     17  N   UNL     1      -4.532  11.407  16.851  0.00  0.00    +0.000 NA
ATOM     18  N   UNL     1      -3.708  10.975  15.892  0.00  0.00    +0.000 N 
ATOM     19  N   UNL     1      -2.408  10.908  16.216  0.00  0.00    +0.000 NA
ATOM     20  H   UNL     1      -4.051  10.709  14.973  0.00  0.00    +0.000 HD
ENDBRANCH  13  15
ENDBRANCH   7   9
ENDBRANCH   4   7
BRANCH   6  21
ATOM     21  C   UNL     1       2.524   4.491  20.495  0.00  0.00    +0.000 C 
BRANCH  21  22
ATOM     22  C   UNL     1       1.373   3.564  20.233  0.00  0.00    +0.000 C 
ATOM     23  O   UNL     1       0.913   3.355  19.120  0.00  0.00    +0.000 OA
BRANCH  22  24
ATOM     24  O   UNL     1       0.871   2.997  21.355  0.00  0.00    +0.000 OA
ATOM     25  H   UNL     1       1.550   2.868  22.048  0.00  0.00    +0.000 HD
ENDBRANCH  22  24
ENDBRANCH  21  22
ENDBRANCH   6  21
BRANCH   1  26
ATOM     26  O   UNL     1       3.463   5.064  17.882  0.00  0.00    +0.000 OA
BRANCH  26  27
ATOM     27  C   UNL     1       4.905   5.043  17.988  0.00  0.00    +0.000 C 
BRANCH  27  28
ATOM     28  C   UNL     1       5.554   4.798  16.633  0.00  0.00    +0.000 C 
BRANCH  28  29
ATOM     29  C   UNL     1       6.547   5.911  16.277  0.00  0.00    +0.000 C 
BRANCH  29  30
ATOM     30  C   UNL     1       6.902   6.733  17.515  0.00  0.00    +0.000 C 
BRANCH  30  31
ATOM     31  C   UNL     1       7.857   7.881  17.186  0.00  0.00    +0.000 C 
BRANCH  31  32
ATOM     32  C   UNL     1       8.269   8.627  18.455  0.00  0.00    +0.000 C 
BRANCH  32  33
ATOM     33  C   UNL     1       8.503  10.110  18.171  0.00  0.00    +0.000 C 
BRANCH  33  34
ATOM     34  C   UNL     1       9.737  10.623  18.912  0.00  0.00    +0.000 C 
BRANCH  34  36
ATOM     35  C   UNL     1       9.267  12.170  20.837  0.00  0.00    +0.000 C 
ATOM     36  C   UNL     1       9.479  10.726  20.413  0.00  0.00    +0.000 C 
ENDBRANCH  34  36
ENDBRANCH  33  34
ENDBRANCH  32  33
ENDBRANCH  31  32
ENDBRANCH  30  31
ENDBRANCH  29  30
ENDBRANCH  28  29
ENDBRANCH  27  28
ENDBRANCH  26  27
ENDBRANCH   1  26
TORSDOF 16
ENDMDL
