MODEL 1
REMARK VINA RESULT:      -8.6      0.000      0.000
REMARK  Name = 
REMARK  8 active torsions:
REMARK  status: ('A' for Active; 'I' for Inactive)
REMARK    1  A    between atoms: C_1  and  C_2
REMARK    2  A    between atoms: C_4  and  C_5
REMARK    3  A    between atoms: C_5  and  C_6
REMARK    4  A    between atoms: N_8  and  C_9
REMARK    5  A    between atoms: C_12  and  C_13
REMARK    6  A    between atoms: C_13  and  C_14
REMARK    7  A    between atoms: C_14  and  N_15
REMARK    8  A    between atoms: C_18  and  C_19
REMARK                            x       y       z     vdW  Elec       q    Type
REMARK                         _______ _______ _______ _____ _____    ______ ____
ROOT
ATOM      1  C   UNL     1       4.278   6.927  18.122  0.00  0.00    +0.000 C 
ATOM      2  C   UNL     1       3.545   7.696  17.025  0.00  0.00    +0.000 C 
ATOM      3  C   UNL     1       2.604   8.708  17.667  0.00  0.00    +0.000 C 
ATOM      4  C   UNL     1       1.627   8.069  18.674  0.00  0.00    +0.000 C 
ATOM      5  C   UNL     1       2.309   7.078  19.638  0.00  0.00    +0.000 C 
ATOM      6  C   UNL     1       3.264   6.119  18.928  0.00  0.00    +0.000 C 
ENDROOT
BRANCH   1   9
ATOM      7  C   UNL     1       6.198   5.435  18.447  0.00  0.00    +0.000 C 
ATOM      8  O   UNL     1       6.103   5.502  19.672  0.00  0.00    +0.000 OA
ATOM      9  N   UNL     1       5.343   6.103  17.589  0.00  0.00    +0.000 N 
ATOM     10  H   UNL     1       5.335   5.867  16.604  0.00  0.00    +0.000 HD
BRANCH   7  11
ATOM     11  C   UNL     1       7.301   4.649  17.770  0.00  0.00    +0.000 C 
BRANCH  11  15
ATOM     12  C   UNL     1       6.045   3.770  12.904  0.00  0.00    +0.000 C 
ATOM     13  C   UNL     1       6.576   4.269  14.190  0.00  0.00    +0.000 A 
ATOM     14  C   UNL     1       6.356   3.750  15.483  0.00  0.00    +0.000 A 
ATOM     15  C   UNL     1       7.063   4.588  16.312  0.00  0.00    +0.000 A 
ATOM     16  O   UNL     1       7.678   5.541  15.561  0.00  0.00    +0.000 OA
ATOM     17  N   UNL     1       7.375   5.342  14.226  0.00  0.00    +0.000 NA
ENDBRANCH  11  15
ENDBRANCH   7  11
ENDBRANCH   1   9
BRANCH   4  18
ATOM     18  C   UNL     1       0.913   9.152  19.506  0.00  0.00    +0.000 C 
BRANCH  18  19
ATOM     19  C   UNL     1       1.191   9.081  21.010  0.00  0.00    +0.000 C 
BRANCH  19  20
ATOM     20  N   UNL     1       0.853  10.318  21.745  0.00  0.00    +0.000 NA
ATOM     21  C   UNL     1       0.984  11.495  20.873  0.00  0.00    +0.000 C 
ATOM     22  C   UNL     1       0.371  12.779  21.429  0.00  0.00    +0.000 C 
ATOM     23  C   UNL     1      -1.062  12.585  21.930  0.00  0.00    +0.000 C 
ATOM     24  C   UNL     1      -1.058  11.438  22.945  0.00  0.00    +0.000 C 
ATOM     25  C   UNL     1      -0.465  10.151  22.375  0.00  0.00    +0.000 C 
BRANCH  23  26
ATOM     26  C   UNL     1      -2.080  12.416  20.822  0.00  0.00    +0.000 A 
ATOM     27  C   UNL     1      -1.848  12.118  19.490  0.00  0.00    +0.000 A 
ATOM     28  O   UNL     1      -2.992  12.051  18.776  0.00  0.00    +0.000 OA
ATOM     29  C   UNL     1      -4.006  12.303  19.638  0.00  0.00    +0.000 A 
ATOM     30  C   UNL     1      -5.351  12.330  19.285  0.00  0.00    +0.000 A 
ATOM     31  C   UNL     1      -6.256  12.604  20.311  0.00  0.00    +0.000 A 
ATOM     32  C   UNL     1      -5.813  12.836  21.616  0.00  0.00    +0.000 A 
ATOM     33  C   UNL     1      -4.445  12.806  21.937  0.00  0.00    +0.000 A 
ATOM     34  C   UNL     1      -3.512  12.532  20.919  0.00  0.00    +0.000 A 
ENDBRANCH  23  26
ENDBRANCH  19  20
ENDBRANCH  18  19
ENDBRANCH   4  18
TORSDOF 7
ENDMDL
MODEL 2
REMARK VINA RESULT:      -8.4      1.271      1.579
REMARK  Name = 
REMARK  8 active torsions:
REMARK  status: ('A' for Active; 'I' for Inactive)
REMARK    1  A    between atoms: C_1  and  C_2
REMARK    2  A    between atoms: C_4  and  C_5
REMARK    3  A    between atoms: C_5  and  C_6
REMARK    4  A    between atoms: N_8  and  C_9
REMARK    5  A    between atoms: C_12  and  C_13
REMARK    6  A    between atoms: C_13  and  C_14
REMARK    7  A    between atoms: C_14  and  N_15
REMARK    8  A    between atoms: C_18  and  C_19
REMARK                            x       y       z     vdW  Elec       q    Type
REMARK                         _______ _______ _______ _____ _____    ______ ____
ROOT
ATOM      1  C   UNL     1       4.227   6.422  18.500  0.00  0.00    +0.000 C 
ATOM      2  C   UNL     1       3.529   7.172  17.368  0.00  0.00    +0.000 C 
ATOM      3  C   UNL     1       2.690   8.300  17.958  0.00  0.00    +0.000 C 
ATOM      4  C   UNL     1       1.694   7.813  19.029  0.00  0.00    +0.000 C 
ATOM      5  C   UNL     1       2.320   6.839  20.045  0.00  0.00    +0.000 C 
ATOM      6  C   UNL     1       3.174   5.757  19.383  0.00  0.00    +0.000 C 
ENDROOT
BRANCH   1   9
ATOM      7  C   UNL     1       6.377   5.935  17.423  0.00  0.00    +0.000 C 
ATOM      8  O   UNL     1       6.642   7.130  17.303  0.00  0.00    +0.000 OA
ATOM      9  N   UNL     1       5.207   5.478  18.003  0.00  0.00    +0.000 N 
ATOM     10  H   UNL     1       5.120   4.501  18.256  0.00  0.00    +0.000 HD
BRANCH   7  11
ATOM     11  C   UNL     1       7.296   4.852  16.896  0.00  0.00    +0.000 C 
BRANCH  11  15
ATOM     12  C   UNL     1       5.860   3.446  12.208  0.00  0.00    +0.000 C 
ATOM     13  C   UNL     1       6.472   4.052  13.409  0.00  0.00    +0.000 A 
ATOM     14  C   UNL     1       6.205   3.762  14.762  0.00  0.00    +0.000 A 
ATOM     15  C   UNL     1       7.029   4.611  15.463  0.00  0.00    +0.000 A 
ATOM     16  O   UNL     1       7.754   5.352  14.582  0.00  0.00    +0.000 OA
ATOM     17  N   UNL     1       7.407   5.002  13.289  0.00  0.00    +0.000 NA
ENDBRANCH  11  15
ENDBRANCH   7  11
ENDBRANCH   1   9
BRANCH   4  18
ATOM     18  C   UNL     1       1.092   9.007  19.798  0.00  0.00    +0.000 C 
BRANCH  18  19
ATOM     19  C   UNL     1       1.209  10.350  19.070  0.00  0.00    +0.000 C 
BRANCH  19  20
ATOM     20  N   UNL     1       0.538  11.471  19.763  0.00  0.00    +0.000 NA
ATOM     21  C   UNL     1       0.082  12.482  18.797  0.00  0.00    +0.000 C 
ATOM     22  C   UNL     1      -0.884  13.521  19.363  0.00  0.00    +0.000 C 
ATOM     23  C   UNL     1      -2.046  12.895  20.138  0.00  0.00    +0.000 C 
ATOM     24  C   UNL     1      -1.456  11.980  21.216  0.00  0.00    +0.000 C 
ATOM     25  C   UNL     1      -0.510  10.928  20.641  0.00  0.00    +0.000 C 
BRANCH  23  26
ATOM     26  C   UNL     1      -3.074  12.216  19.258  0.00  0.00    +0.000 A 
ATOM     27  C   UNL     1      -2.875  11.601  18.034  0.00  0.00    +0.000 A 
ATOM     28  O   UNL     1      -4.021  11.107  17.519  0.00  0.00    +0.000 OA
ATOM     29  C   UNL     1      -5.003  11.389  18.409  0.00  0.00    +0.000 A 
ATOM     30  C   UNL     1      -6.340  11.047  18.241  0.00  0.00    +0.000 A 
ATOM     31  C   UNL     1      -7.209  11.420  19.267  0.00  0.00    +0.000 A 
ATOM     32  C   UNL     1      -6.739  12.100  20.394  0.00  0.00    +0.000 A 
ATOM     33  C   UNL     1      -5.381  12.434  20.530  0.00  0.00    +0.000 A 
ATOM     34  C   UNL     1      -4.484  12.070  19.507  0.00  0.00    +0.000 A 
ENDBRANCH  23  26
ENDBRANCH  19  20
ENDBRANCH  18  19
ENDBRANCH   4  18
TORSDOF 7
ENDMDL
MODEL 3
REMARK VINA RESULT:      -8.4      2.838      3.924
REMARK  Name = 
REMARK  8 active torsions:
REMARK  status: ('A' for Active; 'I' for Inactive)
REMARK    1  A    between atoms: C_1  and  C_2
REMARK    2  A    between atoms: C_4  and  C_5
REMARK    3  A    between atoms: C_5  and  C_6
REMARK    4  A    between atoms: N_8  and  C_9
REMARK    5  A    between atoms: C_12  and  C_13
REMARK    6  A    between atoms: C_13  and  C_14
REMARK    7  A    between atoms: C_14  and  N_15
REMARK    8  A    between atoms: C_18  and  C_19
REMARK                            x       y       z     vdW  Elec       q    Type
REMARK                         _______ _______ _______ _____ _____    ______ ____
ROOT
ATOM      1  C   UNL     1       4.310   6.808  18.189  0.00  0.00    +0.000 C 
ATOM      2  C   UNL     1       3.589   7.648  17.139  0.00  0.00    +0.000 C 
ATOM      3  C   UNL     1       2.713   8.681  17.840  0.00  0.00    +0.000 C 
ATOM      4  C   UNL     1       1.732   8.053  18.849  0.00  0.00    +0.000 C 
ATOM      5  C   UNL     1       2.388   6.997  19.760  0.00  0.00    +0.000 C 
ATOM      6  C   UNL     1       3.278   6.020  18.992  0.00  0.00    +0.000 C 
ENDROOT
BRANCH   1   9
ATOM      7  C   UNL     1       6.304   5.394  18.396  0.00  0.00    +0.000 C 
ATOM      8  O   UNL     1       6.371   5.584  19.610  0.00  0.00    +0.000 OA
ATOM      9  N   UNL     1       5.321   5.953  17.600  0.00  0.00    +0.000 N 
ATOM     10  H   UNL     1       5.189   5.617  16.654  0.00  0.00    +0.000 HD
BRANCH   7  11
ATOM     11  C   UNL     1       7.332   4.563  17.657  0.00  0.00    +0.000 C 
BRANCH  11  15
ATOM     12  C   UNL     1       5.772   3.692  12.879  0.00  0.00    +0.000 C 
ATOM     13  C   UNL     1       6.381   4.190  14.130  0.00  0.00    +0.000 A 
ATOM     14  C   UNL     1       6.248   3.666  15.432  0.00  0.00    +0.000 A 
ATOM     15  C   UNL     1       7.001   4.505  16.218  0.00  0.00    +0.000 A 
ATOM     16  O   UNL     1       7.561   5.464  15.432  0.00  0.00    +0.000 OA
ATOM     17  N   UNL     1       7.174   5.268  14.118  0.00  0.00    +0.000 NA
ENDBRANCH  11  15
ENDBRANCH   7  11
ENDBRANCH   1   9
BRANCH   4  18
ATOM     18  C   UNL     1       1.090   9.139  19.735  0.00  0.00    +0.000 C 
BRANCH  18  19
ATOM     19  C   UNL     1       0.376  10.248  18.957  0.00  0.00    +0.000 C 
BRANCH  19  20
ATOM     20  N   UNL     1      -0.281  11.258  19.814  0.00  0.00    +0.000 NA
ATOM     21  C   UNL     1       0.671  11.813  20.788  0.00  0.00    +0.000 C 
ATOM     22  C   UNL     1       0.191  13.070  21.511  0.00  0.00    +0.000 C 
ATOM     23  C   UNL     1      -0.348  14.138  20.556  0.00  0.00    +0.000 C 
ATOM     24  C   UNL     1      -1.437  13.494  19.693  0.00  0.00    +0.000 C 
ATOM     25  C   UNL     1      -0.944  12.251  18.955  0.00  0.00    +0.000 C 
BRANCH  23  26
ATOM     26  C   UNL     1       0.728  14.841  19.755  0.00  0.00    +0.000 A 
ATOM     27  C   UNL     1       2.080  14.552  19.706  0.00  0.00    +0.000 A 
ATOM     28  O   UNL     1       2.753  15.394  18.892  0.00  0.00    +0.000 OA
ATOM     29  C   UNL     1       1.842  16.257  18.384  0.00  0.00    +0.000 A 
ATOM     30  C   UNL     1       2.141  17.288  17.500  0.00  0.00    +0.000 A 
ATOM     31  C   UNL     1       1.069  18.077  17.081  0.00  0.00    +0.000 A 
ATOM     32  C   UNL     1      -0.228  17.827  17.538  0.00  0.00    +0.000 A 
ATOM     33  C   UNL     1      -0.495  16.778  18.436  0.00  0.00    +0.000 A 
ATOM     34  C   UNL     1       0.571  15.969  18.874  0.00  0.00    +0.000 A 
ENDBRANCH  23  26
ENDBRANCH  19  20
ENDBRANCH  18  19
ENDBRANCH   4  18
TORSDOF 7
ENDMDL
MODEL 4
REMARK VINA RESULT:      -8.4      3.331     10.353
REMARK  Name = 
REMARK  8 active torsions:
REMARK  status: ('A' for Active; 'I' for Inactive)
REMARK    1  A    between atoms: C_1  and  C_2
REMARK    2  A    between atoms: C_4  and  C_5
REMARK    3  A    between atoms: C_5  and  C_6
REMARK    4  A    between atoms: N_8  and  C_9
REMARK    5  A    between atoms: C_12  and  C_13
REMARK    6  A    between atoms: C_13  and  C_14
REMARK    7  A    between atoms: C_14  and  N_15
REMARK    8  A    between atoms: C_18  and  C_19
REMARK                            x       y       z     vdW  Elec       q    Type
REMARK                         _______ _______ _______ _____ _____    ______ ____
ROOT
ATOM      1  C   UNL     1       0.824   9.423  18.911  0.00  0.00    +0.000 C 
ATOM      2  C   UNL     1       2.028   8.756  18.252  0.00  0.00    +0.000 C 
ATOM      3  C   UNL     1       2.147   7.323  18.760  0.00  0.00    +0.000 C 
ATOM      4  C   UNL     1       2.207   7.232  20.297  0.00  0.00    +0.000 C 
ATOM      5  C   UNL     1       1.155   8.111  21.001  0.00  0.00    +0.000 C 
ATOM      6  C   UNL     1       1.068   9.520  20.415  0.00  0.00    +0.000 C 
ENDROOT
BRANCH   1   9
ATOM      7  C   UNL     1      -0.565  11.439  18.760  0.00  0.00    +0.000 C 
ATOM      8  O   UNL     1      -1.312  11.049  19.657  0.00  0.00    +0.000 OA
ATOM      9  N   UNL     1       0.522  10.709  18.316  0.00  0.00    +0.000 N 
ATOM     10  H   UNL     1       1.214  11.149  17.722  0.00  0.00    +0.000 HD
BRANCH   7  11
ATOM     11  C   UNL     1      -0.806  12.741  18.024  0.00  0.00    +0.000 C 
BRANCH  11  15
ATOM     12  C   UNL     1       2.426  16.198  19.927  0.00  0.00    +0.000 C 
ATOM     13  C   UNL     1       1.271  15.360  19.543  0.00  0.00    +0.000 A 
ATOM     14  C   UNL     1       1.258  14.224  18.709  0.00  0.00    +0.000 A 
ATOM     15  C   UNL     1      -0.061  13.839  18.674  0.00  0.00    +0.000 A 
ATOM     16  O   UNL     1      -0.790  14.685  19.451  0.00  0.00    +0.000 OA
ATOM     17  N   UNL     1       0.045  15.642  20.000  0.00  0.00    +0.000 NA
ENDBRANCH  11  15
ENDBRANCH   7  11
ENDBRANCH   1   9
BRANCH   4  18
ATOM     18  C   UNL     1       2.026   5.775  20.766  0.00  0.00    +0.000 C 
BRANCH  18  19
ATOM     19  C   UNL     1       1.245   4.890  19.789  0.00  0.00    +0.000 C 
BRANCH  19  20
ATOM     20  N   UNL     1       2.062   3.843  19.140  0.00  0.00    +0.000 NA
ATOM     21  C   UNL     1       1.999   3.967  17.675  0.00  0.00    +0.000 C 
ATOM     22  C   UNL     1       3.036   3.142  16.915  0.00  0.00    +0.000 C 
ATOM     23  C   UNL     1       4.457   3.332  17.452  0.00  0.00    +0.000 C 
ATOM     24  C   UNL     1       4.440   3.030  18.953  0.00  0.00    +0.000 C 
ATOM     25  C   UNL     1       3.417   3.875  19.710  0.00  0.00    +0.000 C 
BRANCH  23  26
ATOM     26  C   UNL     1       5.068   4.674  17.106  0.00  0.00    +0.000 A 
ATOM     27  C   UNL     1       4.709   5.536  16.084  0.00  0.00    +0.000 A 
ATOM     28  O   UNL     1       5.476   6.646  16.060  0.00  0.00    +0.000 OA
ATOM     29  C   UNL     1       6.360   6.532  17.079  0.00  0.00    +0.000 A 
ATOM     30  C   UNL     1       7.333   7.477  17.388  0.00  0.00    +0.000 A 
ATOM     31  C   UNL     1       8.154   7.188  18.479  0.00  0.00    +0.000 A 
ATOM     32  C   UNL     1       7.991   6.007  19.207  0.00  0.00    +0.000 A 
ATOM     33  C   UNL     1       7.000   5.070  18.865  0.00  0.00    +0.000 A 
ATOM     34  C   UNL     1       6.160   5.339  17.768  0.00  0.00    +0.000 A 
ENDBRANCH  23  26
ENDBRANCH  19  20
ENDBRANCH  18  19
ENDBRANCH   4  18
TORSDOF 7
ENDMDL
MODEL 5
REMARK VINA RESULT:      -8.4      2.629     11.071
REMARK  Name = 
REMARK  8 active torsions:
REMARK  status: ('A' for Active; 'I' for Inactive)
REMARK    1  A    between atoms: C_1  and  C_2
REMARK    2  A    between atoms: C_4  and  C_5
REMARK    3  A    between atoms: C_5  and  C_6
REMARK    4  A    between atoms: N_8  and  C_9
REMARK    5  A    between atoms: C_12  and  C_13
REMARK    6  A    between atoms: C_13  and  C_14
REMARK    7  A    between atoms: C_14  and  N_15
REMARK    8  A    between atoms: C_18  and  C_19
REMARK                            x       y       z     vdW  Elec       q    Type
REMARK                         _______ _______ _______ _____ _____    ______ ____
ROOT
ATOM      1  C   UNL     1      -0.708   9.885  19.060  0.00  0.00    +0.000 C 
ATOM      2  C   UNL     1       0.590  10.219  18.329  0.00  0.00    +0.000 C 
ATOM      3  C   UNL     1       1.522   9.014  18.389  0.00  0.00    +0.000 C 
ATOM      4  C   UNL     1       1.780   8.523  19.827  0.00  0.00    +0.000 C 
ATOM      5  C   UNL     1       0.497   8.425  20.676  0.00  0.00    +0.000 C 
ATOM      6  C   UNL     1      -0.403   9.652  20.538  0.00  0.00    +0.000 C 
ENDROOT
BRANCH   1   9
ATOM      7  C   UNL     1      -2.821  10.633  18.064  0.00  0.00    +0.000 C 
ATOM      8  O   UNL     1      -2.994   9.552  17.502  0.00  0.00    +0.000 OA
ATOM      9  N   UNL     1      -1.721  10.900  18.859  0.00  0.00    +0.000 N 
ATOM     10  H   UNL     1      -1.718  11.722  19.451  0.00  0.00    +0.000 HD
BRANCH   7  11
ATOM     11  C   UNL     1      -3.782  11.791  17.889  0.00  0.00    +0.000 C 
BRANCH  11  15
ATOM     12  C   UNL     1      -6.938  12.475  21.837  0.00  0.00    +0.000 C 
ATOM     13  C   UNL     1      -5.801  12.382  20.898  0.00  0.00    +0.000 A 
ATOM     14  C   UNL     1      -5.815  11.962  19.553  0.00  0.00    +0.000 A 
ATOM     15  C   UNL     1      -4.503  12.051  19.153  0.00  0.00    +0.000 A 
ATOM     16  O   UNL     1      -3.753  12.509  20.191  0.00  0.00    +0.000 OA
ATOM     17  N   UNL     1      -4.566  12.719  21.290  0.00  0.00    +0.000 NA
ENDBRANCH  11  15
ENDBRANCH   7  11
ENDBRANCH   1   9
BRANCH   4  18
ATOM     18  C   UNL     1       2.472   7.145  19.818  0.00  0.00    +0.000 C 
BRANCH  18  19
ATOM     19  C   UNL     1       1.568   5.982  20.237  0.00  0.00    +0.000 C 
BRANCH  19  20
ATOM     20  N   UNL     1       1.943   4.682  19.640  0.00  0.00    +0.000 NA
ATOM     21  C   UNL     1       1.732   4.697  18.184  0.00  0.00    +0.000 C 
ATOM     22  C   UNL     1       2.367   3.530  17.431  0.00  0.00    +0.000 C 
ATOM     23  C   UNL     1       3.836   3.311  17.801  0.00  0.00    +0.000 C 
ATOM     24  C   UNL     1       3.922   3.156  19.323  0.00  0.00    +0.000 C 
ATOM     25  C   UNL     1       3.306   4.337  20.069  0.00  0.00    +0.000 C 
BRANCH  23  26
ATOM     26  C   UNL     1       4.771   4.362  17.241  0.00  0.00    +0.000 A 
ATOM     27  C   UNL     1       4.787   4.896  15.964  0.00  0.00    +0.000 A 
ATOM     28  O   UNL     1       5.769   5.809  15.805  0.00  0.00    +0.000 OA
ATOM     29  C   UNL     1       6.419   5.894  16.990  0.00  0.00    +0.000 A 
ATOM     30  C   UNL     1       7.505   6.728  17.235  0.00  0.00    +0.000 A 
ATOM     31  C   UNL     1       8.044   6.682  18.521  0.00  0.00    +0.000 A 
ATOM     32  C   UNL     1       7.508   5.836  19.494  0.00  0.00    +0.000 A 
ATOM     33  C   UNL     1       6.412   5.001  19.212  0.00  0.00    +0.000 A 
ATOM     34  C   UNL     1       5.851   5.029  17.921  0.00  0.00    +0.000 A 
ENDBRANCH  23  26
ENDBRANCH  19  20
ENDBRANCH  18  19
ENDBRANCH   4  18
TORSDOF 7
ENDMDL
MODEL 6
REMARK VINA RESULT:      -8.3      2.294     11.536
REMARK  Name = 
REMARK  8 active torsions:
REMARK  status: ('A' for Active; 'I' for Inactive)
REMARK    1  A    between atoms: C_1  and  C_2
REMARK    2  A    between atoms: C_4  and  C_5
REMARK    3  A    between atoms: C_5  and  C_6
REMARK    4  A    between atoms: N_8  and  C_9
REMARK    5  A    between atoms: C_12  and  C_13
REMARK    6  A    between atoms: C_13  and  C_14
REMARK    7  A    between atoms: C_14  and  N_15
REMARK    8  A    between atoms: C_18  and  C_19
REMARK                            x       y       z     vdW  Elec       q    Type
REMARK                         _______ _______ _______ _____ _____    ______ ____
ROOT
ATOM      1  C   UNL     1      -0.351  10.113  20.474  0.00  0.00    +0.000 C 
ATOM      2  C   UNL     1       0.801  10.471  19.539  0.00  0.00    +0.000 C 
ATOM      3  C   UNL     1       1.448   9.189  19.028  0.00  0.00    +0.000 C 
ATOM      4  C   UNL     1       1.899   8.248  20.163  0.00  0.00    +0.000 C 
ATOM      5  C   UNL     1       0.837   8.073  21.266  0.00  0.00    +0.000 C 
ATOM      6  C   UNL     1       0.207   9.396  21.702  0.00  0.00    +0.000 C 
ENDROOT
BRANCH   1   9
ATOM      7  C   UNL     1      -1.997  11.836  19.893  0.00  0.00    +0.000 C 
ATOM      8  O   UNL     1      -2.122  11.399  18.749  0.00  0.00    +0.000 OA
ATOM      9  N   UNL     1      -1.146  11.271  20.826  0.00  0.00    +0.000 N 
ATOM     10  H   UNL     1      -1.220  11.539  21.800  0.00  0.00    +0.000 HD
BRANCH   7  11
ATOM     11  C   UNL     1      -2.734  13.072  20.363  0.00  0.00    +0.000 C 
BRANCH  11  15
ATOM     12  C   UNL     1      -7.575  11.610  21.028  0.00  0.00    +0.000 C 
ATOM     13  C   UNL     1      -6.195  12.126  21.142  0.00  0.00    +0.000 A 
ATOM     14  C   UNL     1      -5.193  12.158  20.150  0.00  0.00    +0.000 A 
ATOM     15  C   UNL     1      -4.108  12.720  20.779  0.00  0.00    +0.000 A 
ATOM     16  O   UNL     1      -4.444  13.019  22.063  0.00  0.00    +0.000 OA
ATOM     17  N   UNL     1      -5.757  12.648  22.294  0.00  0.00    +0.000 NA
ENDBRANCH  11  15
ENDBRANCH   7  11
ENDBRANCH   1   9
BRANCH   4  18
ATOM     18  C   UNL     1       2.266   6.858  19.607  0.00  0.00    +0.000 C 
BRANCH  18  19
ATOM     19  C   UNL     1       1.522   5.696  20.271  0.00  0.00    +0.000 C 
BRANCH  19  20
ATOM     20  N   UNL     1       1.805   4.376  19.668  0.00  0.00    +0.000 NA
ATOM     21  C   UNL     1       1.866   4.475  18.201  0.00  0.00    +0.000 C 
ATOM     22  C   UNL     1       2.450   3.252  17.498  0.00  0.00    +0.000 C 
ATOM     23  C   UNL     1       3.780   2.795  18.103  0.00  0.00    +0.000 C 
ATOM     24  C   UNL     1       3.565   2.574  19.604  0.00  0.00    +0.000 C 
ATOM     25  C   UNL     1       3.004   3.809  20.305  0.00  0.00    +0.000 C 
BRANCH  23  26
ATOM     26  C   UNL     1       4.944   3.708  17.781  0.00  0.00    +0.000 A 
ATOM     27  C   UNL     1       5.696   4.471  18.657  0.00  0.00    +0.000 A 
ATOM     28  O   UNL     1       6.656   5.179  18.023  0.00  0.00    +0.000 OA
ATOM     29  C   UNL     1       6.551   4.885  16.705  0.00  0.00    +0.000 A 
ATOM     30  C   UNL     1       7.364   5.420  15.712  0.00  0.00    +0.000 A 
ATOM     31  C   UNL     1       7.109   4.997  14.407  0.00  0.00    +0.000 A 
ATOM     32  C   UNL     1       6.086   4.086  14.135  0.00  0.00    +0.000 A 
ATOM     33  C   UNL     1       5.279   3.567  15.163  0.00  0.00    +0.000 A 
ATOM     34  C   UNL     1       5.516   3.980  16.488  0.00  0.00    +0.000 A 
ENDBRANCH  23  26
ENDBRANCH  19  20
ENDBRANCH  18  19
ENDBRANCH   4  18
TORSDOF 7
ENDMDL
MODEL 7
REMARK VINA RESULT:      -8.3      2.426     11.422
REMARK  Name = 
REMARK  8 active torsions:
REMARK  status: ('A' for Active; 'I' for Inactive)
REMARK    1  A    between atoms: C_1  and  C_2
REMARK    2  A    between atoms: C_4  and  C_5
REMARK    3  A    between atoms: C_5  and  C_6
REMARK    4  A    between atoms: N_8  and  C_9
REMARK    5  A    between atoms: C_12  and  C_13
REMARK    6  A    between atoms: C_13  and  C_14
REMARK    7  A    between atoms: C_14  and  N_15
REMARK    8  A    between atoms: C_18  and  C_19
REMARK                            x       y       z     vdW  Elec       q    Type
REMARK                         _______ _______ _______ _____ _____    ______ ____
ROOT
ATOM      1  C   UNL     1      -0.623  10.175  19.705  0.00  0.00    +0.000 C 
ATOM      2  C   UNL     1       0.615  10.457  18.859  0.00  0.00    +0.000 C 
ATOM      3  C   UNL     1       1.432   9.177  18.726  0.00  0.00    +0.000 C 
ATOM      4  C   UNL     1       1.794   8.549  20.087  0.00  0.00    +0.000 C 
ATOM      5  C   UNL     1       0.606   8.491  21.065  0.00  0.00    +0.000 C 
ATOM      6  C   UNL     1      -0.186   9.797  21.119  0.00  0.00    +0.000 C 
ENDROOT
BRANCH   1   9
ATOM      7  C   UNL     1      -2.576  11.322  18.763  0.00  0.00    +0.000 C 
ATOM      8  O   UNL     1      -2.748  10.441  17.921  0.00  0.00    +0.000 OA
ATOM      9  N   UNL     1      -1.554  11.285  19.694  0.00  0.00    +0.000 N 
ATOM     10  H   UNL     1      -1.568  11.922  20.481  0.00  0.00    +0.000 HD
BRANCH   7  11
ATOM     11  C   UNL     1      -3.449  12.558  18.819  0.00  0.00    +0.000 C 
BRANCH  11  15
ATOM     12  C   UNL     1      -5.300  13.148  23.536  0.00  0.00    +0.000 C 
ATOM     13  C   UNL     1      -5.035  12.814  22.121  0.00  0.00    +0.000 A 
ATOM     14  C   UNL     1      -3.909  13.150  21.343  0.00  0.00    +0.000 A 
ATOM     15  C   UNL     1      -4.174  12.613  20.106  0.00  0.00    +0.000 A 
ATOM     16  O   UNL     1      -5.379  11.983  20.146  0.00  0.00    +0.000 OA
ATOM     17  N   UNL     1      -5.923  12.107  21.412  0.00  0.00    +0.000 NA
ENDBRANCH  11  15
ENDBRANCH   7  11
ENDBRANCH   1   9
BRANCH   4  18
ATOM     18  C   UNL     1       2.351   7.124  19.900  0.00  0.00    +0.000 C 
BRANCH  18  19
ATOM     19  C   UNL     1       1.488   6.023  20.524  0.00  0.00    +0.000 C 
BRANCH  19  20
ATOM     20  N   UNL     1       1.532   4.737  19.796  0.00  0.00    +0.000 NA
ATOM     21  C   UNL     1       1.739   4.959  18.357  0.00  0.00    +0.000 C 
ATOM     22  C   UNL     1       2.105   3.710  17.559  0.00  0.00    +0.000 C 
ATOM     23  C   UNL     1       3.248   2.913  18.192  0.00  0.00    +0.000 C 
ATOM     24  C   UNL     1       2.863   2.603  19.642  0.00  0.00    +0.000 C 
ATOM     25  C   UNL     1       2.521   3.859  20.440  0.00  0.00    +0.000 C 
BRANCH  23  26
ATOM     26  C   UNL     1       4.605   3.570  18.049  0.00  0.00    +0.000 A 
ATOM     27  C   UNL     1       5.481   3.943  19.053  0.00  0.00    +0.000 A 
ATOM     28  O   UNL     1       6.603   4.516  18.566  0.00  0.00    +0.000 OA
ATOM     29  C   UNL     1       6.482   4.524  17.217  0.00  0.00    +0.000 A 
ATOM     30  C   UNL     1       7.434   5.039  16.344  0.00  0.00    +0.000 A 
ATOM     31  C   UNL     1       7.136   4.957  14.983  0.00  0.00    +0.000 A 
ATOM     32  C   UNL     1       5.939   4.386  14.543  0.00  0.00    +0.000 A 
ATOM     33  C   UNL     1       4.995   3.880  15.453  0.00  0.00    +0.000 A 
ATOM     34  C   UNL     1       5.273   3.951  16.832  0.00  0.00    +0.000 A 
ENDBRANCH  23  26
ENDBRANCH  19  20
ENDBRANCH  18  19
ENDBRANCH   4  18
TORSDOF 7
ENDMDL
MODEL 8
REMARK VINA RESULT:      -8.2      3.219     10.635
REMARK  Name = 
REMARK  8 active torsions:
REMARK  status: ('A' for Active; 'I' for Inactive)
REMARK    1  A    between atoms: C_1  and  C_2
REMARK    2  A    between atoms: C_4  and  C_5
REMARK    3  A    between atoms: C_5  and  C_6
REMARK    4  A    between atoms: N_8  and  C_9
REMARK    5  A    between atoms: C_12  and  C_13
REMARK    6  A    between atoms: C_13  and  C_14
REMARK    7  A    between atoms: C_14  and  N_15
REMARK    8  A    between atoms: C_18  and  C_19
REMARK                            x       y       z     vdW  Elec       q    Type
REMARK                         _______ _______ _______ _____ _____    ______ ____
ROOT
ATOM      1  C   UNL     1       0.830   9.450  19.057  0.00  0.00    +0.000 C 
ATOM      2  C   UNL     1       2.054   8.817  18.402  0.00  0.00    +0.000 C 
ATOM      3  C   UNL     1       2.180   7.371  18.868  0.00  0.00    +0.000 C 
ATOM      4  C   UNL     1       2.212   7.233  20.403  0.00  0.00    +0.000 C 
ATOM      5  C   UNL     1       1.136   8.078  21.112  0.00  0.00    +0.000 C 
ATOM      6  C   UNL     1       1.044   9.504  20.568  0.00  0.00    +0.000 C 
ENDROOT
BRANCH   1   9
ATOM      7  C   UNL     1      -0.745  11.281  18.631  0.00  0.00    +0.000 C 
ATOM      8  O   UNL     1      -1.656  10.698  19.218  0.00  0.00    +0.000 OA
ATOM      9  N   UNL     1       0.524  10.750  18.496  0.00  0.00    +0.000 N 
ATOM     10  H   UNL     1       1.285  11.340  18.183  0.00  0.00    +0.000 HD
BRANCH   7  11
ATOM     11  C   UNL     1      -0.954  12.621  17.957  0.00  0.00    +0.000 C 
BRANCH  11  15
ATOM     12  C   UNL     1       1.031  16.818  20.072  0.00  0.00    +0.000 C 
ATOM     13  C   UNL     1       0.612  15.451  19.695  0.00  0.00    +0.000 A 
ATOM     14  C   UNL     1      -0.207  15.058  18.617  0.00  0.00    +0.000 A 
ATOM     15  C   UNL     1      -0.289  13.691  18.731  0.00  0.00    +0.000 A 
ATOM     16  O   UNL     1       0.446  13.290  19.803  0.00  0.00    +0.000 OA
ATOM     17  N   UNL     1       1.016  14.395  20.411  0.00  0.00    +0.000 NA
ENDBRANCH  11  15
ENDBRANCH   7  11
ENDBRANCH   1   9
BRANCH   4  18
ATOM     18  C   UNL     1       2.039   5.760  20.823  0.00  0.00    +0.000 C 
BRANCH  18  19
ATOM     19  C   UNL     1       0.897   5.030  20.110  0.00  0.00    +0.000 C 
BRANCH  19  20
ATOM     20  N   UNL     1       1.321   3.815  19.382  0.00  0.00    +0.000 NA
ATOM     21  C   UNL     1       1.527   4.108  17.955  0.00  0.00    +0.000 C 
ATOM     22  C   UNL     1       2.254   3.016  17.173  0.00  0.00    +0.000 C 
ATOM     23  C   UNL     1       3.539   2.546  17.860  0.00  0.00    +0.000 C 
ATOM     24  C   UNL     1       3.184   2.121  19.288  0.00  0.00    +0.000 C 
ATOM     25  C   UNL     1       2.479   3.227  20.071  0.00  0.00    +0.000 C 
BRANCH  23  26
ATOM     26  C   UNL     1       4.673   3.547  17.785  0.00  0.00    +0.000 A 
ATOM     27  C   UNL     1       5.228   4.285  18.816  0.00  0.00    +0.000 A 
ATOM     28  O   UNL     1       6.222   5.093  18.389  0.00  0.00    +0.000 OA
ATOM     29  C   UNL     1       6.340   4.894  17.055  0.00  0.00    +0.000 A 
ATOM     30  C   UNL     1       7.257   5.548  16.239  0.00  0.00    +0.000 A 
ATOM     31  C   UNL     1       7.233   5.211  14.885  0.00  0.00    +0.000 A 
ATOM     32  C   UNL     1       6.329   4.264  14.397  0.00  0.00    +0.000 A 
ATOM     33  C   UNL     1       5.412   3.624  15.248  0.00  0.00    +0.000 A 
ATOM     34  C   UNL     1       5.415   3.949  16.619  0.00  0.00    +0.000 A 
ENDBRANCH  23  26
ENDBRANCH  19  20
ENDBRANCH  18  19
ENDBRANCH   4  18
TORSDOF 7
ENDMDL
MODEL 9
REMARK VINA RESULT:      -8.2      1.346      2.048
REMARK  Name = 
REMARK  8 active torsions:
REMARK  status: ('A' for Active; 'I' for Inactive)
REMARK    1  A    between atoms: C_1  and  C_2
REMARK    2  A    between atoms: C_4  and  C_5
REMARK    3  A    between atoms: C_5  and  C_6
REMARK    4  A    between atoms: N_8  and  C_9
REMARK    5  A    between atoms: C_12  and  C_13
REMARK    6  A    between atoms: C_13  and  C_14
REMARK    7  A    between atoms: C_14  and  N_15
REMARK    8  A    between atoms: C_18  and  C_19
REMARK                            x       y       z     vdW  Elec       q    Type
REMARK                         _______ _______ _______ _____ _____    ______ ____
ROOT
ATOM      1  C   UNL     1       4.280   5.996  18.866  0.00  0.00    +0.000 C 
ATOM      2  C   UNL     1       3.375   6.865  17.998  0.00  0.00    +0.000 C 
ATOM      3  C   UNL     1       2.441   7.668  18.897  0.00  0.00    +0.000 C 
ATOM      4  C   UNL     1       1.634   6.786  19.870  0.00  0.00    +0.000 C 
ATOM      5  C   UNL     1       2.491   5.716  20.574  0.00  0.00    +0.000 C 
ATOM      6  C   UNL     1       3.426   4.977  19.616  0.00  0.00    +0.000 C 
ENDROOT
BRANCH   1   9
ATOM      7  C   UNL     1       6.574   5.147  18.668  0.00  0.00    +0.000 C 
ATOM      8  O   UNL     1       6.839   5.457  19.829  0.00  0.00    +0.000 OA
ATOM      9  N   UNL     1       5.335   5.371  18.095  0.00  0.00    +0.000 N 
ATOM     10  H   UNL     1       5.103   4.929  17.214  0.00  0.00    +0.000 HD
BRANCH   7  11
ATOM     11  C   UNL     1       7.607   4.536  17.745  0.00  0.00    +0.000 C 
BRANCH  11  15
ATOM     12  C   UNL     1       5.664   3.814  13.084  0.00  0.00    +0.000 C 
ATOM     13  C   UNL     1       6.313   4.308  14.316  0.00  0.00    +0.000 A 
ATOM     14  C   UNL     1       6.454   3.645  15.552  0.00  0.00    +0.000 A 
ATOM     15  C   UNL     1       7.115   4.547  16.351  0.00  0.00    +0.000 A 
ATOM     16  O   UNL     1       7.367   5.675  15.633  0.00  0.00    +0.000 OA
ATOM     17  N   UNL     1       6.865   5.527  14.352  0.00  0.00    +0.000 NA
ENDBRANCH  11  15
ENDBRANCH   7  11
ENDBRANCH   1   9
BRANCH   4  18
ATOM     18  C   UNL     1       0.942   7.648  20.943  0.00  0.00    +0.000 C 
BRANCH  18  19
ATOM     19  C   UNL     1       1.533   9.052  21.104  0.00  0.00    +0.000 C 
BRANCH  19  20
ATOM     20  N   UNL     1       0.911  10.071  20.232  0.00  0.00    +0.000 NA
ATOM     21  C   UNL     1      -0.498   9.743  19.970  0.00  0.00    +0.000 C 
ATOM     22  C   UNL     1      -1.315  10.871  19.343  0.00  0.00    +0.000 C 
ATOM     23  C   UNL     1      -1.159  12.202  20.084  0.00  0.00    +0.000 C 
ATOM     24  C   UNL     1       0.337  12.524  20.167  0.00  0.00    +0.000 C 
ATOM     25  C   UNL     1       1.144  11.401  20.816  0.00  0.00    +0.000 C 
BRANCH  23  26
ATOM     26  C   UNL     1      -1.867  12.245  21.421  0.00  0.00    +0.000 A 
ATOM     27  C   UNL     1      -1.367  11.891  22.662  0.00  0.00    +0.000 A 
ATOM     28  O   UNL     1      -2.282  12.045  23.644  0.00  0.00    +0.000 OA
ATOM     29  C   UNL     1      -3.409  12.512  23.057  0.00  0.00    +0.000 A 
ATOM     30  C   UNL     1      -4.590  12.798  23.735  0.00  0.00    +0.000 A 
ATOM     31  C   UNL     1      -5.649  13.274  22.961  0.00  0.00    +0.000 A 
ATOM     32  C   UNL     1      -5.510  13.448  21.582  0.00  0.00    +0.000 A 
ATOM     33  C   UNL     1      -4.303  13.146  20.927  0.00  0.00    +0.000 A 
ATOM     34  C   UNL     1      -3.220  12.662  21.686  0.00  0.00    +0.000 A 
ENDBRANCH  23  26
ENDBRANCH  19  20
ENDBRANCH  18  19
ENDBRANCH   4  18
TORSDOF 7
ENDMDL
