MODEL 1
REMARK VINA RESULT:      -7.4      0.000      0.000
REMARK  Name = 
REMARK  4 active torsions:
REMARK  status: ('A' for Active; 'I' for Inactive)
REMARK    1  A    between atoms: C_1  and  C_2
REMARK    2  A    between atoms: C_4  and  N_5
REMARK    3  A    between atoms: N_14  and  S_15
REMARK    4  A    between atoms: S_15  and  C_18
REMARK                            x       y       z     vdW  Elec       q    Type
REMARK                         _______ _______ _______ _____ _____    ______ ____
ROOT
ATOM      1  C   UNL     1       1.341   3.396  21.295  0.00  0.00    +0.000 C 
ATOM      2  C   UNL     1       1.869   4.579  20.539  0.00  0.00    +0.000 A 
ATOM      3  C   UNL     1       1.455   5.879  20.842  0.00  0.00    +0.000 A 
ATOM      4  C   UNL     1       1.888   6.997  20.106  0.00  0.00    +0.000 A 
ATOM      5  C   UNL     1       2.811   6.758  19.058  0.00  0.00    +0.000 A 
ATOM      6  C   UNL     1       3.241   5.446  18.722  0.00  0.00    +0.000 A 
ATOM      7  C   UNL     1       2.745   4.375  19.469  0.00  0.00    +0.000 A 
ATOM      8  N   UNL     1       4.037   5.236  17.525  0.00  0.00    +0.000 N 
ATOM      9  C   UNL     1       4.248   6.447  16.694  0.00  0.00    +0.000 C 
ATOM     10  C   UNL     1       4.431   7.653  17.595  0.00  0.00    +0.000 C 
ATOM     11  O   UNL     1       3.263   7.874  18.378  0.00  0.00    +0.000 OA
ENDROOT
BRANCH   4  12
ATOM     12  N   UNL     1       1.328   8.235  20.396  0.00  0.00    +0.000 N 
ATOM     13  C   UNL     1       1.076   9.256  19.369  0.00  0.00    +0.000 C 
ATOM     14  C   UNL     1      -0.233  10.010  19.710  0.00  0.00    +0.000 C 
ATOM     15  N   UNL     1      -0.282  10.563  21.080  0.00  0.00    +0.000 NA
ATOM     16  C   UNL     1       0.046   9.503  22.056  0.00  0.00    +0.000 C 
ATOM     17  C   UNL     1       1.383   8.786  21.757  0.00  0.00    +0.000 C 
ATOM     18  H   UNL     1      -1.229  10.893  21.261  0.00  0.00    +0.000 HD
ENDBRANCH   4  12
BRANCH   8  19
ATOM     19  S   UNL     1       5.152   3.964  17.371  0.00  0.00    +0.000 S 
ATOM     20  O   UNL     1       6.191   4.117  18.370  0.00  0.00    +0.000 OA
ATOM     21  O   UNL     1       4.432   2.706  17.299  0.00  0.00    +0.000 OA
BRANCH  19  22
ATOM     22  C   UNL     1       5.917   4.214  15.798  0.00  0.00    +0.000 A 
ATOM     23  C   UNL     1       5.402   3.581  14.658  0.00  0.00    +0.000 A 
ATOM     24  C   UNL     1       5.987   3.812  13.410  0.00  0.00    +0.000 A 
ATOM     25  C   UNL     1       7.076   4.678  13.302  0.00  0.00    +0.000 A 
ATOM     26  C   UNL     1       7.566   5.326  14.434  0.00  0.00    +0.000 A 
ATOM     27  C   UNL     1       6.977   5.101  15.677  0.00  0.00    +0.000 A 
ATOM     28  F   UNL     1       7.467   5.754  16.739  0.00  0.00    +0.000 F 
ENDBRANCH  19  22
ENDBRANCH   8  19
TORSDOF 3
ENDMDL
MODEL 2
REMARK VINA RESULT:      -7.1      0.466      1.043
REMARK  Name = 
REMARK  4 active torsions:
REMARK  status: ('A' for Active; 'I' for Inactive)
REMARK    1  A    between atoms: C_1  and  C_2
REMARK    2  A    between atoms: C_4  and  N_5
REMARK    3  A    between atoms: N_14  and  S_15
REMARK    4  A    between atoms: S_15  and  C_18
REMARK                            x       y       z     vdW  Elec       q    Type
REMARK                         _______ _______ _______ _____ _____    ______ ____
ROOT
ATOM      1  C   UNL     1       1.471   3.523  21.317  0.00  0.00    +0.000 C 
ATOM      2  C   UNL     1       1.964   4.685  20.507  0.00  0.00    +0.000 A 
ATOM      3  C   UNL     1       1.525   5.988  20.763  0.00  0.00    +0.000 A 
ATOM      4  C   UNL     1       1.925   7.084  19.978  0.00  0.00    +0.000 A 
ATOM      5  C   UNL     1       2.840   6.823  18.928  0.00  0.00    +0.000 A 
ATOM      6  C   UNL     1       3.296   5.508  18.640  0.00  0.00    +0.000 A 
ATOM      7  C   UNL     1       2.832   4.457  19.435  0.00  0.00    +0.000 A 
ATOM      8  N   UNL     1       4.082   5.267  17.442  0.00  0.00    +0.000 N 
ATOM      9  C   UNL     1       4.256   6.448  16.561  0.00  0.00    +0.000 C 
ATOM     10  C   UNL     1       4.423   7.693  17.410  0.00  0.00    +0.000 C 
ATOM     11  O   UNL     1       3.259   7.920  18.198  0.00  0.00    +0.000 OA
ENDROOT
BRANCH   4  12
ATOM     12  N   UNL     1       1.341   8.320  20.225  0.00  0.00    +0.000 N 
ATOM     13  C   UNL     1       0.737   8.671  21.520  0.00  0.00    +0.000 C 
ATOM     14  C   UNL     1       1.006  10.165  21.820  0.00  0.00    +0.000 C 
ATOM     15  N   UNL     1       0.602  11.089  20.739  0.00  0.00    +0.000 NA
ATOM     16  C   UNL     1       1.187  10.642  19.457  0.00  0.00    +0.000 C 
ATOM     17  C   UNL     1       0.872   9.167  19.121  0.00  0.00    +0.000 C 
ATOM     18  H   UNL     1       0.962  12.018  20.956  0.00  0.00    +0.000 HD
ENDBRANCH   4  12
BRANCH   8  19
ATOM     19  S   UNL     1       5.222   4.015  17.324  0.00  0.00    +0.000 S 
ATOM     20  O   UNL     1       6.256   4.216  18.320  0.00  0.00    +0.000 OA
ATOM     21  O   UNL     1       4.528   2.741  17.287  0.00  0.00    +0.000 OA
BRANCH  19  22
ATOM     22  C   UNL     1       5.985   4.236  15.746  0.00  0.00    +0.000 A 
ATOM     23  C   UNL     1       5.490   3.555  14.625  0.00  0.00    +0.000 A 
ATOM     24  C   UNL     1       6.073   3.763  13.372  0.00  0.00    +0.000 A 
ATOM     25  C   UNL     1       7.139   4.654  13.240  0.00  0.00    +0.000 A 
ATOM     26  C   UNL     1       7.608   5.350  14.353  0.00  0.00    +0.000 A 
ATOM     27  C   UNL     1       7.021   5.147  15.600  0.00  0.00    +0.000 A 
ATOM     28  F   UNL     1       7.490   5.845  16.643  0.00  0.00    +0.000 F 
ENDBRANCH  19  22
ENDBRANCH   8  19
TORSDOF 3
ENDMDL
MODEL 3
REMARK VINA RESULT:      -7.1      3.420      4.845
REMARK  Name = 
REMARK  4 active torsions:
REMARK  status: ('A' for Active; 'I' for Inactive)
REMARK    1  A    between atoms: C_1  and  C_2
REMARK    2  A    between atoms: C_4  and  N_5
REMARK    3  A    between atoms: N_14  and  S_15
REMARK    4  A    between atoms: S_15  and  C_18
REMARK                            x       y       z     vdW  Elec       q    Type
REMARK                         _______ _______ _______ _____ _____    ______ ____
ROOT
ATOM      1  C   UNL     1       0.263   9.046  23.413  0.00  0.00    +0.000 C 
ATOM      2  C   UNL     1       0.693   9.139  21.979  0.00  0.00    +0.000 A 
ATOM      3  C   UNL     1       0.501  10.308  21.237  0.00  0.00    +0.000 A 
ATOM      4  C   UNL     1       0.839  10.398  19.874  0.00  0.00    +0.000 A 
ATOM      5  C   UNL     1       1.434   9.255  19.283  0.00  0.00    +0.000 A 
ATOM      6  C   UNL     1       1.632   8.051  20.011  0.00  0.00    +0.000 A 
ATOM      7  C   UNL     1       1.241   8.016  21.352  0.00  0.00    +0.000 A 
ATOM      8  N   UNL     1       2.069   6.854  19.314  0.00  0.00    +0.000 N 
ATOM      9  C   UNL     1       2.178   6.994  17.841  0.00  0.00    +0.000 C 
ATOM     10  C   UNL     1       2.704   8.375  17.501  0.00  0.00    +0.000 C 
ATOM     11  O   UNL     1       1.804   9.379  17.956  0.00  0.00    +0.000 OA
ENDROOT
BRANCH   4  12
ATOM     12  N   UNL     1       0.497  11.554  19.185  0.00  0.00    +0.000 N 
ATOM     13  C   UNL     1      -0.750  11.684  18.416  0.00  0.00    +0.000 C 
ATOM     14  C   UNL     1      -1.282  13.132  18.550  0.00  0.00    +0.000 C 
ATOM     15  N   UNL     1      -0.297  14.181  18.210  0.00  0.00    +0.000 NA
ATOM     16  C   UNL     1       0.953  13.952  18.964  0.00  0.00    +0.000 C 
ATOM     17  C   UNL     1       1.524  12.526  18.788  0.00  0.00    +0.000 C 
ATOM     18  H   UNL     1      -0.682  15.085  18.480  0.00  0.00    +0.000 HD
ENDBRANCH   4  12
BRANCH   8  19
ATOM     19  S   UNL     1       2.976   5.630  20.064  0.00  0.00    +0.000 S 
ATOM     20  O   UNL     1       4.384   5.846  19.794  0.00  0.00    +0.000 OA
ATOM     21  O   UNL     1       2.543   5.493  21.442  0.00  0.00    +0.000 OA
BRANCH  19  22
ATOM     22  C   UNL     1       2.519   4.143  19.226  0.00  0.00    +0.000 A 
ATOM     23  C   UNL     1       3.452   3.475  18.421  0.00  0.00    +0.000 A 
ATOM     24  C   UNL     1       3.098   2.279  17.792  0.00  0.00    +0.000 A 
ATOM     25  C   UNL     1       1.819   1.749  17.973  0.00  0.00    +0.000 A 
ATOM     26  C   UNL     1       0.905   2.404  18.797  0.00  0.00    +0.000 A 
ATOM     27  C   UNL     1       1.262   3.593  19.430  0.00  0.00    +0.000 A 
ATOM     28  F   UNL     1       0.360   4.184  20.225  0.00  0.00    +0.000 F 
ENDBRANCH  19  22
ENDBRANCH   8  19
TORSDOF 3
ENDMDL
MODEL 4
REMARK VINA RESULT:      -7.1      6.718      9.411
REMARK  Name = 
REMARK  4 active torsions:
REMARK  status: ('A' for Active; 'I' for Inactive)
REMARK    1  A    between atoms: C_1  and  C_2
REMARK    2  A    between atoms: C_4  and  N_5
REMARK    3  A    between atoms: N_14  and  S_15
REMARK    4  A    between atoms: S_15  and  C_18
REMARK                            x       y       z     vdW  Elec       q    Type
REMARK                         _______ _______ _______ _____ _____    ______ ____
ROOT
ATOM      1  C   UNL     1      -2.342   9.814  16.591  0.00  0.00    +0.000 C 
ATOM      2  C   UNL     1      -2.568  10.784  17.713  0.00  0.00    +0.000 A 
ATOM      3  C   UNL     1      -3.856  11.191  18.074  0.00  0.00    +0.000 A 
ATOM      4  C   UNL     1      -4.088  12.146  19.081  0.00  0.00    +0.000 A 
ATOM      5  C   UNL     1      -2.952  12.655  19.757  0.00  0.00    +0.000 A 
ATOM      6  C   UNL     1      -1.632  12.266  19.405  0.00  0.00    +0.000 A 
ATOM      7  C   UNL     1      -1.468  11.341  18.371  0.00  0.00    +0.000 A 
ATOM      8  N   UNL     1      -0.498  12.955  19.998  0.00  0.00    +0.000 N 
ATOM      9  C   UNL     1      -0.850  14.099  20.874  0.00  0.00    +0.000 C 
ATOM     10  C   UNL     1      -2.106  13.769  21.657  0.00  0.00    +0.000 C 
ATOM     11  O   UNL     1      -3.204  13.556  20.776  0.00  0.00    +0.000 OA
ENDROOT
BRANCH   4  12
ATOM     12  N   UNL     1      -5.390  12.584  19.286  0.00  0.00    +0.000 N 
ATOM     13  C   UNL     1      -6.093  12.420  20.568  0.00  0.00    +0.000 C 
ATOM     14  C   UNL     1      -6.994  13.654  20.816  0.00  0.00    +0.000 C 
ATOM     15  N   UNL     1      -7.914  13.975  19.703  0.00  0.00    +0.000 NA
ATOM     16  C   UNL     1      -7.155  14.057  18.438  0.00  0.00    +0.000 C 
ATOM     17  C   UNL     1      -6.299  12.803  18.153  0.00  0.00    +0.000 C 
ATOM     18  H   UNL     1      -8.342  14.881  19.889  0.00  0.00    +0.000 HD
ENDBRANCH   4  12
BRANCH   8  19
ATOM     19  S   UNL     1       1.011  12.213  20.231  0.00  0.00    +0.000 S 
ATOM     20  O   UNL     1       1.639  11.993  18.943  0.00  0.00    +0.000 OA
ATOM     21  O   UNL     1       1.746  12.939  21.250  0.00  0.00    +0.000 OA
BRANCH  19  22
ATOM     22  C   UNL     1       0.640  10.619  20.897  0.00  0.00    +0.000 A 
ATOM     23  C   UNL     1       1.047   9.462  20.217  0.00  0.00    +0.000 A 
ATOM     24  C   UNL     1       0.785   8.205  20.767  0.00  0.00    +0.000 A 
ATOM     25  C   UNL     1       0.127   8.105  21.994  0.00  0.00    +0.000 A 
ATOM     26  C   UNL     1      -0.250   9.259  22.678  0.00  0.00    +0.000 A 
ATOM     27  C   UNL     1       0.018  10.513  22.132  0.00  0.00    +0.000 A 
ATOM     28  F   UNL     1      -0.347  11.599  22.827  0.00  0.00    +0.000 F 
ENDBRANCH  19  22
ENDBRANCH   8  19
TORSDOF 3
ENDMDL
MODEL 5
REMARK VINA RESULT:      -6.9      7.229     10.260
REMARK  Name = 
REMARK  4 active torsions:
REMARK  status: ('A' for Active; 'I' for Inactive)
REMARK    1  A    between atoms: C_1  and  C_2
REMARK    2  A    between atoms: C_4  and  N_5
REMARK    3  A    between atoms: N_14  and  S_15
REMARK    4  A    between atoms: S_15  and  C_18
REMARK                            x       y       z     vdW  Elec       q    Type
REMARK                         _______ _______ _______ _____ _____    ______ ____
ROOT
ATOM      1  C   UNL     1      -4.097  11.549  18.084  0.00  0.00    +0.000 C 
ATOM      2  C   UNL     1      -3.870  12.209  19.412  0.00  0.00    +0.000 A 
ATOM      3  C   UNL     1      -4.936  12.511  20.265  0.00  0.00    +0.000 A 
ATOM      4  C   UNL     1      -4.753  13.186  21.486  0.00  0.00    +0.000 A 
ATOM      5  C   UNL     1      -3.422  13.511  21.848  0.00  0.00    +0.000 A 
ATOM      6  C   UNL     1      -2.322  13.223  20.997  0.00  0.00    +0.000 A 
ATOM      7  C   UNL     1      -2.575  12.584  19.780  0.00  0.00    +0.000 A 
ATOM      8  N   UNL     1      -1.005  13.743  21.324  0.00  0.00    +0.000 N 
ATOM      9  C   UNL     1      -0.962  14.633  22.511  0.00  0.00    +0.000 C 
ATOM     10  C   UNL     1      -1.922  14.117  23.565  0.00  0.00    +0.000 C 
ATOM     11  O   UNL     1      -3.258  14.129  23.074  0.00  0.00    +0.000 OA
ENDROOT
BRANCH   4  12
ATOM     12  N   UNL     1      -5.880  13.557  22.209  0.00  0.00    +0.000 N 
ATOM     13  C   UNL     1      -6.828  12.579  22.765  0.00  0.00    +0.000 C 
ATOM     14  C   UNL     1      -7.350  13.095  24.128  0.00  0.00    +0.000 C 
ATOM     15  N   UNL     1      -7.906  14.464  24.093  0.00  0.00    +0.000 NA
ATOM     16  C   UNL     1      -6.932  15.380  23.463  0.00  0.00    +0.000 C 
ATOM     17  C   UNL     1      -6.451  14.903  22.073  0.00  0.00    +0.000 C 
ATOM     18  H   UNL     1      -8.071  14.770  25.051  0.00  0.00    +0.000 HD
ENDBRANCH   4  12
BRANCH   8  19
ATOM     19  S   UNL     1       0.433  12.968  20.862  0.00  0.00    +0.000 S 
ATOM     20  O   UNL     1       0.527  12.958  19.415  0.00  0.00    +0.000 OA
ATOM     21  O   UNL     1       1.537  13.515  21.629  0.00  0.00    +0.000 OA
BRANCH  19  22
ATOM     22  C   UNL     1       0.231  11.287  21.370  0.00  0.00    +0.000 A 
ATOM     23  C   UNL     1      -0.469  10.989  22.547  0.00  0.00    +0.000 A 
ATOM     24  C   UNL     1      -0.658   9.657  22.924  0.00  0.00    +0.000 A 
ATOM     25  C   UNL     1      -0.157   8.629  22.125  0.00  0.00    +0.000 A 
ATOM     26  C   UNL     1       0.514   8.931  20.941  0.00  0.00    +0.000 A 
ATOM     27  C   UNL     1       0.696  10.260  20.562  0.00  0.00    +0.000 A 
ATOM     28  F   UNL     1       1.333  10.510  19.410  0.00  0.00    +0.000 F 
ENDBRANCH  19  22
ENDBRANCH   8  19
TORSDOF 3
ENDMDL
MODEL 6
REMARK VINA RESULT:      -6.9      7.239      9.772
REMARK  Name = 
REMARK  4 active torsions:
REMARK  status: ('A' for Active; 'I' for Inactive)
REMARK    1  A    between atoms: C_1  and  C_2
REMARK    2  A    between atoms: C_4  and  N_5
REMARK    3  A    between atoms: N_14  and  S_15
REMARK    4  A    between atoms: S_15  and  C_18
REMARK                            x       y       z     vdW  Elec       q    Type
REMARK                         _______ _______ _______ _____ _____    ______ ____
ROOT
ATOM      1  C   UNL     1      -1.100   9.629  17.104  0.00  0.00    +0.000 C 
ATOM      2  C   UNL     1      -1.794  10.656  17.949  0.00  0.00    +0.000 A 
ATOM      3  C   UNL     1      -3.174  10.863  17.855  0.00  0.00    +0.000 A 
ATOM      4  C   UNL     1      -3.836  11.863  18.591  0.00  0.00    +0.000 A 
ATOM      5  C   UNL     1      -3.048  12.635  19.480  0.00  0.00    +0.000 A 
ATOM      6  C   UNL     1      -1.643  12.452  19.589  0.00  0.00    +0.000 A 
ATOM      7  C   UNL     1      -1.040  11.466  18.803  0.00  0.00    +0.000 A 
ATOM      8  N   UNL     1      -0.855  13.389  20.371  0.00  0.00    +0.000 N 
ATOM      9  C   UNL     1      -1.616  14.539  20.920  0.00  0.00    +0.000 C 
ATOM     10  C   UNL     1      -2.995  14.075  21.347  0.00  0.00    +0.000 C 
ATOM     11  O   UNL     1      -3.724  13.579  20.230  0.00  0.00    +0.000 OA
ENDROOT
BRANCH   4  12
ATOM     12  N   UNL     1      -5.184  12.081  18.340  0.00  0.00    +0.000 N 
ATOM     13  C   UNL     1      -6.253  11.522  19.184  0.00  0.00    +0.000 C 
ATOM     14  C   UNL     1      -7.413  12.542  19.278  0.00  0.00    +0.000 C 
ATOM     15  N   UNL     1      -7.916  13.021  17.973  0.00  0.00    +0.000 NA
ATOM     16  C   UNL     1      -6.787  13.505  17.152  0.00  0.00    +0.000 C 
ATOM     17  C   UNL     1      -5.649  12.469  17.002  0.00  0.00    +0.000 C 
ATOM     18  H   UNL     1      -8.557  13.796  18.139  0.00  0.00    +0.000 HD
ENDBRANCH   4  12
BRANCH   8  19
ATOM     19  S   UNL     1       0.594  12.957  21.142  0.00  0.00    +0.000 S 
ATOM     20  O   UNL     1       1.682  13.021  20.186  0.00  0.00    +0.000 OA
ATOM     21  O   UNL     1       0.712  13.698  22.384  0.00  0.00    +0.000 OA
BRANCH  19  22
ATOM     22  C   UNL     1       0.394  11.254  21.572  0.00  0.00    +0.000 A 
ATOM     23  C   UNL     1       1.152  10.272  20.920  0.00  0.00    +0.000 A 
ATOM     24  C   UNL     1       1.018   8.931  21.291  0.00  0.00    +0.000 A 
ATOM     25  C   UNL     1       0.136   8.576  22.312  0.00  0.00    +0.000 A 
ATOM     26  C   UNL     1      -0.595   9.561  22.975  0.00  0.00    +0.000 A 
ATOM     27  C   UNL     1      -0.454  10.898  22.610  0.00  0.00    +0.000 A 
ATOM     28  F   UNL     1      -1.163  11.817  23.281  0.00  0.00    +0.000 F 
ENDBRANCH  19  22
ENDBRANCH   8  19
TORSDOF 3
ENDMDL
MODEL 7
REMARK VINA RESULT:      -6.9      8.627     12.167
REMARK  Name = 
REMARK  4 active torsions:
REMARK  status: ('A' for Active; 'I' for Inactive)
REMARK    1  A    between atoms: C_1  and  C_2
REMARK    2  A    between atoms: C_4  and  N_5
REMARK    3  A    between atoms: N_14  and  S_15
REMARK    4  A    between atoms: S_15  and  C_18
REMARK                            x       y       z     vdW  Elec       q    Type
REMARK                         _______ _______ _______ _____ _____    ______ ____
ROOT
ATOM      1  C   UNL     1      -3.765  10.498  15.947  0.00  0.00    +0.000 C 
ATOM      2  C   UNL     1      -3.486  11.233  17.225  0.00  0.00    +0.000 A 
ATOM      3  C   UNL     1      -2.189  11.626  17.568  0.00  0.00    +0.000 A 
ATOM      4  C   UNL     1      -1.894  12.260  18.789  0.00  0.00    +0.000 A 
ATOM      5  C   UNL     1      -2.984  12.531  19.652  0.00  0.00    +0.000 A 
ATOM      6  C   UNL     1      -4.311  12.135  19.333  0.00  0.00    +0.000 A 
ATOM      7  C   UNL     1      -4.531  11.476  18.120  0.00  0.00    +0.000 A 
ATOM      8  N   UNL     1      -5.359  12.266  20.330  0.00  0.00    +0.000 N 
ATOM      9  C   UNL     1      -4.900  12.732  21.661  0.00  0.00    +0.000 C 
ATOM     10  C   UNL     1      -3.806  13.767  21.486  0.00  0.00    +0.000 C 
ATOM     11  O   UNL     1      -2.681  13.198  20.825  0.00  0.00    +0.000 OA
ENDROOT
BRANCH   4  12
ATOM     12  N   UNL     1      -0.562  12.501  19.101  0.00  0.00    +0.000 N 
ATOM     13  C   UNL     1       0.258  11.556  19.876  0.00  0.00    +0.000 C 
ATOM     14  C   UNL     1       1.707  11.574  19.331  0.00  0.00    +0.000 C 
ATOM     15  N   UNL     1       2.316  12.920  19.254  0.00  0.00    +0.000 NA
ATOM     16  C   UNL     1       1.412  13.833  18.524  0.00  0.00    +0.000 C 
ATOM     17  C   UNL     1      -0.022  13.867  19.099  0.00  0.00    +0.000 C 
ATOM     18  H   UNL     1       3.194  12.848  18.740  0.00  0.00    +0.000 HD
ENDBRANCH   4  12
BRANCH   8  19
ATOM     19  S   UNL     1      -6.991  12.504  19.925  0.00  0.00    +0.000 S 
ATOM     20  O   UNL     1      -7.506  11.305  19.295  0.00  0.00    +0.000 OA
ATOM     21  O   UNL     1      -7.692  13.045  21.074  0.00  0.00    +0.000 OA
BRANCH  19  22
ATOM     22  C   UNL     1      -6.976  13.764  18.686  0.00  0.00    +0.000 A 
ATOM     23  C   UNL     1      -7.355  13.460  17.371  0.00  0.00    +0.000 A 
ATOM     24  C   UNL     1      -7.379  14.469  16.405  0.00  0.00    +0.000 A 
ATOM     25  C   UNL     1      -7.034  15.776  16.753  0.00  0.00    +0.000 A 
ATOM     26  C   UNL     1      -6.685  16.077  18.068  0.00  0.00    +0.000 A 
ATOM     27  C   UNL     1      -6.669  15.072  19.033  0.00  0.00    +0.000 A 
ATOM     28  F   UNL     1      -6.343  15.404  20.290  0.00  0.00    +0.000 F 
ENDBRANCH  19  22
ENDBRANCH   8  19
TORSDOF 3
ENDMDL
MODEL 8
REMARK VINA RESULT:      -6.9      1.653      2.959
REMARK  Name = 
REMARK  4 active torsions:
REMARK  status: ('A' for Active; 'I' for Inactive)
REMARK    1  A    between atoms: C_1  and  C_2
REMARK    2  A    between atoms: C_4  and  N_5
REMARK    3  A    between atoms: N_14  and  S_15
REMARK    4  A    between atoms: S_15  and  C_18
REMARK                            x       y       z     vdW  Elec       q    Type
REMARK                         _______ _______ _______ _____ _____    ______ ____
ROOT
ATOM      1  C   UNL     1       4.461   7.949  16.446  0.00  0.00    +0.000 C 
ATOM      2  C   UNL     1       3.627   7.419  17.575  0.00  0.00    +0.000 A 
ATOM      3  C   UNL     1       2.748   8.247  18.280  0.00  0.00    +0.000 A 
ATOM      4  C   UNL     1       2.003   7.788  19.382  0.00  0.00    +0.000 A 
ATOM      5  C   UNL     1       2.144   6.421  19.728  0.00  0.00    +0.000 A 
ATOM      6  C   UNL     1       3.035   5.560  19.034  0.00  0.00    +0.000 A 
ATOM      7  C   UNL     1       3.774   6.088  17.972  0.00  0.00    +0.000 A 
ATOM      8  N   UNL     1       3.283   4.222  19.544  0.00  0.00    +0.000 N 
ATOM      9  C   UNL     1       2.625   3.914  20.837  0.00  0.00    +0.000 C 
ATOM     10  C   UNL     1       1.254   4.561  20.874  0.00  0.00    +0.000 C 
ATOM     11  O   UNL     1       1.367   5.977  20.782  0.00  0.00    +0.000 OA
ENDROOT
BRANCH   4  12
ATOM     12  N   UNL     1       1.253   8.710  20.100  0.00  0.00    +0.000 N 
ATOM     13  C   UNL     1       0.803   9.989  19.529  0.00  0.00    +0.000 C 
ATOM     14  C   UNL     1      -0.602  10.328  20.083  0.00  0.00    +0.000 C 
ATOM     15  N   UNL     1      -0.703  10.301  21.558  0.00  0.00    +0.000 NA
ATOM     16  C   UNL     1      -0.173   9.020  22.069  0.00  0.00    +0.000 C 
ATOM     17  C   UNL     1       1.255   8.702  21.569  0.00  0.00    +0.000 C 
ATOM     18  H   UNL     1      -1.686  10.375  21.816  0.00  0.00    +0.000 HD
ENDBRANCH   4  12
BRANCH   8  19
ATOM     19  S   UNL     1       3.712   2.919  18.543  0.00  0.00    +0.000 S 
ATOM     20  O   UNL     1       4.272   1.857  19.355  0.00  0.00    +0.000 OA
ATOM     21  O   UNL     1       2.603   2.612  17.659  0.00  0.00    +0.000 OA
BRANCH  19  22
ATOM     22  C   UNL     1       5.026   3.533  17.531  0.00  0.00    +0.000 A 
ATOM     23  C   UNL     1       4.933   3.451  16.135  0.00  0.00    +0.000 A 
ATOM     24  C   UNL     1       5.957   3.972  15.339  0.00  0.00    +0.000 A 
ATOM     25  C   UNL     1       7.063   4.579  15.937  0.00  0.00    +0.000 A 
ATOM     26  C   UNL     1       7.136   4.681  17.325  0.00  0.00    +0.000 A 
ATOM     27  C   UNL     1       6.111   4.168  18.117  0.00  0.00    +0.000 A 
ATOM     28  F   UNL     1       6.210   4.299  19.447  0.00  0.00    +0.000 F 
ENDBRANCH  19  22
ENDBRANCH   8  19
TORSDOF 3
ENDMDL
MODEL 9
REMARK VINA RESULT:      -6.8      8.220     12.588
REMARK  Name = 
REMARK  4 active torsions:
REMARK  status: ('A' for Active; 'I' for Inactive)
REMARK    1  A    between atoms: C_1  and  C_2
REMARK    2  A    between atoms: C_4  and  N_5
REMARK    3  A    between atoms: N_14  and  S_15
REMARK    4  A    between atoms: S_15  and  C_18
REMARK                            x       y       z     vdW  Elec       q    Type
REMARK                         _______ _______ _______ _____ _____    ______ ____
ROOT
ATOM      1  C   UNL     1      -3.137  13.273  24.090  0.00  0.00    +0.000 C 
ATOM      2  C   UNL     1      -3.055  12.892  22.641  0.00  0.00    +0.000 A 
ATOM      3  C   UNL     1      -1.822  12.695  22.011  0.00  0.00    +0.000 A 
ATOM      4  C   UNL     1      -1.718  12.400  20.639  0.00  0.00    +0.000 A 
ATOM      5  C   UNL     1      -2.930  12.261  19.918  0.00  0.00    +0.000 A 
ATOM      6  C   UNL     1      -4.195  12.464  20.532  0.00  0.00    +0.000 A 
ATOM      7  C   UNL     1      -4.228  12.791  21.890  0.00  0.00    +0.000 A 
ATOM      8  N   UNL     1      -5.394  12.495  19.711  0.00  0.00    +0.000 N 
ATOM      9  C   UNL     1      -5.154  12.401  18.250  0.00  0.00    +0.000 C 
ATOM     10  C   UNL     1      -4.009  11.443  17.986  0.00  0.00    +0.000 C 
ATOM     11  O   UNL     1      -2.808  11.922  18.583  0.00  0.00    +0.000 OA
ENDROOT
BRANCH   4  12
ATOM     12  N   UNL     1      -0.452  12.346  20.071  0.00  0.00    +0.000 N 
ATOM     13  C   UNL     1       0.395  11.144  20.125  0.00  0.00    +0.000 C 
ATOM     14  C   UNL     1       1.190  11.022  18.802  0.00  0.00    +0.000 C 
ATOM     15  N   UNL     1       1.951  12.234  18.430  0.00  0.00    +0.000 NA
ATOM     16  C   UNL     1       1.058  13.411  18.462  0.00  0.00    +0.000 C 
ATOM     17  C   UNL     1       0.306  13.575  19.802  0.00  0.00    +0.000 C 
ATOM     18  H   UNL     1       2.303  12.115  17.481  0.00  0.00    +0.000 HD
ENDBRANCH   4  12
BRANCH   8  19
ATOM     19  S   UNL     1      -6.922  12.041  20.294  0.00  0.00    +0.000 S 
ATOM     20  O   UNL     1      -7.916  12.280  19.267  0.00  0.00    +0.000 OA
ATOM     21  O   UNL     1      -6.833  10.718  20.884  0.00  0.00    +0.000 OA
BRANCH  19  22
ATOM     22  C   UNL     1      -7.266  13.171  21.609  0.00  0.00    +0.000 A 
ATOM     23  C   UNL     1      -7.480  12.692  22.908  0.00  0.00    +0.000 A 
ATOM     24  C   UNL     1      -7.713  13.593  23.951  0.00  0.00    +0.000 A 
ATOM     25  C   UNL     1      -7.724  14.965  23.696  0.00  0.00    +0.000 A 
ATOM     26  C   UNL     1      -7.482  15.436  22.407  0.00  0.00    +0.000 A 
ATOM     27  C   UNL     1      -7.242  14.537  21.369  0.00  0.00    +0.000 A 
ATOM     28  F   UNL     1      -7.000  15.029  20.147  0.00  0.00    +0.000 F 
ENDBRANCH  19  22
ENDBRANCH   8  19
TORSDOF 3
ENDMDL
