MODEL 1
REMARK VINA RESULT:      -5.7      0.000      0.000
REMARK  Name = 
REMARK  2 active torsions:
REMARK  status: ('A' for Active; 'I' for Inactive)
REMARK    1  A    between atoms: C_2  and  C_4
REMARK    2  A    between atoms: C_7  and  N_8
REMARK                            x       y       z     vdW  Elec       q    Type
REMARK                         _______ _______ _______ _____ _____    ______ ____
ROOT
ATOM      1  C   UNL     1       6.950   4.951  16.290  0.00  0.00    +0.000 A 
ATOM      2  C   UNL     1       5.799   4.276  15.909  0.00  0.00    +0.000 A 
ATOM      3  C   UNL     1       5.814   4.181  14.495  0.00  0.00    +0.000 A 
ATOM      4  C   UNL     1       6.977   4.799  14.103  0.00  0.00    +0.000 A 
ATOM      5  O   UNL     1       7.675   5.276  15.169  0.00  0.00    +0.000 OA
ENDROOT
BRANCH   1   7
ATOM      6  O   UNL     1       7.696   4.452  18.455  0.00  0.00    +0.000 OA
ATOM      7  C   UNL     1       7.437   5.310  17.614  0.00  0.00    +0.000 C 
ATOM      8 CL   UNL     1       7.613   7.027  17.897  0.00  0.00    +0.000 Cl
ENDBRANCH   1   7
BRANCH   4   9
ATOM      9  N   UNL     1       7.555   5.007  12.812  0.00  0.00    +0.000 N 
ATOM     10  O   UNL     1       8.323   5.972  12.707  0.00  0.00    +0.000 OA
ATOM     11  O   UNL     1       7.245   4.220  11.908  0.00  0.00    +0.000 OA
ENDBRANCH   4   9
TORSDOF 2
ENDMDL
MODEL 2
REMARK VINA RESULT:      -5.7      2.883      4.679
REMARK  Name = 
REMARK  2 active torsions:
REMARK  status: ('A' for Active; 'I' for Inactive)
REMARK    1  A    between atoms: C_2  and  C_4
REMARK    2  A    between atoms: C_7  and  N_8
REMARK                            x       y       z     vdW  Elec       q    Type
REMARK                         _______ _______ _______ _____ _____    ______ ____
ROOT
ATOM      1  C   UNL     1       6.747   4.801  15.774  0.00  0.00    +0.000 A 
ATOM      2  C   UNL     1       5.718   4.174  16.463  0.00  0.00    +0.000 A 
ATOM      3  C   UNL     1       5.877   4.489  17.836  0.00  0.00    +0.000 A 
ATOM      4  C   UNL     1       6.988   5.294  17.896  0.00  0.00    +0.000 A 
ATOM      5  O   UNL     1       7.533   5.490  16.665  0.00  0.00    +0.000 OA
ENDROOT
BRANCH   1   7
ATOM      6  O   UNL     1       7.924   5.555  13.894  0.00  0.00    +0.000 OA
ATOM      7  C   UNL     1       7.053   4.819  14.350  0.00  0.00    +0.000 C 
ATOM      8 CL   UNL     1       6.095   3.731  13.373  0.00  0.00    +0.000 Cl
ENDBRANCH   1   7
BRANCH   4   9
ATOM      9  N   UNL     1       7.637   5.939  18.996  0.00  0.00    +0.000 N 
ATOM     10  O   UNL     1       8.239   6.988  18.735  0.00  0.00    +0.000 OA
ATOM     11  O   UNL     1       7.551   5.405  20.109  0.00  0.00    +0.000 OA
ENDBRANCH   4   9
TORSDOF 2
ENDMDL
MODEL 3
REMARK VINA RESULT:      -5.6      1.317      1.522
REMARK  Name = 
REMARK  2 active torsions:
REMARK  status: ('A' for Active; 'I' for Inactive)
REMARK    1  A    between atoms: C_2  and  C_4
REMARK    2  A    between atoms: C_7  and  N_8
REMARK                            x       y       z     vdW  Elec       q    Type
REMARK                         _______ _______ _______ _____ _____    ______ ____
ROOT
ATOM      1  C   UNL     1       6.878   5.300  17.698  0.00  0.00    +0.000 A 
ATOM      2  C   UNL     1       5.745   4.503  17.602  0.00  0.00    +0.000 A 
ATOM      3  C   UNL     1       5.595   4.149  16.237  0.00  0.00    +0.000 A 
ATOM      4  C   UNL     1       6.648   4.746  15.590  0.00  0.00    +0.000 A 
ATOM      5  O   UNL     1       7.432   5.451  16.450  0.00  0.00    +0.000 OA
ENDROOT
BRANCH   1   7
ATOM      6  O   UNL     1       7.450   5.397  19.969  0.00  0.00    +0.000 OA
ATOM      7  C   UNL     1       7.493   5.926  18.860  0.00  0.00    +0.000 C 
ATOM      8 CL   UNL     1       8.275   7.458  18.548  0.00  0.00    +0.000 Cl
ENDBRANCH   1   7
BRANCH   4   9
ATOM      9  N   UNL     1       7.046   4.743  14.216  0.00  0.00    +0.000 N 
ATOM     10  O   UNL     1       7.914   5.565  13.897  0.00  0.00    +0.000 OA
ATOM     11  O   UNL     1       6.497   3.931  13.460  0.00  0.00    +0.000 OA
ENDBRANCH   4   9
TORSDOF 2
ENDMDL
MODEL 4
REMARK VINA RESULT:      -5.5      2.750      4.473
REMARK  Name = 
REMARK  2 active torsions:
REMARK  status: ('A' for Active; 'I' for Inactive)
REMARK    1  A    between atoms: C_2  and  C_4
REMARK    2  A    between atoms: C_7  and  N_8
REMARK                            x       y       z     vdW  Elec       q    Type
REMARK                         _______ _______ _______ _____ _____    ______ ____
ROOT
ATOM      1  C   UNL     1       6.928   4.750  14.406  0.00  0.00    +0.000 A 
ATOM      2  C   UNL     1       5.623   4.296  14.542  0.00  0.00    +0.000 A 
ATOM      3  C   UNL     1       5.369   4.155  15.929  0.00  0.00    +0.000 A 
ATOM      4  C   UNL     1       6.532   4.538  16.551  0.00  0.00    +0.000 A 
ATOM      5  O   UNL     1       7.488   4.895  15.652  0.00  0.00    +0.000 OA
ENDROOT
BRANCH   1   7
ATOM      6  O   UNL     1       8.605   5.893  13.234  0.00  0.00    +0.000 OA
ATOM      7  C   UNL     1       7.694   5.069  13.209  0.00  0.00    +0.000 C 
ATOM      8 CL   UNL     1       7.215   4.199  11.770  0.00  0.00    +0.000 Cl
ENDBRANCH   1   7
BRANCH   4   9
ATOM      9  N   UNL     1       6.886   4.628  17.934  0.00  0.00    +0.000 N 
ATOM     10  O   UNL     1       5.975   4.936  18.712  0.00  0.00    +0.000 OA
ATOM     11  O   UNL     1       8.062   4.396  18.243  0.00  0.00    +0.000 OA
ENDBRANCH   4   9
TORSDOF 2
ENDMDL
MODEL 5
REMARK VINA RESULT:      -5.4      3.103      4.842
REMARK  Name = 
REMARK  2 active torsions:
REMARK  status: ('A' for Active; 'I' for Inactive)
REMARK    1  A    between atoms: C_2  and  C_4
REMARK    2  A    between atoms: C_7  and  N_8
REMARK                            x       y       z     vdW  Elec       q    Type
REMARK                         _______ _______ _______ _____ _____    ______ ____
ROOT
ATOM      1  C   UNL     1       6.208   5.284  15.628  0.00  0.00    +0.000 A 
ATOM      2  C   UNL     1       5.212   6.217  15.887  0.00  0.00    +0.000 A 
ATOM      3  C   UNL     1       4.926   6.154  17.274  0.00  0.00    +0.000 A 
ATOM      4  C   UNL     1       5.770   5.191  17.774  0.00  0.00    +0.000 A 
ATOM      5  O   UNL     1       6.547   4.649  16.798  0.00  0.00    +0.000 OA
ENDROOT
BRANCH   1   7
ATOM      6  O   UNL     1       7.918   5.496  14.041  0.00  0.00    +0.000 OA
ATOM      7  C   UNL     1       6.876   4.942  14.380  0.00  0.00    +0.000 C 
ATOM      8 CL   UNL     1       6.083   3.706  13.431  0.00  0.00    +0.000 Cl
ENDBRANCH   1   7
BRANCH   4   9
ATOM      9  N   UNL     1       5.962   4.691  19.100  0.00  0.00    +0.000 N 
ATOM     10  O   UNL     1       6.753   5.323  19.812  0.00  0.00    +0.000 OA
ATOM     11  O   UNL     1       5.335   3.676  19.429  0.00  0.00    +0.000 OA
ENDBRANCH   4   9
TORSDOF 2
ENDMDL
MODEL 6
REMARK VINA RESULT:      -5.4      1.368      1.383
REMARK  Name = 
REMARK  2 active torsions:
REMARK  status: ('A' for Active; 'I' for Inactive)
REMARK    1  A    between atoms: C_2  and  C_4
REMARK    2  A    between atoms: C_7  and  N_8
REMARK                            x       y       z     vdW  Elec       q    Type
REMARK                         _______ _______ _______ _____ _____    ______ ____
ROOT
ATOM      1  C   UNL     1       6.975   5.668  16.485  0.00  0.00    +0.000 A 
ATOM      2  C   UNL     1       6.140   4.564  16.582  0.00  0.00    +0.000 A 
ATOM      3  C   UNL     1       6.061   3.981  15.293  0.00  0.00    +0.000 A 
ATOM      4  C   UNL     1       6.858   4.762  14.492  0.00  0.00    +0.000 A 
ATOM      5  O   UNL     1       7.415   5.789  15.189  0.00  0.00    +0.000 OA
ENDROOT
BRANCH   1   7
ATOM      6  O   UNL     1       7.483   7.818  17.265  0.00  0.00    +0.000 OA
ATOM      7  C   UNL     1       7.406   6.615  17.503  0.00  0.00    +0.000 C 
ATOM      8 CL   UNL     1       7.797   5.909  19.055  0.00  0.00    +0.000 Cl
ENDBRANCH   1   7
BRANCH   4   9
ATOM      9  N   UNL     1       7.191   4.673  13.104  0.00  0.00    +0.000 N 
ATOM     10  O   UNL     1       7.989   5.518  12.679  0.00  0.00    +0.000 OA
ATOM     11  O   UNL     1       6.662   3.771  12.442  0.00  0.00    +0.000 OA
ENDBRANCH   4   9
TORSDOF 2
ENDMDL
MODEL 7
REMARK VINA RESULT:      -5.3      3.429      4.983
REMARK  Name = 
REMARK  2 active torsions:
REMARK  status: ('A' for Active; 'I' for Inactive)
REMARK    1  A    between atoms: C_2  and  C_4
REMARK    2  A    between atoms: C_7  and  N_8
REMARK                            x       y       z     vdW  Elec       q    Type
REMARK                         _______ _______ _______ _____ _____    ______ ____
ROOT
ATOM      1  C   UNL     1       6.246   3.553  12.356  0.00  0.00    +0.000 A 
ATOM      2  C   UNL     1       7.272   4.362  11.889  0.00  0.00    +0.000 A 
ATOM      3  C   UNL     1       7.751   5.114  12.992  0.00  0.00    +0.000 A 
ATOM      4  C   UNL     1       6.990   4.711  14.063  0.00  0.00    +0.000 A 
ATOM      5  O   UNL     1       6.072   3.775  13.701  0.00  0.00    +0.000 OA
ENDROOT
BRANCH   1   7
ATOM      6  O   UNL     1       5.812   1.437  11.447  0.00  0.00    +0.000 OA
ATOM      7  C   UNL     1       5.418   2.583  11.654  0.00  0.00    +0.000 C 
ATOM      8 CL   UNL     1       3.855   3.176  11.141  0.00  0.00    +0.000 Cl
ENDBRANCH   1   7
BRANCH   4   9
ATOM      9  N   UNL     1       7.009   5.092  15.441  0.00  0.00    +0.000 N 
ATOM     10  O   UNL     1       6.255   6.020  15.761  0.00  0.00    +0.000 OA
ATOM     11  O   UNL     1       7.770   4.476  16.198  0.00  0.00    +0.000 OA
ENDBRANCH   4   9
TORSDOF 2
ENDMDL
MODEL 8
REMARK VINA RESULT:      -5.3      3.553      5.374
REMARK  Name = 
REMARK  2 active torsions:
REMARK  status: ('A' for Active; 'I' for Inactive)
REMARK    1  A    between atoms: C_2  and  C_4
REMARK    2  A    between atoms: C_7  and  N_8
REMARK                            x       y       z     vdW  Elec       q    Type
REMARK                         _______ _______ _______ _____ _____    ______ ____
ROOT
ATOM      1  C   UNL     1       5.959   4.831  17.670  0.00  0.00    +0.000 A 
ATOM      2  C   UNL     1       4.889   4.525  16.840  0.00  0.00    +0.000 A 
ATOM      3  C   UNL     1       4.042   3.640  17.554  0.00  0.00    +0.000 A 
ATOM      4  C   UNL     1       4.645   3.468  18.776  0.00  0.00    +0.000 A 
ATOM      5  O   UNL     1       5.806   4.172  18.866  0.00  0.00    +0.000 OA
ENDROOT
BRANCH   1   7
ATOM      6  O   UNL     1       7.453   6.018  16.310  0.00  0.00    +0.000 OA
ATOM      7  C   UNL     1       7.109   5.695  17.444  0.00  0.00    +0.000 C 
ATOM      8 CL   UNL     1       7.938   6.218  18.893  0.00  0.00    +0.000 Cl
ENDBRANCH   1   7
BRANCH   4   9
ATOM      9  N   UNL     1       4.266   2.707  19.926  0.00  0.00    +0.000 N 
ATOM     10  O   UNL     1       3.121   2.901  20.355  0.00  0.00    +0.000 OA
ATOM     11  O   UNL     1       5.100   1.925  20.400  0.00  0.00    +0.000 OA
ENDBRANCH   4   9
TORSDOF 2
ENDMDL
MODEL 9
REMARK VINA RESULT:      -5.3      4.645      5.293
REMARK  Name = 
REMARK  2 active torsions:
REMARK  status: ('A' for Active; 'I' for Inactive)
REMARK    1  A    between atoms: C_2  and  C_4
REMARK    2  A    between atoms: C_7  and  N_8
REMARK                            x       y       z     vdW  Elec       q    Type
REMARK                         _______ _______ _______ _____ _____    ______ ____
ROOT
ATOM      1  C   UNL     1       6.047   4.903  18.602  0.00  0.00    +0.000 A 
ATOM      2  C   UNL     1       5.372   5.029  17.396  0.00  0.00    +0.000 A 
ATOM      3  C   UNL     1       4.345   4.052  17.384  0.00  0.00    +0.000 A 
ATOM      4  C   UNL     1       4.454   3.396  18.587  0.00  0.00    +0.000 A 
ATOM      5  O   UNL     1       5.478   3.889  19.335  0.00  0.00    +0.000 OA
ENDROOT
BRANCH   1   7
ATOM      6  O   UNL     1       7.663   5.388  20.229  0.00  0.00    +0.000 OA
ATOM      7  C   UNL     1       7.174   5.656  19.134  0.00  0.00    +0.000 C 
ATOM      8 CL   UNL     1       7.754   6.946  18.105  0.00  0.00    +0.000 Cl
ENDBRANCH   1   7
BRANCH   4   9
ATOM      9  N   UNL     1       3.695   2.329  19.161  0.00  0.00    +0.000 N 
ATOM     10  O   UNL     1       3.523   1.335  18.446  0.00  0.00    +0.000 OA
ATOM     11  O   UNL     1       3.271   2.481  20.314  0.00  0.00    +0.000 OA
ENDBRANCH   4   9
TORSDOF 2
ENDMDL
