MODEL 1
REMARK VINA RESULT:      -6.9      0.000      0.000
REMARK  Name = 
REMARK  12 active torsions:
REMARK  status: ('A' for Active; 'I' for Inactive)
REMARK    1  A    between atoms: C_1  and  C_2
REMARK    2  A    between atoms: C_2  and  C_3
REMARK    3  A    between atoms: C_5  and  C_6
REMARK    4  A    between atoms: N_8  and  C_9
REMARK    5  A    between atoms: C_9  and  C_10
REMARK    6  A    between atoms: C_10  and  C_11
REMARK    7  A    between atoms: C_11  and  C_12
REMARK    8  A    between atoms: C_12  and  N_13
REMARK    9  A    between atoms: N_13  and  C_14
REMARK   10  A    between atoms: C_14  and  C_15
REMARK   11  A    between atoms: C_20  and  C_21
REMARK   12  A    between atoms: C_20  and  C_22
REMARK                            x       y       z     vdW  Elec       q    Type
REMARK                         _______ _______ _______ _____ _____    ______ ____
ROOT
ATOM      1  C   UNL     1       4.861   3.656  18.441  0.00  0.00    +0.000 C 
ATOM      2  O   UNL     1       5.424   3.592  19.526  0.00  0.00    +0.000 OA
ATOM      3  N   UNL     1       3.615   3.127  18.189  0.00  0.00    +0.000 N 
ATOM      4  H   UNL     1       3.280   3.091  17.237  0.00  0.00    +0.000 HD
ENDROOT
BRANCH   1   9
ATOM      5  C   UNL     1       6.350   4.017  13.909  0.00  0.00    +0.000 C 
ATOM      6  C   UNL     1       5.941   4.935  15.066  0.00  0.00    +0.000 C 
ATOM      7  C   UNL     1       5.262   6.192  14.516  0.00  0.00    +0.000 C 
ATOM      8  C   UNL     1       5.048   4.205  16.010  0.00  0.00    +0.000 C 
ATOM      9  C   UNL     1       5.507   4.276  17.263  0.00  0.00    +0.000 C 
ATOM     10  C   UNL     1       6.733   5.145  17.329  0.00  0.00    +0.000 C 
ATOM     11  C   UNL     1       7.915   4.523  18.085  0.00  0.00    +0.000 C 
ATOM     12  C   UNL     1       6.448   6.544  17.899  0.00  0.00    +0.000 C 
ATOM     13  N   UNL     1       7.119   5.314  15.884  0.00  0.00    +0.000 NA
ATOM     14  H   UNL     1       7.874   4.657  15.686  0.00  0.00    +0.000 HD
ENDBRANCH   1   9
BRANCH   3  15
ATOM     15  C   UNL     1       2.806   2.483  19.202  0.00  0.00    +0.000 C 
BRANCH  15  16
ATOM     16  C   UNL     1       1.349   2.925  19.111  0.00  0.00    +0.000 C 
BRANCH  16  17
ATOM     17  C   UNL     1       0.961   3.807  20.299  0.00  0.00    +0.000 C 
BRANCH  17  18
ATOM     18  C   UNL     1       2.195   4.388  20.993  0.00  0.00    +0.000 C 
BRANCH  18  19
ATOM     19  N   UNL     1       2.176   5.847  20.887  0.00  0.00    +0.000 NA
ATOM     20  H   UNL     1       2.702   6.259  21.657  0.00  0.00    +0.000 HD
BRANCH  19  21
ATOM     21  C   UNL     1       2.769   6.296  19.626  0.00  0.00    +0.000 C 
BRANCH  21  22
ATOM     22  C   UNL     1       2.178   7.614  19.212  0.00  0.00    +0.000 A 
ATOM     23  C   UNL     1       2.233   8.226  17.974  0.00  0.00    +0.000 A 
ATOM     24  C   UNL     1       1.581   9.492  17.959  0.00  0.00    +0.000 A 
ATOM     25  C   UNL     1       1.046   9.808  19.189  0.00  0.00    +0.000 A 
ATOM     26  S   UNL     1       1.326   8.579  20.345  0.00  0.00    +0.000 S 
ENDBRANCH  21  22
ENDBRANCH  19  21
ENDBRANCH  18  19
ENDBRANCH  17  18
ENDBRANCH  16  17
ENDBRANCH  15  16
ENDBRANCH   3  15
TORSDOF 8
ENDMDL
MODEL 2
REMARK VINA RESULT:      -6.9      3.963      8.186
REMARK  Name = 
REMARK  12 active torsions:
REMARK  status: ('A' for Active; 'I' for Inactive)
REMARK    1  A    between atoms: C_1  and  C_2
REMARK    2  A    between atoms: C_2  and  C_3
REMARK    3  A    between atoms: C_5  and  C_6
REMARK    4  A    between atoms: N_8  and  C_9
REMARK    5  A    between atoms: C_9  and  C_10
REMARK    6  A    between atoms: C_10  and  C_11
REMARK    7  A    between atoms: C_11  and  C_12
REMARK    8  A    between atoms: C_12  and  N_13
REMARK    9  A    between atoms: N_13  and  C_14
REMARK   10  A    between atoms: C_14  and  C_15
REMARK   11  A    between atoms: C_20  and  C_21
REMARK   12  A    between atoms: C_20  and  C_22
REMARK                            x       y       z     vdW  Elec       q    Type
REMARK                         _______ _______ _______ _____ _____    ______ ____
ROOT
ATOM      1  C   UNL     1       0.296  10.020  18.692  0.00  0.00    +0.000 C 
ATOM      2  O   UNL     1       0.477   9.921  19.899  0.00  0.00    +0.000 OA
ATOM      3  N   UNL     1       1.231   9.674  17.743  0.00  0.00    +0.000 N 
ATOM      4  H   UNL     1       1.066   9.919  16.778  0.00  0.00    +0.000 HD
ENDROOT
BRANCH   1   9
ATOM      5  C   UNL     1      -3.125  10.796  15.438  0.00  0.00    +0.000 C 
ATOM      6  C   UNL     1      -2.963  10.781  16.962  0.00  0.00    +0.000 C 
ATOM      7  C   UNL     1      -4.261  10.301  17.617  0.00  0.00    +0.000 C 
ATOM      8  C   UNL     1      -1.810   9.920  17.349  0.00  0.00    +0.000 C 
ATOM      9  C   UNL     1      -0.955  10.581  18.136  0.00  0.00    +0.000 C 
ATOM     10  C   UNL     1      -1.479  11.956  18.448  0.00  0.00    +0.000 C 
ATOM     11  C   UNL     1      -0.464  13.088  18.234  0.00  0.00    +0.000 C 
ATOM     12  C   UNL     1      -2.068  12.068  19.864  0.00  0.00    +0.000 C 
ATOM     13  N   UNL     1      -2.609  12.130  17.471  0.00  0.00    +0.000 NA
ATOM     14  H   UNL     1      -2.263  12.688  16.690  0.00  0.00    +0.000 HD
ENDBRANCH   1   9
BRANCH   3  15
ATOM     15  C   UNL     1       2.519   9.099  18.070  0.00  0.00    +0.000 C 
BRANCH  15  16
ATOM     16  C   UNL     1       2.496   7.580  17.944  0.00  0.00    +0.000 C 
BRANCH  16  17
ATOM     17  C   UNL     1       3.844   7.041  17.464  0.00  0.00    +0.000 C 
BRANCH  17  18
ATOM     18  C   UNL     1       4.181   5.703  18.124  0.00  0.00    +0.000 C 
BRANCH  18  19
ATOM     19  N   UNL     1       3.905   4.612  17.191  0.00  0.00    +0.000 NA
ATOM     20  H   UNL     1       4.583   4.624  16.429  0.00  0.00    +0.000 HD
BRANCH  19  21
ATOM     21  C   UNL     1       3.978   3.311  17.858  0.00  0.00    +0.000 C 
BRANCH  21  22
ATOM     22  C   UNL     1       2.838   3.156  18.826  0.00  0.00    +0.000 A 
ATOM     23  C   UNL     1       1.485   3.303  18.585  0.00  0.00    +0.000 A 
ATOM     24  C   UNL     1       0.697   3.109  19.755  0.00  0.00    +0.000 A 
ATOM     25  C   UNL     1       1.473   2.817  20.855  0.00  0.00    +0.000 A 
ATOM     26  S   UNL     1       3.139   2.773  20.470  0.00  0.00    +0.000 S 
ENDBRANCH  21  22
ENDBRANCH  19  21
ENDBRANCH  18  19
ENDBRANCH  17  18
ENDBRANCH  16  17
ENDBRANCH  15  16
ENDBRANCH   3  15
TORSDOF 8
ENDMDL
MODEL 3
REMARK VINA RESULT:      -6.8      4.054      6.945
REMARK  Name = 
REMARK  12 active torsions:
REMARK  status: ('A' for Active; 'I' for Inactive)
REMARK    1  A    between atoms: C_1  and  C_2
REMARK    2  A    between atoms: C_2  and  C_3
REMARK    3  A    between atoms: C_5  and  C_6
REMARK    4  A    between atoms: N_8  and  C_9
REMARK    5  A    between atoms: C_9  and  C_10
REMARK    6  A    between atoms: C_10  and  C_11
REMARK    7  A    between atoms: C_11  and  C_12
REMARK    8  A    between atoms: C_12  and  N_13
REMARK    9  A    between atoms: N_13  and  C_14
REMARK   10  A    between atoms: C_14  and  C_15
REMARK   11  A    between atoms: C_20  and  C_21
REMARK   12  A    between atoms: C_20  and  C_22
REMARK                            x       y       z     vdW  Elec       q    Type
REMARK                         _______ _______ _______ _____ _____    ______ ____
ROOT
ATOM      1  C   UNL     1       4.973   4.821  18.181  0.00  0.00    +0.000 C 
ATOM      2  O   UNL     1       4.796   5.706  17.354  0.00  0.00    +0.000 OA
ATOM      3  N   UNL     1       6.213   4.349  18.548  0.00  0.00    +0.000 N 
ATOM      4  H   UNL     1       6.273   3.523  19.126  0.00  0.00    +0.000 HD
ENDROOT
BRANCH   1   9
ATOM      5  C   UNL     1       2.488   2.847  21.760  0.00  0.00    +0.000 C 
ATOM      6  C   UNL     1       2.227   3.524  20.410  0.00  0.00    +0.000 C 
ATOM      7  C   UNL     1       0.910   4.301  20.465  0.00  0.00    +0.000 C 
ATOM      8  C   UNL     1       3.368   4.414  20.053  0.00  0.00    +0.000 C 
ATOM      9  C   UNL     1       3.842   4.129  18.836  0.00  0.00    +0.000 C 
ATOM     10  C   UNL     1       3.012   3.057  18.184  0.00  0.00    +0.000 C 
ATOM     11  C   UNL     1       3.823   1.902  17.581  0.00  0.00    +0.000 C 
ATOM     12  C   UNL     1       2.049   3.607  17.118  0.00  0.00    +0.000 C 
ATOM     13  N   UNL     1       2.178   2.522  19.316  0.00  0.00    +0.000 NA
ATOM     14  H   UNL     1       2.618   1.663  19.646  0.00  0.00    +0.000 HD
ENDBRANCH   1   9
BRANCH   3  15
ATOM     15  C   UNL     1       7.453   4.890  18.034  0.00  0.00    +0.000 C 
BRANCH  15  16
ATOM     16  C   UNL     1       7.705   6.298  18.564  0.00  0.00    +0.000 C 
BRANCH  16  17
ATOM     17  C   UNL     1       7.778   7.315  17.424  0.00  0.00    +0.000 C 
BRANCH  17  18
ATOM     18  C   UNL     1       7.835   8.749  17.955  0.00  0.00    +0.000 C 
BRANCH  18  19
ATOM     19  N   UNL     1       8.985   8.896  18.847  0.00  0.00    +0.000 NA
ATOM     20  H   UNL     1       9.852   8.817  18.316  0.00  0.00    +0.000 HD
BRANCH  19  21
ATOM     21  C   UNL     1       8.970  10.195  19.523  0.00  0.00    +0.000 C 
BRANCH  21  22
ATOM     22  C   UNL     1       9.754  11.203  18.731  0.00  0.00    +0.000 A 
ATOM     23  C   UNL     1      11.126  11.330  18.626  0.00  0.00    +0.000 A 
ATOM     24  C   UNL     1      11.513  12.428  17.806  0.00  0.00    +0.000 A 
ATOM     25  C   UNL     1      10.423  13.107  17.308  0.00  0.00    +0.000 A 
ATOM     26  S   UNL     1       8.946  12.415  17.825  0.00  0.00    +0.000 S 
ENDBRANCH  21  22
ENDBRANCH  19  21
ENDBRANCH  18  19
ENDBRANCH  17  18
ENDBRANCH  16  17
ENDBRANCH  15  16
ENDBRANCH   3  15
TORSDOF 8
ENDMDL
MODEL 4
REMARK VINA RESULT:      -6.8      4.026      8.221
REMARK  Name = 
REMARK  12 active torsions:
REMARK  status: ('A' for Active; 'I' for Inactive)
REMARK    1  A    between atoms: C_1  and  C_2
REMARK    2  A    between atoms: C_2  and  C_3
REMARK    3  A    between atoms: C_5  and  C_6
REMARK    4  A    between atoms: N_8  and  C_9
REMARK    5  A    between atoms: C_9  and  C_10
REMARK    6  A    between atoms: C_10  and  C_11
REMARK    7  A    between atoms: C_11  and  C_12
REMARK    8  A    between atoms: C_12  and  N_13
REMARK    9  A    between atoms: N_13  and  C_14
REMARK   10  A    between atoms: C_14  and  C_15
REMARK   11  A    between atoms: C_20  and  C_21
REMARK   12  A    between atoms: C_20  and  C_22
REMARK                            x       y       z     vdW  Elec       q    Type
REMARK                         _______ _______ _______ _____ _____    ______ ____
ROOT
ATOM      1  C   UNL     1       0.207   9.935  18.690  0.00  0.00    +0.000 C 
ATOM      2  O   UNL     1       0.370   9.780  19.893  0.00  0.00    +0.000 OA
ATOM      3  N   UNL     1       1.149   9.614  17.739  0.00  0.00    +0.000 N 
ATOM      4  H   UNL     1       1.001   9.904  16.783  0.00  0.00    +0.000 HD
ENDROOT
BRANCH   1   9
ATOM      5  C   UNL     1      -3.212  10.827  15.465  0.00  0.00    +0.000 C 
ATOM      6  C   UNL     1      -3.037  10.814  16.987  0.00  0.00    +0.000 C 
ATOM      7  C   UNL     1      -4.346  10.389  17.658  0.00  0.00    +0.000 C 
ATOM      8  C   UNL     1      -1.914   9.911  17.368  0.00  0.00    +0.000 C 
ATOM      9  C   UNL     1      -1.026  10.542  18.142  0.00  0.00    +0.000 C 
ATOM     10  C   UNL     1      -1.492  11.938  18.452  0.00  0.00    +0.000 C 
ATOM     11  C   UNL     1      -0.437  13.028  18.221  0.00  0.00    +0.000 C 
ATOM     12  C   UNL     1      -2.063  12.081  19.873  0.00  0.00    +0.000 C 
ATOM     13  N   UNL     1      -2.625  12.151  17.485  0.00  0.00    +0.000 NA
ATOM     14  H   UNL     1      -2.265  12.690  16.698  0.00  0.00    +0.000 HD
ENDBRANCH   1   9
BRANCH   3  15
ATOM     15  C   UNL     1       2.423   9.003  18.057  0.00  0.00    +0.000 C 
BRANCH  15  16
ATOM     16  C   UNL     1       2.382   7.494  17.842  0.00  0.00    +0.000 C 
BRANCH  16  17
ATOM     17  C   UNL     1       2.509   6.741  19.168  0.00  0.00    +0.000 C 
BRANCH  17  18
ATOM     18  C   UNL     1       3.856   6.023  19.278  0.00  0.00    +0.000 C 
BRANCH  18  19
ATOM     19  N   UNL     1       3.644   4.576  19.241  0.00  0.00    +0.000 NA
ATOM     20  H   UNL     1       2.973   4.340  18.510  0.00  0.00    +0.000 HD
BRANCH  19  21
ATOM     21  C   UNL     1       4.895   3.864  18.971  0.00  0.00    +0.000 C 
BRANCH  21  22
ATOM     22  C   UNL     1       5.422   4.231  17.613  0.00  0.00    +0.000 A 
ATOM     23  C   UNL     1       4.756   4.209  16.401  0.00  0.00    +0.000 A 
ATOM     24  C   UNL     1       5.588   4.597  15.312  0.00  0.00    +0.000 A 
ATOM     25  C   UNL     1       6.865   4.905  15.726  0.00  0.00    +0.000 A 
ATOM     26  S   UNL     1       7.050   4.732  17.418  0.00  0.00    +0.000 S 
ENDBRANCH  21  22
ENDBRANCH  19  21
ENDBRANCH  18  19
ENDBRANCH  17  18
ENDBRANCH  16  17
ENDBRANCH  15  16
ENDBRANCH   3  15
TORSDOF 8
ENDMDL
MODEL 5
REMARK VINA RESULT:      -6.7      3.947      8.221
REMARK  Name = 
REMARK  12 active torsions:
REMARK  status: ('A' for Active; 'I' for Inactive)
REMARK    1  A    between atoms: C_1  and  C_2
REMARK    2  A    between atoms: C_2  and  C_3
REMARK    3  A    between atoms: C_5  and  C_6
REMARK    4  A    between atoms: N_8  and  C_9
REMARK    5  A    between atoms: C_9  and  C_10
REMARK    6  A    between atoms: C_10  and  C_11
REMARK    7  A    between atoms: C_11  and  C_12
REMARK    8  A    between atoms: C_12  and  N_13
REMARK    9  A    between atoms: N_13  and  C_14
REMARK   10  A    between atoms: C_14  and  C_15
REMARK   11  A    between atoms: C_20  and  C_21
REMARK   12  A    between atoms: C_20  and  C_22
REMARK                            x       y       z     vdW  Elec       q    Type
REMARK                         _______ _______ _______ _____ _____    ______ ____
ROOT
ATOM      1  C   UNL     1       0.188  10.007  18.734  0.00  0.00    +0.000 C 
ATOM      2  O   UNL     1       0.271   9.731  19.923  0.00  0.00    +0.000 OA
ATOM      3  N   UNL     1       1.222   9.860  17.836  0.00  0.00    +0.000 N 
ATOM      4  H   UNL     1       1.124  10.244  16.907  0.00  0.00    +0.000 HD
ENDROOT
BRANCH   1   9
ATOM      5  C   UNL     1      -3.172  10.802  15.422  0.00  0.00    +0.000 C 
ATOM      6  C   UNL     1      -3.032  10.806  16.948  0.00  0.00    +0.000 C 
ATOM      7  C   UNL     1      -4.348  10.361  17.592  0.00  0.00    +0.000 C 
ATOM      8  C   UNL     1      -1.901   9.929  17.363  0.00  0.00    +0.000 C 
ATOM      9  C   UNL     1      -1.044  10.584  18.152  0.00  0.00    +0.000 C 
ATOM     10  C   UNL     1      -1.545  11.974  18.437  0.00  0.00    +0.000 C 
ATOM     11  C   UNL     1      -0.506  13.083  18.221  0.00  0.00    +0.000 C 
ATOM     12  C   UNL     1      -2.151  12.118  19.843  0.00  0.00    +0.000 C 
ATOM     13  N   UNL     1      -2.659  12.155  17.442  0.00  0.00    +0.000 NA
ATOM     14  H   UNL     1      -2.291  12.695  16.659  0.00  0.00    +0.000 HD
ENDBRANCH   1   9
BRANCH   3  15
ATOM     15  C   UNL     1       2.511   9.308  18.193  0.00  0.00    +0.000 C 
BRANCH  15  16
ATOM     16  C   UNL     1       2.767   7.989  17.472  0.00  0.00    +0.000 C 
BRANCH  16  17
ATOM     17  C   UNL     1       2.226   6.804  18.274  0.00  0.00    +0.000 C 
BRANCH  17  18
ATOM     18  C   UNL     1       2.370   7.032  19.780  0.00  0.00    +0.000 C 
BRANCH  18  19
ATOM     19  N   UNL     1       3.065   5.896  20.384  0.00  0.00    +0.000 NA
ATOM     20  H   UNL     1       3.615   6.208  21.183  0.00  0.00    +0.000 HD
BRANCH  19  21
ATOM     21  C   UNL     1       2.117   4.877  20.841  0.00  0.00    +0.000 C 
BRANCH  21  22
ATOM     22  C   UNL     1       2.181   3.668  19.952  0.00  0.00    +0.000 A 
ATOM     23  C   UNL     1       1.137   2.890  19.487  0.00  0.00    +0.000 A 
ATOM     24  C   UNL     1       1.581   1.800  18.686  0.00  0.00    +0.000 A 
ATOM     25  C   UNL     1       2.953   1.779  18.562  0.00  0.00    +0.000 A 
ATOM     26  S   UNL     1       3.693   3.072  19.404  0.00  0.00    +0.000 S 
ENDBRANCH  21  22
ENDBRANCH  19  21
ENDBRANCH  18  19
ENDBRANCH  17  18
ENDBRANCH  16  17
ENDBRANCH  15  16
ENDBRANCH   3  15
TORSDOF 8
ENDMDL
MODEL 6
REMARK VINA RESULT:      -6.6      3.252      6.041
REMARK  Name = 
REMARK  12 active torsions:
REMARK  status: ('A' for Active; 'I' for Inactive)
REMARK    1  A    between atoms: C_1  and  C_2
REMARK    2  A    between atoms: C_2  and  C_3
REMARK    3  A    between atoms: C_5  and  C_6
REMARK    4  A    between atoms: N_8  and  C_9
REMARK    5  A    between atoms: C_9  and  C_10
REMARK    6  A    between atoms: C_10  and  C_11
REMARK    7  A    between atoms: C_11  and  C_12
REMARK    8  A    between atoms: C_12  and  N_13
REMARK    9  A    between atoms: N_13  and  C_14
REMARK   10  A    between atoms: C_14  and  C_15
REMARK   11  A    between atoms: C_20  and  C_21
REMARK   12  A    between atoms: C_20  and  C_22
REMARK                            x       y       z     vdW  Elec       q    Type
REMARK                         _______ _______ _______ _____ _____    ______ ____
ROOT
ATOM      1  C   UNL     1       2.054   7.054  19.982  0.00  0.00    +0.000 C 
ATOM      2  O   UNL     1       2.394   7.754  19.038  0.00  0.00    +0.000 OA
ATOM      3  N   UNL     1       1.581   7.551  21.176  0.00  0.00    +0.000 N 
ATOM      4  H   UNL     1       1.459   6.921  21.956  0.00  0.00    +0.000 HD
ENDROOT
BRANCH   1   9
ATOM      5  C   UNL     1       1.846   2.567  21.628  0.00  0.00    +0.000 C 
ATOM      6  C   UNL     1       1.739   3.313  20.294  0.00  0.00    +0.000 C 
ATOM      7  C   UNL     1       0.755   2.589  19.371  0.00  0.00    +0.000 C 
ATOM      8  C   UNL     1       1.326   4.726  20.526  0.00  0.00    +0.000 C 
ATOM      9  C   UNL     1       2.172   5.580  19.942  0.00  0.00    +0.000 C 
ATOM     10  C   UNL     1       3.222   4.835  19.163  0.00  0.00    +0.000 C 
ATOM     11  C   UNL     1       4.662   5.291  19.438  0.00  0.00    +0.000 C 
ATOM     12  C   UNL     1       2.969   4.849  17.647  0.00  0.00    +0.000 C 
ATOM     13  N   UNL     1       3.066   3.415  19.637  0.00  0.00    +0.000 NA
ATOM     14  H   UNL     1       3.787   3.241  20.337  0.00  0.00    +0.000 HD
ENDBRANCH   1   9
BRANCH   3  15
ATOM     15  C   UNL     1       1.382   8.962  21.426  0.00  0.00    +0.000 C 
BRANCH  15  16
ATOM     16  C   UNL     1      -0.046   9.386  21.097  0.00  0.00    +0.000 C 
BRANCH  16  17
ATOM     17  C   UNL     1      -0.524  10.499  22.032  0.00  0.00    +0.000 C 
BRANCH  17  18
ATOM     18  C   UNL     1      -0.746  11.810  21.275  0.00  0.00    +0.000 C 
BRANCH  18  19
ATOM     19  N   UNL     1      -0.065  11.751  19.982  0.00  0.00    +0.000 NA
ATOM     20  H   UNL     1       0.080  10.780  19.708  0.00  0.00    +0.000 HD
BRANCH  19  21
ATOM     21  C   UNL     1      -0.849  12.417  18.940  0.00  0.00    +0.000 C 
BRANCH  21  22
ATOM     22  C   UNL     1      -1.874  11.473  18.375  0.00  0.00    +0.000 A 
ATOM     23  C   UNL     1      -1.665  10.329  17.629  0.00  0.00    +0.000 A 
ATOM     24  C   UNL     1      -2.881   9.700  17.239  0.00  0.00    +0.000 A 
ATOM     25  C   UNL     1      -3.984  10.384  17.701  0.00  0.00    +0.000 A 
ATOM     26  S   UNL     1      -3.547  11.770  18.603  0.00  0.00    +0.000 S 
ENDBRANCH  21  22
ENDBRANCH  19  21
ENDBRANCH  18  19
ENDBRANCH  17  18
ENDBRANCH  16  17
ENDBRANCH  15  16
ENDBRANCH   3  15
TORSDOF 8
ENDMDL
MODEL 7
REMARK VINA RESULT:      -6.6      3.783      7.923
REMARK  Name = 
REMARK  12 active torsions:
REMARK  status: ('A' for Active; 'I' for Inactive)
REMARK    1  A    between atoms: C_1  and  C_2
REMARK    2  A    between atoms: C_2  and  C_3
REMARK    3  A    between atoms: C_5  and  C_6
REMARK    4  A    between atoms: N_8  and  C_9
REMARK    5  A    between atoms: C_9  and  C_10
REMARK    6  A    between atoms: C_10  and  C_11
REMARK    7  A    between atoms: C_11  and  C_12
REMARK    8  A    between atoms: C_12  and  N_13
REMARK    9  A    between atoms: N_13  and  C_14
REMARK   10  A    between atoms: C_14  and  C_15
REMARK   11  A    between atoms: C_20  and  C_21
REMARK   12  A    between atoms: C_20  and  C_22
REMARK                            x       y       z     vdW  Elec       q    Type
REMARK                         _______ _______ _______ _____ _____    ______ ____
ROOT
ATOM      1  C   UNL     1       0.224   9.714  19.346  0.00  0.00    +0.000 C 
ATOM      2  O   UNL     1       0.194   9.618  20.565  0.00  0.00    +0.000 OA
ATOM      3  N   UNL     1       1.160   9.095  18.549  0.00  0.00    +0.000 N 
ATOM      4  H   UNL     1       1.209   9.337  17.569  0.00  0.00    +0.000 HD
ENDROOT
BRANCH   1   9
ATOM      5  C   UNL     1      -2.671  11.011  15.764  0.00  0.00    +0.000 C 
ATOM      6  C   UNL     1      -2.530  11.236  17.273  0.00  0.00    +0.000 C 
ATOM      7  C   UNL     1      -3.915  11.388  17.907  0.00  0.00    +0.000 C 
ATOM      8  C   UNL     1      -1.770  10.113  17.892  0.00  0.00    +0.000 C 
ATOM      9  C   UNL     1      -0.735  10.565  18.607  0.00  0.00    +0.000 C 
ATOM     10  C   UNL     1      -0.723  12.069  18.627  0.00  0.00    +0.000 C 
ATOM     11  C   UNL     1       0.635  12.700  18.287  0.00  0.00    +0.000 C 
ATOM     12  C   UNL     1      -1.234  12.657  19.953  0.00  0.00    +0.000 C 
ATOM     13  N   UNL     1      -1.710  12.441  17.555  0.00  0.00    +0.000 NA
ATOM     14  H   UNL     1      -1.182  12.675  16.714  0.00  0.00    +0.000 HD
ENDBRANCH   1   9
BRANCH   3  15
ATOM     15  C   UNL     1       2.185   8.212  19.065  0.00  0.00    +0.000 C 
BRANCH  15  16
ATOM     16  C   UNL     1       2.460   7.060  18.105  0.00  0.00    +0.000 C 
BRANCH  16  17
ATOM     17  C   UNL     1       3.890   7.115  17.566  0.00  0.00    +0.000 C 
BRANCH  17  18
ATOM     18  C   UNL     1       4.559   5.740  17.610  0.00  0.00    +0.000 C 
BRANCH  18  19
ATOM     19  N   UNL     1       4.884   5.397  18.994  0.00  0.00    +0.000 NA
ATOM     20  H   UNL     1       4.311   5.946  19.633  0.00  0.00    +0.000 HD
BRANCH  19  21
ATOM     21  C   UNL     1       4.643   3.977  19.258  0.00  0.00    +0.000 C 
BRANCH  21  22
ATOM     22  C   UNL     1       3.188   3.739  19.549  0.00  0.00    +0.000 A 
ATOM     23  C   UNL     1       2.418   4.280  20.561  0.00  0.00    +0.000 A 
ATOM     24  C   UNL     1       1.077   3.801  20.544  0.00  0.00    +0.000 A 
ATOM     25  C   UNL     1       0.863   2.908  19.517  0.00  0.00    +0.000 A 
ATOM     26  S   UNL     1       2.273   2.660  18.580  0.00  0.00    +0.000 S 
ENDBRANCH  21  22
ENDBRANCH  19  21
ENDBRANCH  18  19
ENDBRANCH  17  18
ENDBRANCH  16  17
ENDBRANCH  15  16
ENDBRANCH   3  15
TORSDOF 8
ENDMDL
MODEL 8
REMARK VINA RESULT:      -6.6      4.094      6.977
REMARK  Name = 
REMARK  12 active torsions:
REMARK  status: ('A' for Active; 'I' for Inactive)
REMARK    1  A    between atoms: C_1  and  C_2
REMARK    2  A    between atoms: C_2  and  C_3
REMARK    3  A    between atoms: C_5  and  C_6
REMARK    4  A    between atoms: N_8  and  C_9
REMARK    5  A    between atoms: C_9  and  C_10
REMARK    6  A    between atoms: C_10  and  C_11
REMARK    7  A    between atoms: C_11  and  C_12
REMARK    8  A    between atoms: C_12  and  N_13
REMARK    9  A    between atoms: N_13  and  C_14
REMARK   10  A    between atoms: C_14  and  C_15
REMARK   11  A    between atoms: C_20  and  C_21
REMARK   12  A    between atoms: C_20  and  C_22
REMARK                            x       y       z     vdW  Elec       q    Type
REMARK                         _______ _______ _______ _____ _____    ______ ____
ROOT
ATOM      1  C   UNL     1       5.351   4.356  18.918  0.00  0.00    +0.000 C 
ATOM      2  O   UNL     1       6.088   4.736  19.818  0.00  0.00    +0.000 OA
ATOM      3  N   UNL     1       5.690   4.385  17.583  0.00  0.00    +0.000 N 
ATOM      4  H   UNL     1       4.979   4.193  16.892  0.00  0.00    +0.000 HD
ENDROOT
BRANCH   1   9
ATOM      5  C   UNL     1       0.825   4.550  20.456  0.00  0.00    +0.000 C 
ATOM      6  C   UNL     1       1.657   3.804  19.407  0.00  0.00    +0.000 C 
ATOM      7  C   UNL     1       0.797   3.514  18.174  0.00  0.00    +0.000 C 
ATOM      8  C   UNL     1       2.867   4.598  19.051  0.00  0.00    +0.000 C 
ATOM      9  C   UNL     1       3.980   3.870  19.186  0.00  0.00    +0.000 C 
ATOM     10  C   UNL     1       3.643   2.455  19.571  0.00  0.00    +0.000 C 
ATOM     11  C   UNL     1       4.443   1.912  20.763  0.00  0.00    +0.000 C 
ATOM     12  C   UNL     1       3.755   1.469  18.396  0.00  0.00    +0.000 C 
ATOM     13  N   UNL     1       2.192   2.535  19.960  0.00  0.00    +0.000 NA
ATOM     14  H   UNL     1       2.145   2.582  20.978  0.00  0.00    +0.000 HD
ENDBRANCH   1   9
BRANCH   3  15
ATOM     15  C   UNL     1       6.984   4.818  17.101  0.00  0.00    +0.000 C 
BRANCH  15  16
ATOM     16  C   UNL     1       6.997   6.317  16.820  0.00  0.00    +0.000 C 
BRANCH  16  17
ATOM     17  C   UNL     1       7.667   7.089  17.957  0.00  0.00    +0.000 C 
BRANCH  17  18
ATOM     18  C   UNL     1       7.649   8.597  17.697  0.00  0.00    +0.000 C 
BRANCH  18  19
ATOM     19  N   UNL     1       8.706   9.242  18.476  0.00  0.00    +0.000 NA
ATOM     20  H   UNL     1       9.598   8.780  18.302  0.00  0.00    +0.000 HD
BRANCH  19  21
ATOM     21  C   UNL     1       8.838  10.657  18.122  0.00  0.00    +0.000 C 
BRANCH  21  22
ATOM     22  C   UNL     1      10.054  11.247  18.780  0.00  0.00    +0.000 A 
ATOM     23  C   UNL     1      11.355  11.266  18.315  0.00  0.00    +0.000 A 
ATOM     24  C   UNL     1      12.253  11.891  19.226  0.00  0.00    +0.000 A 
ATOM     25  C   UNL     1      11.609  12.332  20.361  0.00  0.00    +0.000 A 
ATOM     26  S   UNL     1       9.932  11.998  20.317  0.00  0.00    +0.000 S 
ENDBRANCH  21  22
ENDBRANCH  19  21
ENDBRANCH  18  19
ENDBRANCH  17  18
ENDBRANCH  16  17
ENDBRANCH  15  16
ENDBRANCH   3  15
TORSDOF 8
ENDMDL
MODEL 9
REMARK VINA RESULT:      -6.5      3.170      5.012
REMARK  Name = 
REMARK  12 active torsions:
REMARK  status: ('A' for Active; 'I' for Inactive)
REMARK    1  A    between atoms: C_1  and  C_2
REMARK    2  A    between atoms: C_2  and  C_3
REMARK    3  A    between atoms: C_5  and  C_6
REMARK    4  A    between atoms: N_8  and  C_9
REMARK    5  A    between atoms: C_9  and  C_10
REMARK    6  A    between atoms: C_10  and  C_11
REMARK    7  A    between atoms: C_11  and  C_12
REMARK    8  A    between atoms: C_12  and  N_13
REMARK    9  A    between atoms: N_13  and  C_14
REMARK   10  A    between atoms: C_14  and  C_15
REMARK   11  A    between atoms: C_20  and  C_21
REMARK   12  A    between atoms: C_20  and  C_22
REMARK                            x       y       z     vdW  Elec       q    Type
REMARK                         _______ _______ _______ _____ _____    ______ ____
ROOT
ATOM      1  C   UNL     1       3.175   6.418  18.798  0.00  0.00    +0.000 C 
ATOM      2  O   UNL     1       3.345   7.149  17.831  0.00  0.00    +0.000 OA
ATOM      3  N   UNL     1       2.457   6.777  19.916  0.00  0.00    +0.000 N 
ATOM      4  H   UNL     1       2.483   6.178  20.729  0.00  0.00    +0.000 HD
ENDROOT
BRANCH   1   9
ATOM      5  C   UNL     1       4.227   2.154  20.695  0.00  0.00    +0.000 C 
ATOM      6  C   UNL     1       4.084   2.798  19.311  0.00  0.00    +0.000 C 
ATOM      7  C   UNL     1       3.554   1.768  18.311  0.00  0.00    +0.000 C 
ATOM      8  C   UNL     1       3.192   3.990  19.388  0.00  0.00    +0.000 C 
ATOM      9  C   UNL     1       3.783   5.072  18.873  0.00  0.00    +0.000 C 
ATOM     10  C   UNL     1       5.128   4.716  18.300  0.00  0.00    +0.000 C 
ATOM     11  C   UNL     1       6.273   5.639  18.742  0.00  0.00    +0.000 C 
ATOM     12  C   UNL     1       5.122   4.620  16.765  0.00  0.00    +0.000 C 
ATOM     13  N   UNL     1       5.385   3.336  18.841  0.00  0.00    +0.000 NA
ATOM     14  H   UNL     1       6.006   3.428  19.645  0.00  0.00    +0.000 HD
ENDBRANCH   1   9
BRANCH   3  15
ATOM     15  C   UNL     1       1.774   8.046  20.049  0.00  0.00    +0.000 C 
BRANCH  15  16
ATOM     16  C   UNL     1       1.201   8.223  21.451  0.00  0.00    +0.000 C 
BRANCH  16  17
ATOM     17  C   UNL     1       0.238   9.409  21.511  0.00  0.00    +0.000 C 
BRANCH  17  18
ATOM     18  C   UNL     1       0.346  10.285  20.261  0.00  0.00    +0.000 C 
BRANCH  18  19
ATOM     19  N   UNL     1      -0.928  10.276  19.544  0.00  0.00    +0.000 NA
ATOM     20  H   UNL     1      -1.466  11.110  19.777  0.00  0.00    +0.000 HD
BRANCH  19  21
ATOM     21  C   UNL     1      -0.722  10.247  18.094  0.00  0.00    +0.000 C 
BRANCH  21  22
ATOM     22  C   UNL     1      -2.024  10.467  17.377  0.00  0.00    +0.000 A 
ATOM     23  C   UNL     1      -2.410   9.993  16.137  0.00  0.00    +0.000 A 
ATOM     24  C   UNL     1      -3.712  10.431  15.765  0.00  0.00    +0.000 A 
ATOM     25  C   UNL     1      -4.284  11.226  16.734  0.00  0.00    +0.000 A 
ATOM     26  S   UNL     1      -3.253  11.432  18.084  0.00  0.00    +0.000 S 
ENDBRANCH  21  22
ENDBRANCH  19  21
ENDBRANCH  18  19
ENDBRANCH  17  18
ENDBRANCH  16  17
ENDBRANCH  15  16
ENDBRANCH   3  15
TORSDOF 8
ENDMDL
