MODEL 1
REMARK VINA RESULT:      -6.6      0.000      0.000
REMARK  Name = 
REMARK  2 active torsions:
REMARK  status: ('A' for Active; 'I' for Inactive)
REMARK    1  A    between atoms: C_7  and  C_8
REMARK    2  A    between atoms: C_10  and  C_11
REMARK                            x       y       z     vdW  Elec       q    Type
REMARK                         _______ _______ _______ _____ _____    ______ ____
ROOT
ATOM      1  C   UNL     1      -2.533  13.021  20.227  0.00  0.00    +0.000 C 
ATOM      2  N   UNL     1      -3.618  13.337  20.838  0.00  0.00    +0.000 NA
ATOM      3  C   UNL     1      -4.856  12.563  20.717  0.00  0.00    +0.000 C 
ATOM      4  C   UNL     1      -5.411  12.734  19.298  0.00  0.00    +0.000 C 
ATOM      5  S   UNL     1      -6.920  13.367  18.904  0.00  0.00    +0.000 S 
ATOM      6  N   UNL     1      -4.686  12.229  18.248  0.00  0.00    +0.000 N 
ATOM      7  C   UNL     1      -3.407  11.648  18.269  0.00  0.00    +0.000 A 
ATOM      8  C   UNL     1      -3.138  10.747  17.226  0.00  0.00    +0.000 A 
ATOM      9  C   UNL     1      -1.919  10.074  17.153  0.00  0.00    +0.000 A 
ATOM     10  C   UNL     1      -0.959  10.293  18.132  0.00  0.00    +0.000 A 
ATOM     11 CL   UNL     1       0.560   9.494  18.033  0.00  0.00    +0.000 Cl
ATOM     12  C   UNL     1      -1.204  11.186  19.173  0.00  0.00    +0.000 A 
ATOM     13  C   UNL     1      -2.410  11.911  19.229  0.00  0.00    +0.000 A 
ATOM     14  H   UNL     1      -5.210  12.187  17.379  0.00  0.00    +0.000 HD
ENDROOT
BRANCH   1  21
ATOM     15  F   UNL     1      -1.048  12.760  22.739  0.00  0.00    +0.000 F 
ATOM     16  C   UNL     1      -0.686  13.705  21.861  0.00  0.00    +0.000 A 
ATOM     17  C   UNL     1       0.340  14.577  22.225  0.00  0.00    +0.000 A 
ATOM     18  C   UNL     1       0.779  15.552  21.330  0.00  0.00    +0.000 A 
ATOM     19  C   UNL     1       0.205  15.637  20.063  0.00  0.00    +0.000 A 
ATOM     20  C   UNL     1      -0.842  14.781  19.712  0.00  0.00    +0.000 A 
ATOM     21  C   UNL     1      -1.324  13.827  20.625  0.00  0.00    +0.000 A 
ENDBRANCH   1  21
BRANCH   3  22
ATOM     22  C   UNL     1      -5.796  12.937  21.862  0.00  0.00    +0.000 A 
ATOM     23  C   UNL     1      -5.558  14.079  22.647  0.00  0.00    +0.000 A 
ATOM     24  C   UNL     1      -6.407  14.416  23.700  0.00  0.00    +0.000 A 
ATOM     25  C   UNL     1      -7.514  13.621  23.980  0.00  0.00    +0.000 A 
ATOM     26  C   UNL     1      -7.773  12.492  23.206  0.00  0.00    +0.000 A 
ATOM     27  C   UNL     1      -6.921  12.149  22.153  0.00  0.00    +0.000 A 
ENDBRANCH   3  22
TORSDOF 2
ENDMDL
MODEL 2
REMARK VINA RESULT:      -6.5      0.960      1.623
REMARK  Name = 
REMARK  2 active torsions:
REMARK  status: ('A' for Active; 'I' for Inactive)
REMARK    1  A    between atoms: C_7  and  C_8
REMARK    2  A    between atoms: C_10  and  C_11
REMARK                            x       y       z     vdW  Elec       q    Type
REMARK                         _______ _______ _______ _____ _____    ______ ____
ROOT
ATOM      1  C   UNL     1      -2.502  12.999  20.159  0.00  0.00    +0.000 C 
ATOM      2  N   UNL     1      -3.593  13.324  20.755  0.00  0.00    +0.000 NA
ATOM      3  C   UNL     1      -4.831  12.551  20.630  0.00  0.00    +0.000 C 
ATOM      4  C   UNL     1      -5.372  12.708  19.204  0.00  0.00    +0.000 C 
ATOM      5  S   UNL     1      -6.875  13.339  18.788  0.00  0.00    +0.000 S 
ATOM      6  N   UNL     1      -4.637  12.189  18.167  0.00  0.00    +0.000 N 
ATOM      7  C   UNL     1      -3.360  11.605  18.207  0.00  0.00    +0.000 A 
ATOM      8  C   UNL     1      -3.082  10.693  17.178  0.00  0.00    +0.000 A 
ATOM      9  C   UNL     1      -1.864  10.016  17.125  0.00  0.00    +0.000 A 
ATOM     10  C   UNL     1      -0.914  10.244  18.111  0.00  0.00    +0.000 A 
ATOM     11 CL   UNL     1       0.605   9.441  18.036  0.00  0.00    +0.000 Cl
ATOM     12  C   UNL     1      -1.167  11.149  19.139  0.00  0.00    +0.000 A 
ATOM     13  C   UNL     1      -2.372  11.877  19.174  0.00  0.00    +0.000 A 
ATOM     14  H   UNL     1      -5.153  12.138  17.294  0.00  0.00    +0.000 HD
ENDROOT
BRANCH   1  21
ATOM     15  F   UNL     1      -0.673  14.372  18.329  0.00  0.00    +0.000 F 
ATOM     16  C   UNL     1      -0.420  14.394  19.644  0.00  0.00    +0.000 A 
ATOM     17  C   UNL     1       0.757  15.009  20.073  0.00  0.00    +0.000 A 
ATOM     18  C   UNL     1       1.045  15.092  21.435  0.00  0.00    +0.000 A 
ATOM     19  C   UNL     1       0.144  14.579  22.366  0.00  0.00    +0.000 A 
ATOM     20  C   UNL     1      -1.019  13.938  21.931  0.00  0.00    +0.000 A 
ATOM     21  C   UNL     1      -1.295  13.807  20.559  0.00  0.00    +0.000 A 
ENDBRANCH   1  21
BRANCH   3  22
ATOM     22  C   UNL     1      -5.781  12.940  21.762  0.00  0.00    +0.000 A 
ATOM     23  C   UNL     1      -6.898  12.143  22.072  0.00  0.00    +0.000 A 
ATOM     24  C   UNL     1      -7.773  12.502  23.096  0.00  0.00    +0.000 A 
ATOM     25  C   UNL     1      -7.541  13.658  23.834  0.00  0.00    +0.000 A 
ATOM     26  C   UNL     1      -6.433  14.454  23.550  0.00  0.00    +0.000 A 
ATOM     27  C   UNL     1      -5.557  14.100  22.520  0.00  0.00    +0.000 A 
ENDBRANCH   3  22
TORSDOF 2
ENDMDL
MODEL 3
REMARK VINA RESULT:      -6.4      2.308      4.516
REMARK  Name = 
REMARK  2 active torsions:
REMARK  status: ('A' for Active; 'I' for Inactive)
REMARK    1  A    between atoms: C_7  and  C_8
REMARK    2  A    between atoms: C_10  and  C_11
REMARK                            x       y       z     vdW  Elec       q    Type
REMARK                         _______ _______ _______ _____ _____    ______ ____
ROOT
ATOM      1  C   UNL     1      -2.606  12.210  19.481  0.00  0.00    +0.000 C 
ATOM      2  N   UNL     1      -3.696  12.469  20.111  0.00  0.00    +0.000 NA
ATOM      3  C   UNL     1      -3.768  13.425  21.218  0.00  0.00    +0.000 C 
ATOM      4  C   UNL     1      -3.017  12.847  22.423  0.00  0.00    +0.000 C 
ATOM      5  S   UNL     1      -3.682  12.534  23.937  0.00  0.00    +0.000 S 
ATOM      6  N   UNL     1      -1.659  12.670  22.322  0.00  0.00    +0.000 N 
ATOM      7  C   UNL     1      -0.837  12.848  21.197  0.00  0.00    +0.000 A 
ATOM      8  C   UNL     1       0.508  13.141  21.475  0.00  0.00    +0.000 A 
ATOM      9  C   UNL     1       1.420  13.378  20.447  0.00  0.00    +0.000 A 
ATOM     10  C   UNL     1       0.989  13.328  19.128  0.00  0.00    +0.000 A 
ATOM     11 CL   UNL     1       2.114  13.584  17.852  0.00  0.00    +0.000 Cl
ATOM     12  C   UNL     1      -0.339  13.035  18.830  0.00  0.00    +0.000 A 
ATOM     13  C   UNL     1      -1.258  12.743  19.857  0.00  0.00    +0.000 A 
ATOM     14  H   UNL     1      -1.208  12.494  23.214  0.00  0.00    +0.000 HD
ENDROOT
BRANCH   1  21
ATOM     15  F   UNL     1      -1.002   9.849  18.819  0.00  0.00    +0.000 F 
ATOM     16  C   UNL     1      -1.941  10.263  17.958  0.00  0.00    +0.000 A 
ATOM     17  C   UNL     1      -2.055   9.590  16.742  0.00  0.00    +0.000 A 
ATOM     18  C   UNL     1      -3.043   9.959  15.829  0.00  0.00    +0.000 A 
ATOM     19  C   UNL     1      -3.929  10.986  16.146  0.00  0.00    +0.000 A 
ATOM     20  C   UNL     1      -3.794  11.677  17.353  0.00  0.00    +0.000 A 
ATOM     21  C   UNL     1      -2.771  11.345  18.258  0.00  0.00    +0.000 A 
ENDBRANCH   1  21
BRANCH   3  22
ATOM     22  C   UNL     1      -5.228  13.812  21.452  0.00  0.00    +0.000 A 
ATOM     23  C   UNL     1      -6.270  12.919  21.141  0.00  0.00    +0.000 A 
ATOM     24  C   UNL     1      -7.603  13.274  21.343  0.00  0.00    +0.000 A 
ATOM     25  C   UNL     1      -7.916  14.524  21.867  0.00  0.00    +0.000 A 
ATOM     26  C   UNL     1      -6.897  15.418  22.192  0.00  0.00    +0.000 A 
ATOM     27  C   UNL     1      -5.560  15.067  21.987  0.00  0.00    +0.000 A 
ENDBRANCH   3  22
TORSDOF 2
ENDMDL
MODEL 4
REMARK VINA RESULT:      -6.4      3.724      6.436
REMARK  Name = 
REMARK  2 active torsions:
REMARK  status: ('A' for Active; 'I' for Inactive)
REMARK    1  A    between atoms: C_7  and  C_8
REMARK    2  A    between atoms: C_10  and  C_11
REMARK                            x       y       z     vdW  Elec       q    Type
REMARK                         _______ _______ _______ _____ _____    ______ ____
ROOT
ATOM      1  C   UNL     1      -1.245  11.922  19.518  0.00  0.00    +0.000 C 
ATOM      2  N   UNL     1      -1.002  13.171  19.338  0.00  0.00    +0.000 NA
ATOM      3  C   UNL     1      -0.114  13.943  20.211  0.00  0.00    +0.000 C 
ATOM      4  C   UNL     1      -0.780  14.101  21.583  0.00  0.00    +0.000 C 
ATOM      5  S   UNL     1      -1.171  15.562  22.321  0.00  0.00    +0.000 S 
ATOM      6  N   UNL     1      -0.980  12.977  22.345  0.00  0.00    +0.000 N 
ATOM      7  C   UNL     1      -0.751  11.635  21.999  0.00  0.00    +0.000 A 
ATOM      8  C   UNL     1      -0.504  10.769  23.076  0.00  0.00    +0.000 A 
ATOM      9  C   UNL     1      -0.225   9.419  22.865  0.00  0.00    +0.000 A 
ATOM     10  C   UNL     1      -0.185   8.926  21.567  0.00  0.00    +0.000 A 
ATOM     11 CL   UNL     1       0.125   7.256  21.298  0.00  0.00    +0.000 Cl
ATOM     12  C   UNL     1      -0.431   9.767  20.485  0.00  0.00    +0.000 A 
ATOM     13  C   UNL     1      -0.765  11.120  20.688  0.00  0.00    +0.000 A 
ATOM     14  H   UNL     1      -1.220  13.182  23.310  0.00  0.00    +0.000 HD
ENDROOT
BRANCH   1  21
ATOM     15  F   UNL     1      -0.189  10.004  17.571  0.00  0.00    +0.000 F 
ATOM     16  C   UNL     1      -1.465  10.400  17.472  0.00  0.00    +0.000 A 
ATOM     17  C   UNL     1      -2.211   9.935  16.389  0.00  0.00    +0.000 A 
ATOM     18  C   UNL     1      -3.555  10.288  16.264  0.00  0.00    +0.000 A 
ATOM     19  C   UNL     1      -4.154  11.087  17.234  0.00  0.00    +0.000 A 
ATOM     20  C   UNL     1      -3.396  11.574  18.302  0.00  0.00    +0.000 A 
ATOM     21  C   UNL     1      -2.030  11.264  18.412  0.00  0.00    +0.000 A 
ENDBRANCH   1  21
BRANCH   3  22
ATOM     22  C   UNL     1       0.289  15.234  19.500  0.00  0.00    +0.000 A 
ATOM     23  C   UNL     1      -0.649  15.972  18.757  0.00  0.00    +0.000 A 
ATOM     24  C   UNL     1      -0.282  17.144  18.098  0.00  0.00    +0.000 A 
ATOM     25  C   UNL     1       1.030  17.603  18.179  0.00  0.00    +0.000 A 
ATOM     26  C   UNL     1       1.971  16.892  18.920  0.00  0.00    +0.000 A 
ATOM     27  C   UNL     1       1.606  15.714  19.578  0.00  0.00    +0.000 A 
ENDBRANCH   3  22
TORSDOF 2
ENDMDL
MODEL 5
REMARK VINA RESULT:      -6.3      3.258      5.426
REMARK  Name = 
REMARK  2 active torsions:
REMARK  status: ('A' for Active; 'I' for Inactive)
REMARK    1  A    between atoms: C_7  and  C_8
REMARK    2  A    between atoms: C_10  and  C_11
REMARK                            x       y       z     vdW  Elec       q    Type
REMARK                         _______ _______ _______ _____ _____    ______ ____
ROOT
ATOM      1  C   UNL     1      -2.777  12.986  22.527  0.00  0.00    +0.000 C 
ATOM      2  N   UNL     1      -3.850  12.681  21.888  0.00  0.00    +0.000 NA
ATOM      3  C   UNL     1      -5.032  13.545  21.859  0.00  0.00    +0.000 C 
ATOM      4  C   UNL     1      -5.670  13.561  23.253  0.00  0.00    +0.000 C 
ATOM      5  S   UNL     1      -7.239  13.076  23.620  0.00  0.00    +0.000 S 
ATOM      6  N   UNL     1      -4.965  14.124  24.287  0.00  0.00    +0.000 N 
ATOM      7  C   UNL     1      -3.647  14.613  24.281  0.00  0.00    +0.000 A 
ATOM      8  C   UNL     1      -3.366  15.598  25.241  0.00  0.00    +0.000 A 
ATOM      9  C   UNL     1      -2.107  16.192  25.316  0.00  0.00    +0.000 A 
ATOM     10  C   UNL     1      -1.117  15.807  24.422  0.00  0.00    +0.000 A 
ATOM     11 CL   UNL     1       0.449  16.508  24.528  0.00  0.00    +0.000 Cl
ATOM     12  C   UNL     1      -1.373  14.828  23.464  0.00  0.00    +0.000 A 
ATOM     13  C   UNL     1      -2.624  14.184  23.413  0.00  0.00    +0.000 A 
ATOM     14  H   UNL     1      -5.528  14.293  25.115  0.00  0.00    +0.000 HD
ENDROOT
BRANCH   1  21
ATOM     15  F   UNL     1      -0.862  13.187  20.319  0.00  0.00    +0.000 F 
ATOM     16  C   UNL     1      -0.760  12.166  21.182  0.00  0.00    +0.000 A 
ATOM     17  C   UNL     1       0.214  11.198  20.936  0.00  0.00    +0.000 A 
ATOM     18  C   UNL     1       0.384  10.138  21.827  0.00  0.00    +0.000 A 
ATOM     19  C   UNL     1      -0.405  10.063  22.972  0.00  0.00    +0.000 A 
ATOM     20  C   UNL     1      -1.398  11.018  23.200  0.00  0.00    +0.000 A 
ATOM     21  C   UNL     1      -1.611  12.063  22.284  0.00  0.00    +0.000 A 
ENDBRANCH   1  21
BRANCH   3  22
ATOM     22  C   UNL     1      -5.937  13.116  20.704  0.00  0.00    +0.000 A 
ATOM     23  C   UNL     1      -6.037  11.765  20.329  0.00  0.00    +0.000 A 
ATOM     24  C   UNL     1      -6.853  11.373  19.269  0.00  0.00    +0.000 A 
ATOM     25  C   UNL     1      -7.590  12.325  18.572  0.00  0.00    +0.000 A 
ATOM     26  C   UNL     1      -7.513  13.668  18.936  0.00  0.00    +0.000 A 
ATOM     27  C   UNL     1      -6.692  14.064  19.995  0.00  0.00    +0.000 A 
ENDBRANCH   3  22
TORSDOF 2
ENDMDL
MODEL 6
REMARK VINA RESULT:      -6.3      3.616      6.354
REMARK  Name = 
REMARK  2 active torsions:
REMARK  status: ('A' for Active; 'I' for Inactive)
REMARK    1  A    between atoms: C_7  and  C_8
REMARK    2  A    between atoms: C_10  and  C_11
REMARK                            x       y       z     vdW  Elec       q    Type
REMARK                         _______ _______ _______ _____ _____    ______ ____
ROOT
ATOM      1  C   UNL     1      -1.301  12.071  19.601  0.00  0.00    +0.000 C 
ATOM      2  N   UNL     1      -1.062  13.324  19.449  0.00  0.00    +0.000 NA
ATOM      3  C   UNL     1      -0.184  14.082  20.343  0.00  0.00    +0.000 C 
ATOM      4  C   UNL     1      -0.860  14.209  21.713  0.00  0.00    +0.000 C 
ATOM      5  S   UNL     1      -1.262  15.653  22.479  0.00  0.00    +0.000 S 
ATOM      6  N   UNL     1      -1.058  13.069  22.451  0.00  0.00    +0.000 N 
ATOM      7  C   UNL     1      -0.821  11.735  22.079  0.00  0.00    +0.000 A 
ATOM      8  C   UNL     1      -0.577  10.848  23.139  0.00  0.00    +0.000 A 
ATOM      9  C   UNL     1      -0.290   9.504  22.902  0.00  0.00    +0.000 A 
ATOM     10  C   UNL     1      -0.239   9.038  21.596  0.00  0.00    +0.000 A 
ATOM     11 CL   UNL     1       0.080   7.375  21.294  0.00  0.00    +0.000 Cl
ATOM     12  C   UNL     1      -0.482   9.900  20.529  0.00  0.00    +0.000 A 
ATOM     13  C   UNL     1      -0.824  11.247  20.757  0.00  0.00    +0.000 A 
ATOM     14  H   UNL     1      -1.305  13.253  23.419  0.00  0.00    +0.000 HD
ENDROOT
BRANCH   1  21
ATOM     15  F   UNL     1      -4.176  12.360  19.118  0.00  0.00    +0.000 F 
ATOM     16  C   UNL     1      -3.458  11.554  18.324  0.00  0.00    +0.000 A 
ATOM     17  C   UNL     1      -4.137  10.825  17.347  0.00  0.00    +0.000 A 
ATOM     18  C   UNL     1      -3.428  10.002  16.472  0.00  0.00    +0.000 A 
ATOM     19  C   UNL     1      -2.040   9.929  16.561  0.00  0.00    +0.000 A 
ATOM     20  C   UNL     1      -1.366  10.639  17.559  0.00  0.00    +0.000 A 
ATOM     21  C   UNL     1      -2.076  11.432  18.477  0.00  0.00    +0.000 A 
ENDBRANCH   1  21
BRANCH   3  22
ATOM     22  C   UNL     1       0.218  15.389  19.661  0.00  0.00    +0.000 A 
ATOM     23  C   UNL     1      -0.686  16.078  18.833  0.00  0.00    +0.000 A 
ATOM     24  C   UNL     1      -0.319  17.265  18.201  0.00  0.00    +0.000 A 
ATOM     25  C   UNL     1       0.956  17.789  18.394  0.00  0.00    +0.000 A 
ATOM     26  C   UNL     1       1.862  17.126  19.220  0.00  0.00    +0.000 A 
ATOM     27  C   UNL     1       1.498  15.933  19.851  0.00  0.00    +0.000 A 
ENDBRANCH   3  22
TORSDOF 2
ENDMDL
MODEL 7
REMARK VINA RESULT:      -6.3      2.929      5.917
REMARK  Name = 
REMARK  2 active torsions:
REMARK  status: ('A' for Active; 'I' for Inactive)
REMARK    1  A    between atoms: C_7  and  C_8
REMARK    2  A    between atoms: C_10  and  C_11
REMARK                            x       y       z     vdW  Elec       q    Type
REMARK                         _______ _______ _______ _____ _____    ______ ____
ROOT
ATOM      1  C   UNL     1      -2.075  13.149  20.411  0.00  0.00    +0.000 C 
ATOM      2  N   UNL     1      -1.067  13.945  20.367  0.00  0.00    +0.000 NA
ATOM      3  C   UNL     1      -0.331  14.231  19.134  0.00  0.00    +0.000 C 
ATOM      4  C   UNL     1       0.435  12.972  18.709  0.00  0.00    +0.000 C 
ATOM      5  S   UNL     1       2.103  12.854  18.521  0.00  0.00    +0.000 S 
ATOM      6  N   UNL     1      -0.285  11.867  18.329  0.00  0.00    +0.000 N 
ATOM      7  C   UNL     1      -1.676  11.673  18.374  0.00  0.00    +0.000 A 
ATOM      8  C   UNL     1      -2.184  10.740  17.457  0.00  0.00    +0.000 A 
ATOM      9  C   UNL     1      -3.553  10.484  17.374  0.00  0.00    +0.000 A 
ATOM     10  C   UNL     1      -4.426  11.168  18.208  0.00  0.00    +0.000 A 
ATOM     11 CL   UNL     1      -6.112  10.834  18.138  0.00  0.00    +0.000 Cl
ATOM     12  C   UNL     1      -3.943  12.095  19.129  0.00  0.00    +0.000 A 
ATOM     13  C   UNL     1      -2.560  12.324  19.258  0.00  0.00    +0.000 A 
ATOM     14  H   UNL     1       0.275  11.161  17.862  0.00  0.00    +0.000 HD
ENDROOT
BRANCH   1  21
ATOM     15  F   UNL     1      -1.624  11.258  22.602  0.00  0.00    +0.000 F 
ATOM     16  C   UNL     1      -2.599  12.170  22.716  0.00  0.00    +0.000 A 
ATOM     17  C   UNL     1      -3.409  12.121  23.850  0.00  0.00    +0.000 A 
ATOM     18  C   UNL     1      -4.412  13.073  24.033  0.00  0.00    +0.000 A 
ATOM     19  C   UNL     1      -4.587  14.084  23.091  0.00  0.00    +0.000 A 
ATOM     20  C   UNL     1      -3.792  14.113  21.943  0.00  0.00    +0.000 A 
ATOM     21  C   UNL     1      -2.811  13.130  21.725  0.00  0.00    +0.000 A 
ENDBRANCH   1  21
BRANCH   3  22
ATOM     22  C   UNL     1       0.502  15.497  19.329  0.00  0.00    +0.000 A 
ATOM     23  C   UNL     1       0.631  16.442  18.296  0.00  0.00    +0.000 A 
ATOM     24  C   UNL     1       1.400  17.593  18.468  0.00  0.00    +0.000 A 
ATOM     25  C   UNL     1       2.045  17.822  19.679  0.00  0.00    +0.000 A 
ATOM     26  C   UNL     1       1.919  16.902  20.719  0.00  0.00    +0.000 A 
ATOM     27  C   UNL     1       1.153  15.746  20.548  0.00  0.00    +0.000 A 
ENDBRANCH   3  22
TORSDOF 2
ENDMDL
MODEL 8
REMARK VINA RESULT:      -6.2      3.345      6.320
REMARK  Name = 
REMARK  2 active torsions:
REMARK  status: ('A' for Active; 'I' for Inactive)
REMARK    1  A    between atoms: C_7  and  C_8
REMARK    2  A    between atoms: C_10  and  C_11
REMARK                            x       y       z     vdW  Elec       q    Type
REMARK                         _______ _______ _______ _____ _____    ______ ____
ROOT
ATOM      1  C   UNL     1      -1.629  12.301  20.121  0.00  0.00    +0.000 C 
ATOM      2  N   UNL     1      -0.377  12.589  20.097  0.00  0.00    +0.000 NA
ATOM      3  C   UNL     1       0.440  12.492  18.885  0.00  0.00    +0.000 C 
ATOM      4  C   UNL     1       0.605  11.013  18.515  0.00  0.00    +0.000 C 
ATOM      5  S   UNL     1       2.068  10.190  18.391  0.00  0.00    +0.000 S 
ATOM      6  N   UNL     1      -0.508  10.307  18.134  0.00  0.00    +0.000 N 
ATOM      7  C   UNL     1      -1.850  10.725  18.133  0.00  0.00    +0.000 A 
ATOM      8  C   UNL     1      -2.685  10.066  17.218  0.00  0.00    +0.000 A 
ATOM      9  C   UNL     1      -4.030  10.414  17.091  0.00  0.00    +0.000 A 
ATOM     10  C   UNL     1      -4.548  11.433  17.878  0.00  0.00    +0.000 A 
ATOM     11 CL   UNL     1      -6.213  11.846  17.754  0.00  0.00    +0.000 Cl
ATOM     12  C   UNL     1      -3.737  12.098  18.795  0.00  0.00    +0.000 A 
ATOM     13  C   UNL     1      -2.392  11.721  18.970  0.00  0.00    +0.000 A 
ATOM     14  H   UNL     1      -0.291   9.414  17.702  0.00  0.00    +0.000 HD
ENDROOT
BRANCH   1  21
ATOM     15  F   UNL     1      -1.431  10.807  22.633  0.00  0.00    +0.000 F 
ATOM     16  C   UNL     1      -2.252  11.864  22.564  0.00  0.00    +0.000 A 
ATOM     17  C   UNL     1      -3.038  12.154  23.679  0.00  0.00    +0.000 A 
ATOM     18  C   UNL     1      -3.879  13.267  23.670  0.00  0.00    +0.000 A 
ATOM     19  C   UNL     1      -3.915  14.098  22.553  0.00  0.00    +0.000 A 
ATOM     20  C   UNL     1      -3.147  13.788  21.427  0.00  0.00    +0.000 A 
ATOM     21  C   UNL     1      -2.333  12.643  21.408  0.00  0.00    +0.000 A 
ENDBRANCH   1  21
BRANCH   3  22
ATOM     22  C   UNL     1       1.728  13.289  19.083  0.00  0.00    +0.000 A 
ATOM     23  C   UNL     1       2.264  13.487  20.368  0.00  0.00    +0.000 A 
ATOM     24  C   UNL     1       3.433  14.223  20.554  0.00  0.00    +0.000 A 
ATOM     25  C   UNL     1       4.092  14.767  19.455  0.00  0.00    +0.000 A 
ATOM     26  C   UNL     1       3.583  14.572  18.173  0.00  0.00    +0.000 A 
ATOM     27  C   UNL     1       2.408  13.838  17.984  0.00  0.00    +0.000 A 
ENDBRANCH   3  22
TORSDOF 2
ENDMDL
MODEL 9
REMARK VINA RESULT:      -6.2      3.238      6.186
REMARK  Name = 
REMARK  2 active torsions:
REMARK  status: ('A' for Active; 'I' for Inactive)
REMARK    1  A    between atoms: C_7  and  C_8
REMARK    2  A    between atoms: C_10  and  C_11
REMARK                            x       y       z     vdW  Elec       q    Type
REMARK                         _______ _______ _______ _____ _____    ______ ____
ROOT
ATOM      1  C   UNL     1      -2.070  12.384  20.277  0.00  0.00    +0.000 C 
ATOM      2  N   UNL     1      -0.804  12.604  20.246  0.00  0.00    +0.000 NA
ATOM      3  C   UNL     1       0.007  12.423  19.040  0.00  0.00    +0.000 C 
ATOM      4  C   UNL     1       0.093  10.925  18.720  0.00  0.00    +0.000 C 
ATOM      5  S   UNL     1       1.510  10.021  18.627  0.00  0.00    +0.000 S 
ATOM      6  N   UNL     1      -1.056  10.268  18.360  0.00  0.00    +0.000 N 
ATOM      7  C   UNL     1      -2.373  10.757  18.341  0.00  0.00    +0.000 A 
ATOM      8  C   UNL     1      -3.243  10.113  17.447  0.00  0.00    +0.000 A 
ATOM      9  C   UNL     1      -4.567  10.528  17.305  0.00  0.00    +0.000 A 
ATOM     10  C   UNL     1      -5.030  11.600  18.057  0.00  0.00    +0.000 A 
ATOM     11 CL   UNL     1      -6.670  12.097  17.915  0.00  0.00    +0.000 Cl
ATOM     12  C   UNL     1      -4.185  12.250  18.954  0.00  0.00    +0.000 A 
ATOM     13  C   UNL     1      -2.862  11.808  19.144  0.00  0.00    +0.000 A 
ATOM     14  H   UNL     1      -0.888   9.350  17.959  0.00  0.00    +0.000 HD
ENDROOT
BRANCH   1  21
ATOM     15  F   UNL     1      -1.845  11.043  22.871  0.00  0.00    +0.000 F 
ATOM     16  C   UNL     1      -2.662  12.098  22.750  0.00  0.00    +0.000 A 
ATOM     17  C   UNL     1      -3.432  12.459  23.855  0.00  0.00    +0.000 A 
ATOM     18  C   UNL     1      -4.268  13.573  23.790  0.00  0.00    +0.000 A 
ATOM     19  C   UNL     1      -4.315  14.336  22.625  0.00  0.00    +0.000 A 
ATOM     20  C   UNL     1      -3.564  13.955  21.511  0.00  0.00    +0.000 A 
ATOM     21  C   UNL     1      -2.755  12.806  21.550  0.00  0.00    +0.000 A 
ENDBRANCH   1  21
BRANCH   3  22
ATOM     22  C   UNL     1       1.337  13.156  19.214  0.00  0.00    +0.000 A 
ATOM     23  C   UNL     1       2.042  13.646  18.101  0.00  0.00    +0.000 A 
ATOM     24  C   UNL     1       3.260  14.305  18.256  0.00  0.00    +0.000 A 
ATOM     25  C   UNL     1       3.790  14.494  19.529  0.00  0.00    +0.000 A 
ATOM     26  C   UNL     1       3.100  14.025  20.646  0.00  0.00    +0.000 A 
ATOM     27  C   UNL     1       1.880  13.359  20.493  0.00  0.00    +0.000 A 
ENDBRANCH   3  22
TORSDOF 2
ENDMDL
