MODEL 1
REMARK VINA RESULT:      -8.8      0.000      0.000
REMARK  Name = 
REMARK  3 active torsions:
REMARK  status: ('A' for Active; 'I' for Inactive)
REMARK    1  A    between atoms: N_4  and  N_5
REMARK    2  A    between atoms: C_15  and  C_16
REMARK    3  A    between atoms: C_26  and  C_27
REMARK                            x       y       z     vdW  Elec       q    Type
REMARK                         _______ _______ _______ _____ _____    ______ ____
ROOT
ATOM      1  O   UNL     1       2.448   9.568  17.185  0.00  0.00    +0.000 OA
ATOM      2  C   UNL     1       1.866   9.505  18.252  0.00  0.00    +0.000 C 
ATOM      3  C   UNL     1       1.225  10.680  18.944  0.00  0.00    +0.000 C 
ATOM      4  N   UNL     1       1.540  11.886  18.580  0.00  0.00    +0.000 NA
ATOM      5  C   UNL     1       0.455  10.094  20.092  0.00  0.00    +0.000 C 
ATOM      6  N   UNL     1       0.794   8.835  20.227  0.00  0.00    +0.000 NA
ATOM      7  N   UNL     1       1.660   8.496  19.172  0.00  0.00    +0.000 N 
ATOM      8  C   UNL     1       2.372   7.307  19.107  0.00  0.00    +0.000 A 
ATOM      9  N   UNL     1       3.254   6.957  18.195  0.00  0.00    +0.000 NA
ATOM     10  C   UNL     1       3.877   5.765  18.546  0.00  0.00    +0.000 A 
ATOM     11  C   UNL     1       3.396   5.195  19.708  0.00  0.00    +0.000 A 
ATOM     12  S   UNL     1       2.174   6.185  20.391  0.00  0.00    +0.000 S 
ENDROOT
BRANCH   4  13
ATOM     13  N   UNL     1       1.266  12.944  19.388  0.00  0.00    +0.000 N 
ATOM     14  C   UNL     1       2.125  13.975  19.631  0.00  0.00    +0.000 A 
ATOM     15  N   UNL     1       1.962  14.791  20.647  0.00  0.00    +0.000 NA
ATOM     16  C   UNL     1       2.929  15.782  20.635  0.00  0.00    +0.000 A 
ATOM     17  C   UNL     1       3.101  16.784  21.614  0.00  0.00    +0.000 A 
ATOM     18  C   UNL     1       4.140  17.713  21.486  0.00  0.00    +0.000 A 
ATOM     19  C   UNL     1       4.982  17.679  20.378  0.00  0.00    +0.000 A 
ATOM     20  C   UNL     1       4.817  16.711  19.384  0.00  0.00    +0.000 A 
ATOM     21  C   UNL     1       3.800  15.755  19.547  0.00  0.00    +0.000 A 
ATOM     22  S   UNL     1       3.406  14.408  18.556  0.00  0.00    +0.000 S 
ATOM     23  H   UNL     1       0.571  12.814  20.124  0.00  0.00    +0.000 HD
ENDBRANCH   4  13
BRANCH   5  24
ATOM     24  C   UNL     1      -0.540  10.747  20.985  0.00  0.00    +0.000 A 
ATOM     25  C   UNL     1      -1.495  11.640  20.511  0.00  0.00    +0.000 A 
ATOM     26  C   UNL     1      -2.232  12.444  21.381  0.00  0.00    +0.000 A 
ATOM     27  C   UNL     1      -2.151  12.230  22.750  0.00  0.00    +0.000 A 
ATOM     28  C   UNL     1      -1.346  11.202  23.234  0.00  0.00    +0.000 A 
ATOM     29  C   UNL     1      -0.526  10.474  22.359  0.00  0.00    +0.000 A 
ENDBRANCH   5  24
BRANCH  10  30
ATOM     30  C   UNL     1       4.965   5.203  17.743  0.00  0.00    +0.000 A 
ATOM     31  C   UNL     1       6.293   5.207  18.202  0.00  0.00    +0.000 A 
ATOM     32  C   UNL     1       7.329   4.714  17.403  0.00  0.00    +0.000 A 
ATOM     33  C   UNL     1       7.053   4.207  16.134  0.00  0.00    +0.000 A 
ATOM     34  C   UNL     1       5.739   4.189  15.669  0.00  0.00    +0.000 A 
ATOM     35  C   UNL     1       4.702   4.687  16.467  0.00  0.00    +0.000 A 
ENDBRANCH  10  30
TORSDOF 3
ENDMDL
MODEL 2
REMARK VINA RESULT:      -8.6      0.462      1.215
REMARK  Name = 
REMARK  3 active torsions:
REMARK  status: ('A' for Active; 'I' for Inactive)
REMARK    1  A    between atoms: N_4  and  N_5
REMARK    2  A    between atoms: C_15  and  C_16
REMARK    3  A    between atoms: C_26  and  C_27
REMARK                            x       y       z     vdW  Elec       q    Type
REMARK                         _______ _______ _______ _____ _____    ______ ____
ROOT
ATOM      1  O   UNL     1       2.322   9.990  17.196  0.00  0.00    +0.000 OA
ATOM      2  C   UNL     1       1.750   9.928  18.268  0.00  0.00    +0.000 C 
ATOM      3  C   UNL     1       1.152  11.110  18.986  0.00  0.00    +0.000 C 
ATOM      4  N   UNL     1       1.499  12.312  18.637  0.00  0.00    +0.000 NA
ATOM      5  C   UNL     1       0.379  10.529  20.134  0.00  0.00    +0.000 C 
ATOM      6  N   UNL     1       0.681   9.259  20.246  0.00  0.00    +0.000 NA
ATOM      7  N   UNL     1       1.525   8.911  19.175  0.00  0.00    +0.000 N 
ATOM      8  C   UNL     1       2.200   7.702  19.083  0.00  0.00    +0.000 A 
ATOM      9  N   UNL     1       3.061   7.342  18.156  0.00  0.00    +0.000 NA
ATOM     10  C   UNL     1       3.652   6.126  18.481  0.00  0.00    +0.000 A 
ATOM     11  C   UNL     1       3.168   5.551  19.640  0.00  0.00    +0.000 A 
ATOM     12  S   UNL     1       1.984   6.567  20.352  0.00  0.00    +0.000 S 
ENDROOT
BRANCH   4  13
ATOM     13  N   UNL     1       1.266  13.365  19.465  0.00  0.00    +0.000 N 
ATOM     14  C   UNL     1       2.167  14.354  19.732  0.00  0.00    +0.000 A 
ATOM     15  N   UNL     1       2.033  15.156  20.764  0.00  0.00    +0.000 NA
ATOM     16  C   UNL     1       3.041  16.105  20.776  0.00  0.00    +0.000 A 
ATOM     17  C   UNL     1       3.250  17.079  21.775  0.00  0.00    +0.000 A 
ATOM     18  C   UNL     1       4.327  17.966  21.669  0.00  0.00    +0.000 A 
ATOM     19  C   UNL     1       5.173  17.918  20.565  0.00  0.00    +0.000 A 
ATOM     20  C   UNL     1       4.973  16.977  19.551  0.00  0.00    +0.000 A 
ATOM     21  C   UNL     1       3.916  16.062  19.691  0.00  0.00    +0.000 A 
ATOM     22  S   UNL     1       3.470  14.752  18.671  0.00  0.00    +0.000 S 
ATOM     23  H   UNL     1       0.562  13.250  20.196  0.00  0.00    +0.000 HD
ENDBRANCH   4  13
BRANCH   5  24
ATOM     24  C   UNL     1      -0.586  11.196  21.049  0.00  0.00    +0.000 A 
ATOM     25  C   UNL     1      -0.541  11.035  22.429  0.00  0.00    +0.000 A 
ATOM     26  C   UNL     1      -1.602  11.435  23.243  0.00  0.00    +0.000 A 
ATOM     27  C   UNL     1      -2.643  12.174  22.699  0.00  0.00    +0.000 A 
ATOM     28  C   UNL     1      -2.605  12.518  21.350  0.00  0.00    +0.000 A 
ATOM     29  C   UNL     1      -1.593  12.015  20.520  0.00  0.00    +0.000 A 
ENDBRANCH   5  24
BRANCH  10  30
ATOM     30  C   UNL     1       4.714   5.545  17.657  0.00  0.00    +0.000 A 
ATOM     31  C   UNL     1       4.460   4.483  16.774  0.00  0.00    +0.000 A 
ATOM     32  C   UNL     1       5.493   3.903  16.032  0.00  0.00    +0.000 A 
ATOM     33  C   UNL     1       6.797   4.379  16.159  0.00  0.00    +0.000 A 
ATOM     34  C   UNL     1       7.064   5.437  17.025  0.00  0.00    +0.000 A 
ATOM     35  C   UNL     1       6.030   6.015  17.772  0.00  0.00    +0.000 A 
ENDBRANCH  10  30
TORSDOF 3
ENDMDL
MODEL 3
REMARK VINA RESULT:      -8.5      3.314      6.312
REMARK  Name = 
REMARK  3 active torsions:
REMARK  status: ('A' for Active; 'I' for Inactive)
REMARK    1  A    between atoms: N_4  and  N_5
REMARK    2  A    between atoms: C_15  and  C_16
REMARK    3  A    between atoms: C_26  and  C_27
REMARK                            x       y       z     vdW  Elec       q    Type
REMARK                         _______ _______ _______ _____ _____    ______ ____
ROOT
ATOM      1  O   UNL     1       0.690   9.298  22.339  0.00  0.00    +0.000 OA
ATOM      2  C   UNL     1       0.838  10.031  21.380  0.00  0.00    +0.000 C 
ATOM      3  C   UNL     1       0.266  11.421  21.273  0.00  0.00    +0.000 C 
ATOM      4  N   UNL     1      -0.685  11.785  22.080  0.00  0.00    +0.000 NA
ATOM      5  C   UNL     1       0.880  12.011  20.036  0.00  0.00    +0.000 C 
ATOM      6  N   UNL     1       1.491  11.059  19.375  0.00  0.00    +0.000 NA
ATOM      7  N   UNL     1       1.430   9.881  20.142  0.00  0.00    +0.000 N 
ATOM      8  C   UNL     1       1.797   8.629  19.667  0.00  0.00    +0.000 A 
ATOM      9  N   UNL     1       1.694   7.479  20.298  0.00  0.00    +0.000 NA
ATOM     10  C   UNL     1       2.011   6.424  19.450  0.00  0.00    +0.000 A 
ATOM     11  C   UNL     1       2.418   6.813  18.188  0.00  0.00    +0.000 A 
ATOM     12  S   UNL     1       2.365   8.521  18.051  0.00  0.00    +0.000 S 
ENDROOT
BRANCH   4  13
ATOM     13  N   UNL     1      -1.452  12.871  21.797  0.00  0.00    +0.000 N 
ATOM     14  C   UNL     1      -2.741  13.038  22.214  0.00  0.00    +0.000 A 
ATOM     15  N   UNL     1      -3.540  13.921  21.662  0.00  0.00    +0.000 NA
ATOM     16  C   UNL     1      -4.767  13.934  22.304  0.00  0.00    +0.000 A 
ATOM     17  C   UNL     1      -5.888  14.707  21.932  0.00  0.00    +0.000 A 
ATOM     18  C   UNL     1      -7.078  14.604  22.662  0.00  0.00    +0.000 A 
ATOM     19  C   UNL     1      -7.151  13.773  23.776  0.00  0.00    +0.000 A 
ATOM     20  C   UNL     1      -6.048  13.015  24.177  0.00  0.00    +0.000 A 
ATOM     21  C   UNL     1      -4.873  13.091  23.409  0.00  0.00    +0.000 A 
ATOM     22  S   UNL     1      -3.396  12.232  23.593  0.00  0.00    +0.000 S 
ATOM     23  H   UNL     1      -1.223  13.411  20.961  0.00  0.00    +0.000 HD
ENDBRANCH   4  13
BRANCH   5  24
ATOM     24  C   UNL     1       0.853  13.418  19.555  0.00  0.00    +0.000 A 
ATOM     25  C   UNL     1       1.929  14.285  19.722  0.00  0.00    +0.000 A 
ATOM     26  C   UNL     1       1.792  15.658  19.519  0.00  0.00    +0.000 A 
ATOM     27  C   UNL     1       0.622  16.158  18.965  0.00  0.00    +0.000 A 
ATOM     28  C   UNL     1      -0.394  15.277  18.605  0.00  0.00    +0.000 A 
ATOM     29  C   UNL     1      -0.291  13.914  18.917  0.00  0.00    +0.000 A 
ENDBRANCH   5  24
BRANCH  10  30
ATOM     30  C   UNL     1       1.889   5.030  19.880  0.00  0.00    +0.000 A 
ATOM     31  C   UNL     1       1.377   4.040  19.026  0.00  0.00    +0.000 A 
ATOM     32  C   UNL     1       1.217   2.723  19.467  0.00  0.00    +0.000 A 
ATOM     33  C   UNL     1       1.569   2.375  20.770  0.00  0.00    +0.000 A 
ATOM     34  C   UNL     1       2.087   3.345  21.627  0.00  0.00    +0.000 A 
ATOM     35  C   UNL     1       2.242   4.664  21.187  0.00  0.00    +0.000 A 
ENDBRANCH  10  30
TORSDOF 3
ENDMDL
MODEL 4
REMARK VINA RESULT:      -8.5      1.763      2.036
REMARK  Name = 
REMARK  3 active torsions:
REMARK  status: ('A' for Active; 'I' for Inactive)
REMARK    1  A    between atoms: N_4  and  N_5
REMARK    2  A    between atoms: C_15  and  C_16
REMARK    3  A    between atoms: C_26  and  C_27
REMARK                            x       y       z     vdW  Elec       q    Type
REMARK                         _______ _______ _______ _____ _____    ______ ____
ROOT
ATOM      1  O   UNL     1       2.636   9.807  17.350  0.00  0.00    +0.000 OA
ATOM      2  C   UNL     1       2.002   9.640  18.375  0.00  0.00    +0.000 C 
ATOM      3  C   UNL     1       1.380  10.750  19.183  0.00  0.00    +0.000 C 
ATOM      4  N   UNL     1       1.765  11.975  18.989  0.00  0.00    +0.000 NA
ATOM      5  C   UNL     1       0.532  10.064  20.215  0.00  0.00    +0.000 C 
ATOM      6  N   UNL     1       0.809   8.783  20.203  0.00  0.00    +0.000 NA
ATOM      7  N   UNL     1       1.708   8.536  19.150  0.00  0.00    +0.000 N 
ATOM      8  C   UNL     1       2.370   7.330  18.964  0.00  0.00    +0.000 A 
ATOM      9  N   UNL     1       3.278   7.055  18.053  0.00  0.00    +0.000 NA
ATOM     10  C   UNL     1       3.831   5.799  18.275  0.00  0.00    +0.000 A 
ATOM     11  C   UNL     1       3.271   5.112  19.335  0.00  0.00    +0.000 A 
ATOM     12  S   UNL     1       2.063   6.068  20.086  0.00  0.00    +0.000 S 
ENDROOT
BRANCH   4  13
ATOM     13  N   UNL     1       1.499  12.937  19.913  0.00  0.00    +0.000 N 
ATOM     14  C   UNL     1       1.014  14.178  19.620  0.00  0.00    +0.000 A 
ATOM     15  N   UNL     1       1.078  15.169  20.479  0.00  0.00    +0.000 NA
ATOM     16  C   UNL     1       0.465  16.299  19.964  0.00  0.00    +0.000 A 
ATOM     17  C   UNL     1       0.410  17.566  20.583  0.00  0.00    +0.000 A 
ATOM     18  C   UNL     1      -0.227  18.630  19.935  0.00  0.00    +0.000 A 
ATOM     19  C   UNL     1      -0.841  18.438  18.702  0.00  0.00    +0.000 A 
ATOM     20  C   UNL     1      -0.819  17.187  18.079  0.00  0.00    +0.000 A 
ATOM     21  C   UNL     1      -0.137  16.137  18.717  0.00  0.00    +0.000 A 
ATOM     22  S   UNL     1       0.135  14.529  18.176  0.00  0.00    +0.000 S 
ATOM     23  H   UNL     1       2.002  12.897  20.800  0.00  0.00    +0.000 HD
ENDBRANCH   4  13
BRANCH   5  24
ATOM     24  C   UNL     1      -0.475  10.648  21.141  0.00  0.00    +0.000 A 
ATOM     25  C   UNL     1      -1.396  11.608  20.733  0.00  0.00    +0.000 A 
ATOM     26  C   UNL     1      -2.140  12.339  21.659  0.00  0.00    +0.000 A 
ATOM     27  C   UNL     1      -2.105  11.986  23.001  0.00  0.00    +0.000 A 
ATOM     28  C   UNL     1      -1.339  10.895  23.400  0.00  0.00    +0.000 A 
ATOM     29  C   UNL     1      -0.508  10.239  22.480  0.00  0.00    +0.000 A 
ENDBRANCH   5  24
BRANCH  10  30
ATOM     30  C   UNL     1       4.931   5.289  17.454  0.00  0.00    +0.000 A 
ATOM     31  C   UNL     1       6.230   5.153  17.969  0.00  0.00    +0.000 A 
ATOM     32  C   UNL     1       7.281   4.713  17.159  0.00  0.00    +0.000 A 
ATOM     33  C   UNL     1       7.048   4.400  15.821  0.00  0.00    +0.000 A 
ATOM     34  C   UNL     1       5.763   4.522  15.297  0.00  0.00    +0.000 A 
ATOM     35  C   UNL     1       4.711   4.966  16.107  0.00  0.00    +0.000 A 
ENDBRANCH  10  30
TORSDOF 3
ENDMDL
MODEL 5
REMARK VINA RESULT:      -8.3      3.331      6.282
REMARK  Name = 
REMARK  3 active torsions:
REMARK  status: ('A' for Active; 'I' for Inactive)
REMARK    1  A    between atoms: N_4  and  N_5
REMARK    2  A    between atoms: C_15  and  C_16
REMARK    3  A    between atoms: C_26  and  C_27
REMARK                            x       y       z     vdW  Elec       q    Type
REMARK                         _______ _______ _______ _____ _____    ______ ____
ROOT
ATOM      1  O   UNL     1       0.781   9.375  22.498  0.00  0.00    +0.000 OA
ATOM      2  C   UNL     1       0.886  10.128  21.548  0.00  0.00    +0.000 C 
ATOM      3  C   UNL     1       0.320  11.523  21.499  0.00  0.00    +0.000 C 
ATOM      4  N   UNL     1      -0.588  11.876  22.359  0.00  0.00    +0.000 NA
ATOM      5  C   UNL     1       0.877  12.135  20.246  0.00  0.00    +0.000 C 
ATOM      6  N   UNL     1       1.448  11.193  19.536  0.00  0.00    +0.000 NA
ATOM      7  N   UNL     1       1.416  10.000  20.279  0.00  0.00    +0.000 N 
ATOM      8  C   UNL     1       1.750   8.756  19.761  0.00  0.00    +0.000 A 
ATOM      9  N   UNL     1       1.669   7.593  20.372  0.00  0.00    +0.000 NA
ATOM     10  C   UNL     1       1.937   6.555  19.487  0.00  0.00    +0.000 A 
ATOM     11  C   UNL     1       2.284   6.968  18.216  0.00  0.00    +0.000 A 
ATOM     12  S   UNL     1       2.237   8.679  18.117  0.00  0.00    +0.000 S 
ENDROOT
BRANCH   4  13
ATOM     13  N   UNL     1      -1.360  12.972  22.136  0.00  0.00    +0.000 N 
ATOM     14  C   UNL     1      -2.673  13.078  22.489  0.00  0.00    +0.000 A 
ATOM     15  N   UNL     1      -3.458  13.999  21.978  0.00  0.00    +0.000 NA
ATOM     16  C   UNL     1      -4.720  13.930  22.544  0.00  0.00    +0.000 A 
ATOM     17  C   UNL     1      -5.834  14.718  22.183  0.00  0.00    +0.000 A 
ATOM     18  C   UNL     1      -7.061  14.526  22.826  0.00  0.00    +0.000 A 
ATOM     19  C   UNL     1      -7.182  13.589  23.848  0.00  0.00    +0.000 A 
ATOM     20  C   UNL     1      -6.088  12.813  24.239  0.00  0.00    +0.000 A 
ATOM     21  C   UNL     1      -4.872  12.982  23.554  0.00  0.00    +0.000 A 
ATOM     22  S   UNL     1      -3.391  12.131  23.743  0.00  0.00    +0.000 S 
ATOM     23  H   UNL     1      -1.094  13.595  21.373  0.00  0.00    +0.000 HD
ENDBRANCH   4  13
BRANCH   5  24
ATOM     24  C   UNL     1       0.837  13.552  19.796  0.00  0.00    +0.000 A 
ATOM     25  C   UNL     1      -0.274  14.106  19.168  0.00  0.00    +0.000 A 
ATOM     26  C   UNL     1      -0.200  15.335  18.513  0.00  0.00    +0.000 A 
ATOM     27  C   UNL     1       0.942  16.114  18.639  0.00  0.00    +0.000 A 
ATOM     28  C   UNL     1       1.993  15.661  19.433  0.00  0.00    +0.000 A 
ATOM     29  C   UNL     1       1.953  14.377  19.994  0.00  0.00    +0.000 A 
ENDBRANCH   5  24
BRANCH  10  30
ATOM     30  C   UNL     1       1.825   5.153  19.894  0.00  0.00    +0.000 A 
ATOM     31  C   UNL     1       2.153   4.738  21.195  0.00  0.00    +0.000 A 
ATOM     32  C   UNL     1       2.092   3.388  21.555  0.00  0.00    +0.000 A 
ATOM     33  C   UNL     1       1.699   2.433  20.619  0.00  0.00    +0.000 A 
ATOM     34  C   UNL     1       1.363   2.830  19.326  0.00  0.00    +0.000 A 
ATOM     35  C   UNL     1       1.428   4.181  18.965  0.00  0.00    +0.000 A 
ENDBRANCH  10  30
TORSDOF 3
ENDMDL
MODEL 6
REMARK VINA RESULT:      -8.3      1.845      2.386
REMARK  Name = 
REMARK  3 active torsions:
REMARK  status: ('A' for Active; 'I' for Inactive)
REMARK    1  A    between atoms: N_4  and  N_5
REMARK    2  A    between atoms: C_15  and  C_16
REMARK    3  A    between atoms: C_26  and  C_27
REMARK                            x       y       z     vdW  Elec       q    Type
REMARK                         _______ _______ _______ _____ _____    ______ ____
ROOT
ATOM      1  O   UNL     1       2.556   9.966  17.185  0.00  0.00    +0.000 OA
ATOM      2  C   UNL     1       2.005   9.789  18.255  0.00  0.00    +0.000 C 
ATOM      3  C   UNL     1       1.482  10.893  19.137  0.00  0.00    +0.000 C 
ATOM      4  N   UNL     1       1.880  12.113  18.939  0.00  0.00    +0.000 NA
ATOM      5  C   UNL     1       0.705  10.201  20.220  0.00  0.00    +0.000 C 
ATOM      6  N   UNL     1       0.946   8.915  20.156  0.00  0.00    +0.000 NA
ATOM      7  N   UNL     1       1.748   8.673  19.026  0.00  0.00    +0.000 N 
ATOM      8  C   UNL     1       2.361   7.457  18.759  0.00  0.00    +0.000 A 
ATOM      9  N   UNL     1       3.184   7.183  17.769  0.00  0.00    +0.000 NA
ATOM     10  C   UNL     1       3.721   5.909  17.915  0.00  0.00    +0.000 A 
ATOM     11  C   UNL     1       3.233   5.209  19.002  0.00  0.00    +0.000 A 
ATOM     12  S   UNL     1       2.116   6.175  19.873  0.00  0.00    +0.000 S 
ENDROOT
BRANCH   4  13
ATOM     13  N   UNL     1       1.716  13.057  19.904  0.00  0.00    +0.000 N 
ATOM     14  C   UNL     1       1.112  14.265  19.710  0.00  0.00    +0.000 A 
ATOM     15  N   UNL     1       1.261  15.259  20.554  0.00  0.00    +0.000 NA
ATOM     16  C   UNL     1       0.500  16.348  20.162  0.00  0.00    +0.000 A 
ATOM     17  C   UNL     1       0.472  17.610  20.793  0.00  0.00    +0.000 A 
ATOM     18  C   UNL     1      -0.331  18.631  20.273  0.00  0.00    +0.000 A 
ATOM     19  C   UNL     1      -1.133  18.399  19.160  0.00  0.00    +0.000 A 
ATOM     20  C   UNL     1      -1.141  17.150  18.532  0.00  0.00    +0.000 A 
ATOM     21  C   UNL     1      -0.295  16.147  19.035  0.00  0.00    +0.000 A 
ATOM     22  S   UNL     1      -0.020  14.558  18.440  0.00  0.00    +0.000 S 
ATOM     23  H   UNL     1       2.365  13.050  20.692  0.00  0.00    +0.000 HD
ENDBRANCH   4  13
BRANCH   5  24
ATOM     24  C   UNL     1      -0.207  10.786  21.240  0.00  0.00    +0.000 A 
ATOM     25  C   UNL     1      -0.199  10.379  22.570  0.00  0.00    +0.000 A 
ATOM     26  C   UNL     1      -1.230  10.730  23.443  0.00  0.00    +0.000 A 
ATOM     27  C   UNL     1      -2.187  11.650  23.041  0.00  0.00    +0.000 A 
ATOM     28  C   UNL     1      -2.095  12.223  21.775  0.00  0.00    +0.000 A 
ATOM     29  C   UNL     1      -1.123  11.779  20.867  0.00  0.00    +0.000 A 
ENDBRANCH   5  24
BRANCH  10  30
ATOM     30  C   UNL     1       4.735   5.393  16.994  0.00  0.00    +0.000 A 
ATOM     31  C   UNL     1       4.652   4.095  16.463  0.00  0.00    +0.000 A 
ATOM     32  C   UNL     1       5.654   3.597  15.626  0.00  0.00    +0.000 A 
ATOM     33  C   UNL     1       6.754   4.390  15.304  0.00  0.00    +0.000 A 
ATOM     34  C   UNL     1       6.846   5.683  15.815  0.00  0.00    +0.000 A 
ATOM     35  C   UNL     1       5.845   6.180  16.658  0.00  0.00    +0.000 A 
ENDBRANCH  10  30
TORSDOF 3
ENDMDL
MODEL 7
REMARK VINA RESULT:      -8.1      3.419      5.468
REMARK  Name = 
REMARK  3 active torsions:
REMARK  status: ('A' for Active; 'I' for Inactive)
REMARK    1  A    between atoms: N_4  and  N_5
REMARK    2  A    between atoms: C_15  and  C_16
REMARK    3  A    between atoms: C_26  and  C_27
REMARK                            x       y       z     vdW  Elec       q    Type
REMARK                         _______ _______ _______ _____ _____    ______ ____
ROOT
ATOM      1  O   UNL     1       0.011   9.048  22.396  0.00  0.00    +0.000 OA
ATOM      2  C   UNL     1       0.236   9.874  21.531  0.00  0.00    +0.000 C 
ATOM      3  C   UNL     1      -0.429  11.223  21.446  0.00  0.00    +0.000 C 
ATOM      4  N   UNL     1      -1.516  11.444  22.122  0.00  0.00    +0.000 NA
ATOM      5  C   UNL     1       0.309  11.963  20.368  0.00  0.00    +0.000 C 
ATOM      6  N   UNL     1       1.090  11.120  19.738  0.00  0.00    +0.000 NA
ATOM      7  N   UNL     1       1.015   9.877  20.391  0.00  0.00    +0.000 N 
ATOM      8  C   UNL     1       1.553   8.703  19.883  0.00  0.00    +0.000 A 
ATOM      9  N   UNL     1       1.455   7.496  20.399  0.00  0.00    +0.000 NA
ATOM     10  C   UNL     1       1.982   6.547  19.531  0.00  0.00    +0.000 A 
ATOM     11  C   UNL     1       2.536   7.076  18.381  0.00  0.00    +0.000 A 
ATOM     12  S   UNL     1       2.360   8.781  18.371  0.00  0.00    +0.000 S 
ENDROOT
BRANCH   4  13
ATOM     13  N   UNL     1      -2.322  12.493  21.809  0.00  0.00    +0.000 N 
ATOM     14  C   UNL     1      -2.542  13.568  22.620  0.00  0.00    +0.000 A 
ATOM     15  N   UNL     1      -3.556  14.382  22.433  0.00  0.00    +0.000 NA
ATOM     16  C   UNL     1      -3.520  15.420  23.350  0.00  0.00    +0.000 A 
ATOM     17  C   UNL     1      -4.488  16.437  23.487  0.00  0.00    +0.000 A 
ATOM     18  C   UNL     1      -4.335  17.416  24.476  0.00  0.00    +0.000 A 
ATOM     19  C   UNL     1      -3.214  17.416  25.299  0.00  0.00    +0.000 A 
ATOM     20  C   UNL     1      -2.229  16.433  25.167  0.00  0.00    +0.000 A 
ATOM     21  C   UNL     1      -2.417  15.428  24.202  0.00  0.00    +0.000 A 
ATOM     22  S   UNL     1      -1.442  14.055  23.858  0.00  0.00    +0.000 S 
ATOM     23  H   UNL     1      -3.071  12.334  21.134  0.00  0.00    +0.000 HD
ENDBRANCH   4  13
BRANCH   5  24
ATOM     24  C   UNL     1       0.236  13.403  20.000  0.00  0.00    +0.000 A 
ATOM     25  C   UNL     1      -0.312  13.839  18.798  0.00  0.00    +0.000 A 
ATOM     26  C   UNL     1      -0.128  15.147  18.348  0.00  0.00    +0.000 A 
ATOM     27  C   UNL     1       0.452  16.087  19.188  0.00  0.00    +0.000 A 
ATOM     28  C   UNL     1       0.827  15.713  20.476  0.00  0.00    +0.000 A 
ATOM     29  C   UNL     1       0.740  14.372  20.877  0.00  0.00    +0.000 A 
ENDBRANCH   5  24
BRANCH  10  30
ATOM     30  C   UNL     1       1.915   5.115  19.827  0.00  0.00    +0.000 A 
ATOM     31  C   UNL     1       1.512   4.182  18.857  0.00  0.00    +0.000 A 
ATOM     32  C   UNL     1       1.403   2.824  19.169  0.00  0.00    +0.000 A 
ATOM     33  C   UNL     1       1.697   2.377  20.456  0.00  0.00    +0.000 A 
ATOM     34  C   UNL     1       2.106   3.289  21.427  0.00  0.00    +0.000 A 
ATOM     35  C   UNL     1       2.211   4.649  21.116  0.00  0.00    +0.000 A 
ENDBRANCH  10  30
TORSDOF 3
ENDMDL
MODEL 8
REMARK VINA RESULT:      -8.1      3.243      5.617
REMARK  Name = 
REMARK  3 active torsions:
REMARK  status: ('A' for Active; 'I' for Inactive)
REMARK    1  A    between atoms: N_4  and  N_5
REMARK    2  A    between atoms: C_15  and  C_16
REMARK    3  A    between atoms: C_26  and  C_27
REMARK                            x       y       z     vdW  Elec       q    Type
REMARK                         _______ _______ _______ _____ _____    ______ ____
ROOT
ATOM      1  O   UNL     1       0.303   9.044  22.075  0.00  0.00    +0.000 OA
ATOM      2  C   UNL     1       0.577   9.782  21.147  0.00  0.00    +0.000 C 
ATOM      3  C   UNL     1       0.001  11.161  20.955  0.00  0.00    +0.000 C 
ATOM      4  N   UNL     1      -1.065  11.506  21.612  0.00  0.00    +0.000 NA
ATOM      5  C   UNL     1       0.781  11.764  19.822  0.00  0.00    +0.000 C 
ATOM      6  N   UNL     1       1.501  10.824  19.260  0.00  0.00    +0.000 NA
ATOM      7  N   UNL     1       1.349   9.645  20.010  0.00  0.00    +0.000 N 
ATOM      8  C   UNL     1       1.805   8.401  19.597  0.00  0.00    +0.000 A 
ATOM      9  N   UNL     1       1.631   7.247  20.206  0.00  0.00    +0.000 NA
ATOM     10  C   UNL     1       2.090   6.200  19.416  0.00  0.00    +0.000 A 
ATOM     11  C   UNL     1       2.672   6.599  18.228  0.00  0.00    +0.000 A 
ATOM     12  S   UNL     1       2.608   8.306  18.082  0.00  0.00    +0.000 S 
ENDROOT
BRANCH   4  13
ATOM     13  N   UNL     1      -1.802  12.578  21.217  0.00  0.00    +0.000 N 
ATOM     14  C   UNL     1      -2.390  13.468  22.067  0.00  0.00    +0.000 A 
ATOM     15  N   UNL     1      -3.343  14.280  21.672  0.00  0.00    +0.000 NA
ATOM     16  C   UNL     1      -3.726  15.119  22.705  0.00  0.00    +0.000 A 
ATOM     17  C   UNL     1      -4.770  16.068  22.659  0.00  0.00    +0.000 A 
ATOM     18  C   UNL     1      -5.063  16.837  23.790  0.00  0.00    +0.000 A 
ATOM     19  C   UNL     1      -4.307  16.701  24.950  0.00  0.00    +0.000 A 
ATOM     20  C   UNL     1      -3.253  15.785  25.013  0.00  0.00    +0.000 A 
ATOM     21  C   UNL     1      -2.997  14.985  23.886  0.00  0.00    +0.000 A 
ATOM     22  S   UNL     1      -1.843  13.728  23.684  0.00  0.00    +0.000 S 
ATOM     23  H   UNL     1      -2.249  12.537  20.300  0.00  0.00    +0.000 HD
ENDBRANCH   4  13
BRANCH   5  24
ATOM     24  C   UNL     1       0.800  13.171  19.341  0.00  0.00    +0.000 A 
ATOM     25  C   UNL     1       1.956  13.945  19.340  0.00  0.00    +0.000 A 
ATOM     26  C   UNL     1       1.905  15.326  19.151  0.00  0.00    +0.000 A 
ATOM     27  C   UNL     1       0.711  15.925  18.774  0.00  0.00    +0.000 A 
ATOM     28  C   UNL     1      -0.417  15.133  18.575  0.00  0.00    +0.000 A 
ATOM     29  C   UNL     1      -0.382  13.764  18.877  0.00  0.00    +0.000 A 
ENDBRANCH   5  24
BRANCH  10  30
ATOM     30  C   UNL     1       1.931   4.804  19.825  0.00  0.00    +0.000 A 
ATOM     31  C   UNL     1       1.459   3.827  18.933  0.00  0.00    +0.000 A 
ATOM     32  C   UNL     1       1.263   2.508  19.352  0.00  0.00    +0.000 A 
ATOM     33  C   UNL     1       1.539   2.144  20.668  0.00  0.00    +0.000 A 
ATOM     34  C   UNL     1       2.016   3.100  21.563  0.00  0.00    +0.000 A 
ATOM     35  C   UNL     1       2.208   4.422  21.145  0.00  0.00    +0.000 A 
ENDBRANCH  10  30
TORSDOF 3
ENDMDL
MODEL 9
REMARK VINA RESULT:      -8.0      4.859      7.835
REMARK  Name = 
REMARK  3 active torsions:
REMARK  status: ('A' for Active; 'I' for Inactive)
REMARK    1  A    between atoms: N_4  and  N_5
REMARK    2  A    between atoms: C_15  and  C_16
REMARK    3  A    between atoms: C_26  and  C_27
REMARK                            x       y       z     vdW  Elec       q    Type
REMARK                         _______ _______ _______ _____ _____    ______ ____
ROOT
ATOM      1  O   UNL     1       4.646  14.006  22.276  0.00  0.00    +0.000 OA
ATOM      2  C   UNL     1       4.079  14.650  21.413  0.00  0.00    +0.000 C 
ATOM      3  C   UNL     1       2.582  14.773  21.285  0.00  0.00    +0.000 C 
ATOM      4  N   UNL     1       1.816  13.932  21.912  0.00  0.00    +0.000 NA
ATOM      5  C   UNL     1       2.357  15.820  20.233  0.00  0.00    +0.000 C 
ATOM      6  N   UNL     1       3.499  16.078  19.645  0.00  0.00    +0.000 NA
ATOM      7  N   UNL     1       4.508  15.357  20.307  0.00  0.00    +0.000 N 
ATOM      8  C   UNL     1       5.808  15.233  19.834  0.00  0.00    +0.000 A 
ATOM      9  N   UNL     1       6.778  14.514  20.357  0.00  0.00    +0.000 NA
ATOM     10  C   UNL     1       7.889  14.508  19.522  0.00  0.00    +0.000 A 
ATOM     11  C   UNL     1       7.754  15.291  18.392  0.00  0.00    +0.000 A 
ATOM     12  S   UNL     1       6.199  16.014  18.357  0.00  0.00    +0.000 S 
ENDROOT
BRANCH   4  13
ATOM     13  N   UNL     1       0.512  13.788  21.555  0.00  0.00    +0.000 N 
ATOM     14  C   UNL     1       0.066  12.937  20.587  0.00  0.00    +0.000 A 
ATOM     15  N   UNL     1      -1.128  13.058  20.052  0.00  0.00    +0.000 NA
ATOM     16  C   UNL     1      -1.359  12.039  19.143  0.00  0.00    +0.000 A 
ATOM     17  C   UNL     1      -2.505  11.897  18.332  0.00  0.00    +0.000 A 
ATOM     18  C   UNL     1      -2.597  10.825  17.437  0.00  0.00    +0.000 A 
ATOM     19  C   UNL     1      -1.582   9.875  17.370  0.00  0.00    +0.000 A 
ATOM     20  C   UNL     1      -0.448   9.981  18.180  0.00  0.00    +0.000 A 
ATOM     21  C   UNL     1      -0.346  11.087  19.041  0.00  0.00    +0.000 A 
ATOM     22  S   UNL     1       0.943  11.536  20.085  0.00  0.00    +0.000 S 
ATOM     23  H   UNL     1      -0.119  14.571  21.728  0.00  0.00    +0.000 HD
ENDBRANCH   4  13
BRANCH   5  24
ATOM     24  C   UNL     1       1.094  16.506  19.848  0.00  0.00    +0.000 A 
ATOM     25  C   UNL     1       0.465  16.280  18.628  0.00  0.00    +0.000 A 
ATOM     26  C   UNL     1      -0.550  17.121  18.169  0.00  0.00    +0.000 A 
ATOM     27  C   UNL     1      -1.075  18.089  19.013  0.00  0.00    +0.000 A 
ATOM     28  C   UNL     1      -0.590  18.197  20.314  0.00  0.00    +0.000 A 
ATOM     29  C   UNL     1       0.505  17.424  20.726  0.00  0.00    +0.000 A 
ENDBRANCH   5  24
BRANCH  10  30
ATOM     30  C   UNL     1       9.076  13.708  19.830  0.00  0.00    +0.000 A 
ATOM     31  C   UNL     1      10.354  14.092  19.392  0.00  0.00    +0.000 A 
ATOM     32  C   UNL     1      11.471  13.292  19.649  0.00  0.00    +0.000 A 
ATOM     33  C   UNL     1      11.328  12.095  20.349  0.00  0.00    +0.000 A 
ATOM     34  C   UNL     1      10.067  11.704  20.797  0.00  0.00    +0.000 A 
ATOM     35  C   UNL     1       8.948  12.504  20.536  0.00  0.00    +0.000 A 
ENDBRANCH  10  30
TORSDOF 3
ENDMDL
