MODEL 1
REMARK VINA RESULT:      -8.2      0.000      0.000
REMARK  Name = 
REMARK  5 active torsions:
REMARK  status: ('A' for Active; 'I' for Inactive)
REMARK    1  A    between atoms: C_1  and  O_2
REMARK    2  A    between atoms: O_2  and  C_3
REMARK    3  A    between atoms: C_7  and  C_8
REMARK    4  A    between atoms: N_14  and  N_15
REMARK    5  A    between atoms: N_15  and  C_16
REMARK                            x       y       z     vdW  Elec       q    Type
REMARK                         _______ _______ _______ _____ _____    ______ ____
ROOT
ATOM      1  C   UNL     1       4.223   3.708  18.748  0.00  0.00    +0.000 C 
ATOM      2  N   UNL     1       3.975   2.465  19.078  0.00  0.00    +0.000 NA
ATOM      3  N   UNL     1       3.105   2.479  20.162  0.00  0.00    +0.000 N 
ATOM      4  C   UNL     1       2.749   3.729  20.613  0.00  0.00    +0.000 C 
ATOM      5  O   UNL     1       2.070   4.083  21.550  0.00  0.00    +0.000 OA
ATOM      6  C   UNL     1       3.434   4.622  19.624  0.00  0.00    +0.000 C 
ATOM      7  N   UNL     1       3.345   5.901  19.463  0.00  0.00    +0.000 NA
ATOM      8  H   UNL     1       2.835   1.611  20.612  0.00  0.00    +0.000 HD
ENDROOT
BRANCH   1  13
ATOM      9  C   UNL     1       5.618   4.385  15.329  0.00  0.00    +0.000 A 
ATOM     10  C   UNL     1       6.912   4.805  15.647  0.00  0.00    +0.000 A 
ATOM     11  C   UNL     1       7.333   4.882  16.976  0.00  0.00    +0.000 A 
ATOM     12  C   UNL     1       6.454   4.541  18.001  0.00  0.00    +0.000 A 
ATOM     13  C   UNL     1       5.154   4.125  17.694  0.00  0.00    +0.000 A 
ATOM     14  C   UNL     1       4.737   4.044  16.359  0.00  0.00    +0.000 A 
BRANCH   9  16
ATOM     15  C   UNL     1       6.279   3.655  13.165  0.00  0.00    +0.000 C 
ATOM     16  O   UNL     1       5.344   4.338  13.992  0.00  0.00    +0.000 OA
ENDBRANCH   9  16
ENDBRANCH   1  13
BRANCH   7  17
ATOM     17  N   UNL     1       2.567   6.585  20.334  0.00  0.00    +0.000 N 
ATOM     18  H   UNL     1       2.311   6.211  21.252  0.00  0.00    +0.000 HD
BRANCH  17  19
ATOM     19  C   UNL     1       1.932   7.763  19.908  0.00  0.00    +0.000 A 
ATOM     20  C   UNL     1       2.065   8.248  18.598  0.00  0.00    +0.000 A 
ATOM     21  C   UNL     1       1.453   9.440  18.200  0.00  0.00    +0.000 A 
ATOM     22  C   UNL     1       0.701  10.165  19.119  0.00  0.00    +0.000 A 
ATOM     23 CL   UNL     1      -0.054  11.632  18.635  0.00  0.00    +0.000 Cl
ATOM     24  C   UNL     1       0.562   9.710  20.428  0.00  0.00    +0.000 A 
ATOM     25  C   UNL     1       1.179   8.515  20.820  0.00  0.00    +0.000 A 
ENDBRANCH  17  19
ENDBRANCH   7  17
TORSDOF 4
ENDMDL
MODEL 2
REMARK VINA RESULT:      -8.2      0.080      1.008
REMARK  Name = 
REMARK  5 active torsions:
REMARK  status: ('A' for Active; 'I' for Inactive)
REMARK    1  A    between atoms: C_1  and  O_2
REMARK    2  A    between atoms: O_2  and  C_3
REMARK    3  A    between atoms: C_7  and  C_8
REMARK    4  A    between atoms: N_14  and  N_15
REMARK    5  A    between atoms: N_15  and  C_16
REMARK                            x       y       z     vdW  Elec       q    Type
REMARK                         _______ _______ _______ _____ _____    ______ ____
ROOT
ATOM      1  C   UNL     1       4.232   3.683  18.806  0.00  0.00    +0.000 C 
ATOM      2  N   UNL     1       4.030   2.436  19.151  0.00  0.00    +0.000 NA
ATOM      3  N   UNL     1       3.158   2.431  20.234  0.00  0.00    +0.000 N 
ATOM      4  C   UNL     1       2.756   3.673  20.668  0.00  0.00    +0.000 C 
ATOM      5  O   UNL     1       2.063   4.013  21.600  0.00  0.00    +0.000 OA
ATOM      6  C   UNL     1       3.409   4.578  19.669  0.00  0.00    +0.000 C 
ATOM      7  N   UNL     1       3.273   5.851  19.492  0.00  0.00    +0.000 NA
ATOM      8  H   UNL     1       2.919   1.560  20.694  0.00  0.00    +0.000 HD
ENDROOT
BRANCH   1  13
ATOM      9  C   UNL     1       5.593   4.399  15.380  0.00  0.00    +0.000 A 
ATOM     10  C   UNL     1       6.882   4.840  15.691  0.00  0.00    +0.000 A 
ATOM     11  C   UNL     1       7.310   4.918  17.018  0.00  0.00    +0.000 A 
ATOM     12  C   UNL     1       6.444   4.557  18.048  0.00  0.00    +0.000 A 
ATOM     13  C   UNL     1       5.149   4.121  17.748  0.00  0.00    +0.000 A 
ATOM     14  C   UNL     1       4.725   4.038  16.414  0.00  0.00    +0.000 A 
BRANCH   9  16
ATOM     15  C   UNL     1       6.252   3.691  13.209  0.00  0.00    +0.000 C 
ATOM     16  O   UNL     1       5.311   4.353  14.045  0.00  0.00    +0.000 OA
ENDBRANCH   9  16
ENDBRANCH   1  13
BRANCH   7  17
ATOM     17  N   UNL     1       2.470   6.517  20.354  0.00  0.00    +0.000 N 
ATOM     18  H   UNL     1       2.132   6.098  21.224  0.00  0.00    +0.000 HD
BRANCH  17  19
ATOM     19  C   UNL     1       1.925   7.752  19.968  0.00  0.00    +0.000 A 
ATOM     20  C   UNL     1       1.169   8.540  20.849  0.00  0.00    +0.000 A 
ATOM     21  C   UNL     1       0.606   9.752  20.439  0.00  0.00    +0.000 A 
ATOM     22  C   UNL     1       0.791  10.185  19.131  0.00  0.00    +0.000 A 
ATOM     23 CL   UNL     1       0.100  11.675  18.620  0.00  0.00    +0.000 Cl
ATOM     24  C   UNL     1       1.529   9.418  18.234  0.00  0.00    +0.000 A 
ATOM     25  C   UNL     1       2.091   8.205  18.652  0.00  0.00    +0.000 A 
ENDBRANCH  17  19
ENDBRANCH   7  17
TORSDOF 4
ENDMDL
MODEL 3
REMARK VINA RESULT:      -8.2      3.422      4.527
REMARK  Name = 
REMARK  5 active torsions:
REMARK  status: ('A' for Active; 'I' for Inactive)
REMARK    1  A    between atoms: C_1  and  O_2
REMARK    2  A    between atoms: O_2  and  C_3
REMARK    3  A    between atoms: C_7  and  C_8
REMARK    4  A    between atoms: N_14  and  N_15
REMARK    5  A    between atoms: N_15  and  C_16
REMARK                            x       y       z     vdW  Elec       q    Type
REMARK                         _______ _______ _______ _____ _____    ______ ____
ROOT
ATOM      1  C   UNL     1       7.062   4.684  16.000  0.00  0.00    +0.000 C 
ATOM      2  N   UNL     1       8.007   4.166  16.745  0.00  0.00    +0.000 NA
ATOM      3  N   UNL     1       7.734   4.495  18.067  0.00  0.00    +0.000 N 
ATOM      4  C   UNL     1       6.607   5.259  18.260  0.00  0.00    +0.000 C 
ATOM      5  O   UNL     1       6.131   5.752  19.258  0.00  0.00    +0.000 OA
ATOM      6  C   UNL     1       6.058   5.360  16.871  0.00  0.00    +0.000 C 
ATOM      7  N   UNL     1       4.933   5.844  16.457  0.00  0.00    +0.000 NA
ATOM      8  H   UNL     1       8.383   4.238  18.803  0.00  0.00    +0.000 HD
ENDROOT
BRANCH   1  13
ATOM      9  C   UNL     1       6.172   3.557  12.531  0.00  0.00    +0.000 A 
ATOM     10  C   UNL     1       6.984   4.393  11.762  0.00  0.00    +0.000 A 
ATOM     11  C   UNL     1       7.816   5.337  12.368  0.00  0.00    +0.000 A 
ATOM     12  C   UNL     1       7.837   5.452  13.755  0.00  0.00    +0.000 A 
ATOM     13  C   UNL     1       7.023   4.624  14.535  0.00  0.00    +0.000 A 
ATOM     14  C   UNL     1       6.193   3.674  13.924  0.00  0.00    +0.000 A 
BRANCH   9  16
ATOM     15  C   UNL     1       4.174   3.131  11.314  0.00  0.00    +0.000 C 
ATOM     16  O   UNL     1       5.423   2.668  11.814  0.00  0.00    +0.000 OA
ENDBRANCH   9  16
ENDBRANCH   1  13
BRANCH   7  17
ATOM     17  N   UNL     1       4.121   6.407  17.382  0.00  0.00    +0.000 N 
ATOM     18  H   UNL     1       4.192   7.393  17.647  0.00  0.00    +0.000 HD
BRANCH  17  19
ATOM     19  C   UNL     1       3.275   5.585  18.144  0.00  0.00    +0.000 A 
ATOM     20  C   UNL     1       2.757   4.382  17.642  0.00  0.00    +0.000 A 
ATOM     21  C   UNL     1       1.890   3.591  18.402  0.00  0.00    +0.000 A 
ATOM     22  C   UNL     1       1.528   4.006  19.680  0.00  0.00    +0.000 A 
ATOM     23 CL   UNL     1       0.461   3.038  20.620  0.00  0.00    +0.000 Cl
ATOM     24  C   UNL     1       2.021   5.200  20.198  0.00  0.00    +0.000 A 
ATOM     25  C   UNL     1       2.889   5.987  19.430  0.00  0.00    +0.000 A 
ENDBRANCH  17  19
ENDBRANCH   7  17
TORSDOF 4
ENDMDL
MODEL 4
REMARK VINA RESULT:      -8.1      3.416      4.585
REMARK  Name = 
REMARK  5 active torsions:
REMARK  status: ('A' for Active; 'I' for Inactive)
REMARK    1  A    between atoms: C_1  and  O_2
REMARK    2  A    between atoms: O_2  and  C_3
REMARK    3  A    between atoms: C_7  and  C_8
REMARK    4  A    between atoms: N_14  and  N_15
REMARK    5  A    between atoms: N_15  and  C_16
REMARK                            x       y       z     vdW  Elec       q    Type
REMARK                         _______ _______ _______ _____ _____    ______ ____
ROOT
ATOM      1  C   UNL     1       7.062   4.687  16.029  0.00  0.00    +0.000 C 
ATOM      2  N   UNL     1       8.004   4.158  16.769  0.00  0.00    +0.000 NA
ATOM      3  N   UNL     1       7.751   4.506  18.091  0.00  0.00    +0.000 N 
ATOM      4  C   UNL     1       6.642   5.295  18.287  0.00  0.00    +0.000 C 
ATOM      5  O   UNL     1       6.186   5.807  19.284  0.00  0.00    +0.000 OA
ATOM      6  C   UNL     1       6.080   5.392  16.902  0.00  0.00    +0.000 C 
ATOM      7  N   UNL     1       4.961   5.894  16.495  0.00  0.00    +0.000 NA
ATOM      8  H   UNL     1       8.402   4.244  18.822  0.00  0.00    +0.000 HD
ENDROOT
BRANCH   1  13
ATOM      9  C   UNL     1       6.107   3.548  12.581  0.00  0.00    +0.000 A 
ATOM     10  C   UNL     1       6.934   4.354  11.794  0.00  0.00    +0.000 A 
ATOM     11  C   UNL     1       7.796   5.281  12.382  0.00  0.00    +0.000 A 
ATOM     12  C   UNL     1       7.834   5.410  13.768  0.00  0.00    +0.000 A 
ATOM     13  C   UNL     1       7.006   4.613  14.565  0.00  0.00    +0.000 A 
ATOM     14  C   UNL     1       6.145   3.679  13.972  0.00  0.00    +0.000 A 
BRANCH   9  16
ATOM     15  C   UNL     1       5.975   1.538  11.317  0.00  0.00    +0.000 C 
ATOM     16  O   UNL     1       5.327   2.673  11.881  0.00  0.00    +0.000 OA
ENDBRANCH   9  16
ENDBRANCH   1  13
BRANCH   7  17
ATOM     17  N   UNL     1       4.170   6.483  17.422  0.00  0.00    +0.000 N 
ATOM     18  H   UNL     1       4.292   7.458  17.709  0.00  0.00    +0.000 HD
BRANCH  17  19
ATOM     19  C   UNL     1       3.270   5.694  18.157  0.00  0.00    +0.000 A 
ATOM     20  C   UNL     1       2.869   6.037  19.456  0.00  0.00    +0.000 A 
ATOM     21  C   UNL     1       1.998   5.222  20.187  0.00  0.00    +0.000 A 
ATOM     22  C   UNL     1       1.523   4.045  19.618  0.00  0.00    +0.000 A 
ATOM     23 CL   UNL     1       0.452   3.039  20.512  0.00  0.00    +0.000 Cl
ATOM     24  C   UNL     1       1.914   3.677  18.334  0.00  0.00    +0.000 A 
ATOM     25  C   UNL     1       2.786   4.498  17.608  0.00  0.00    +0.000 A 
ENDBRANCH  17  19
ENDBRANCH   7  17
TORSDOF 4
ENDMDL
MODEL 5
REMARK VINA RESULT:      -8.1      1.124      2.124
REMARK  Name = 
REMARK  5 active torsions:
REMARK  status: ('A' for Active; 'I' for Inactive)
REMARK    1  A    between atoms: C_1  and  O_2
REMARK    2  A    between atoms: O_2  and  C_3
REMARK    3  A    between atoms: C_7  and  C_8
REMARK    4  A    between atoms: N_14  and  N_15
REMARK    5  A    between atoms: N_15  and  C_16
REMARK                            x       y       z     vdW  Elec       q    Type
REMARK                         _______ _______ _______ _____ _____    ______ ____
ROOT
ATOM      1  C   UNL     1       4.231   3.798  18.645  0.00  0.00    +0.000 C 
ATOM      2  N   UNL     1       4.139   2.560  19.062  0.00  0.00    +0.000 NA
ATOM      3  N   UNL     1       3.359   2.558  20.213  0.00  0.00    +0.000 N 
ATOM      4  C   UNL     1       2.914   3.793  20.622  0.00  0.00    +0.000 C 
ATOM      5  O   UNL     1       2.278   4.137  21.593  0.00  0.00    +0.000 OA
ATOM      6  C   UNL     1       3.425   4.684  19.533  0.00  0.00    +0.000 C 
ATOM      7  N   UNL     1       3.193   5.936  19.309  0.00  0.00    +0.000 NA
ATOM      8  H   UNL     1       3.215   1.698  20.731  0.00  0.00    +0.000 HD
ENDROOT
BRANCH   1  13
ATOM      9  C   UNL     1       6.720   5.726  16.598  0.00  0.00    +0.000 A 
ATOM     10  C   UNL     1       6.502   5.182  15.330  0.00  0.00    +0.000 A 
ATOM     11  C   UNL     1       5.552   4.177  15.137  0.00  0.00    +0.000 A 
ATOM     12  C   UNL     1       4.814   3.704  16.220  0.00  0.00    +0.000 A 
ATOM     13  C   UNL     1       5.030   4.237  17.495  0.00  0.00    +0.000 A 
ATOM     14  C   UNL     1       5.980   5.250  17.684  0.00  0.00    +0.000 A 
BRANCH   9  16
ATOM     15  C   UNL     1       7.697   7.520  17.814  0.00  0.00    +0.000 C 
ATOM     16  O   UNL     1       7.662   6.713  16.643  0.00  0.00    +0.000 OA
ENDBRANCH   9  16
ENDBRANCH   1  13
BRANCH   7  17
ATOM     17  N   UNL     1       2.421   6.595  20.204  0.00  0.00    +0.000 N 
ATOM     18  H   UNL     1       2.093   6.160  21.071  0.00  0.00    +0.000 HD
BRANCH  17  19
ATOM     19  C   UNL     1       1.890   7.849  19.860  0.00  0.00    +0.000 A 
ATOM     20  C   UNL     1       1.148   8.618  20.770  0.00  0.00    +0.000 A 
ATOM     21  C   UNL     1       0.599   9.849  20.400  0.00  0.00    +0.000 A 
ATOM     22  C   UNL     1       0.784  10.321  19.105  0.00  0.00    +0.000 A 
ATOM     23 CL   UNL     1       0.110  11.835  18.645  0.00  0.00    +0.000 Cl
ATOM     24  C   UNL     1       1.508   9.572  18.181  0.00  0.00    +0.000 A 
ATOM     25  C   UNL     1       2.055   8.340  18.558  0.00  0.00    +0.000 A 
ENDBRANCH  17  19
ENDBRANCH   7  17
TORSDOF 4
ENDMDL
MODEL 6
REMARK VINA RESULT:      -8.1      1.542      2.262
REMARK  Name = 
REMARK  5 active torsions:
REMARK  status: ('A' for Active; 'I' for Inactive)
REMARK    1  A    between atoms: C_1  and  O_2
REMARK    2  A    between atoms: O_2  and  C_3
REMARK    3  A    between atoms: C_7  and  C_8
REMARK    4  A    between atoms: N_14  and  N_15
REMARK    5  A    between atoms: N_15  and  C_16
REMARK                            x       y       z     vdW  Elec       q    Type
REMARK                         _______ _______ _______ _____ _____    ______ ____
ROOT
ATOM      1  C   UNL     1       3.303   3.787  18.005  0.00  0.00    +0.000 C 
ATOM      2  N   UNL     1       2.522   2.768  17.745  0.00  0.00    +0.000 NA
ATOM      3  N   UNL     1       1.407   2.867  18.570  0.00  0.00    +0.000 N 
ATOM      4  C   UNL     1       1.404   3.944  19.425  0.00  0.00    +0.000 C 
ATOM      5  O   UNL     1       0.629   4.281  20.291  0.00  0.00    +0.000 OA
ATOM      6  C   UNL     1       2.658   4.660  19.028  0.00  0.00    +0.000 C 
ATOM      7  N   UNL     1       3.103   5.817  19.394  0.00  0.00    +0.000 NA
ATOM      8  H   UNL     1       0.703   2.137  18.568  0.00  0.00    +0.000 HD
ENDROOT
BRANCH   1  13
ATOM      9  C   UNL     1       6.969   4.529  17.682  0.00  0.00    +0.000 A 
ATOM     10  C   UNL     1       7.118   4.544  16.293  0.00  0.00    +0.000 A 
ATOM     11  C   UNL     1       6.028   4.299  15.455  0.00  0.00    +0.000 A 
ATOM     12  C   UNL     1       4.777   4.034  16.006  0.00  0.00    +0.000 A 
ATOM     13  C   UNL     1       4.618   4.011  17.395  0.00  0.00    +0.000 A 
ATOM     14  C   UNL     1       5.713   4.262  18.234  0.00  0.00    +0.000 A 
BRANCH   9  16
ATOM     15  C   UNL     1       8.000   5.725  19.460  0.00  0.00    +0.000 C 
ATOM     16  O   UNL     1       8.109   4.802  18.383  0.00  0.00    +0.000 OA
ENDBRANCH   9  16
ENDBRANCH   1  13
BRANCH   7  17
ATOM     17  N   UNL     1       2.386   6.494  20.320  0.00  0.00    +0.000 N 
ATOM     18  H   UNL     1       2.115   6.080  21.216  0.00  0.00    +0.000 HD
BRANCH  17  19
ATOM     19  C   UNL     1       1.829   7.738  19.981  0.00  0.00    +0.000 A 
ATOM     20  C   UNL     1       1.999   8.308  18.710  0.00  0.00    +0.000 A 
ATOM     21  C   UNL     1       1.466   9.563  18.400  0.00  0.00    +0.000 A 
ATOM     22  C   UNL     1       0.758  10.265  19.370  0.00  0.00    +0.000 A 
ATOM     23 CL   UNL     1       0.100  11.809  18.994  0.00  0.00    +0.000 Cl
ATOM     24  C   UNL     1       0.583   9.725  20.642  0.00  0.00    +0.000 A 
ATOM     25  C   UNL     1       1.120   8.468  20.945  0.00  0.00    +0.000 A 
ENDBRANCH  17  19
ENDBRANCH   7  17
TORSDOF 4
ENDMDL
MODEL 7
REMARK VINA RESULT:      -8.1      1.533      2.442
REMARK  Name = 
REMARK  5 active torsions:
REMARK  status: ('A' for Active; 'I' for Inactive)
REMARK    1  A    between atoms: C_1  and  O_2
REMARK    2  A    between atoms: O_2  and  C_3
REMARK    3  A    between atoms: C_7  and  C_8
REMARK    4  A    between atoms: N_14  and  N_15
REMARK    5  A    between atoms: N_15  and  C_16
REMARK                            x       y       z     vdW  Elec       q    Type
REMARK                         _______ _______ _______ _____ _____    ______ ____
ROOT
ATOM      1  C   UNL     1       3.247   3.835  17.724  0.00  0.00    +0.000 C 
ATOM      2  N   UNL     1       2.424   2.863  17.418  0.00  0.00    +0.000 NA
ATOM      3  N   UNL     1       1.350   2.924  18.299  0.00  0.00    +0.000 N 
ATOM      4  C   UNL     1       1.419   3.925  19.239  0.00  0.00    +0.000 C 
ATOM      5  O   UNL     1       0.693   4.210  20.165  0.00  0.00    +0.000 OA
ATOM      6  C   UNL     1       2.676   4.637  18.844  0.00  0.00    +0.000 C 
ATOM      7  N   UNL     1       3.173   5.746  19.283  0.00  0.00    +0.000 NA
ATOM      8  H   UNL     1       0.624   2.217  18.269  0.00  0.00    +0.000 HD
ENDROOT
BRANCH   1  13
ATOM      9  C   UNL     1       6.894   4.616  17.289  0.00  0.00    +0.000 A 
ATOM     10  C   UNL     1       7.001   4.630  15.897  0.00  0.00    +0.000 A 
ATOM     11  C   UNL     1       5.889   4.371  15.092  0.00  0.00    +0.000 A 
ATOM     12  C   UNL     1       4.658   4.094  15.681  0.00  0.00    +0.000 A 
ATOM     13  C   UNL     1       4.541   4.071  17.075  0.00  0.00    +0.000 A 
ATOM     14  C   UNL     1       5.658   4.336  17.879  0.00  0.00    +0.000 A 
BRANCH   9  16
ATOM     15  C   UNL     1       7.945   5.727  19.110  0.00  0.00    +0.000 C 
ATOM     16  O   UNL     1       8.051   4.903  17.955  0.00  0.00    +0.000 OA
ENDBRANCH   9  16
ENDBRANCH   1  13
BRANCH   7  17
ATOM     17  N   UNL     1       2.519   6.364  20.294  0.00  0.00    +0.000 N 
ATOM     18  H   UNL     1       2.328   5.902  21.187  0.00  0.00    +0.000 HD
BRANCH  17  19
ATOM     19  C   UNL     1       1.914   7.610  20.059  0.00  0.00    +0.000 A 
ATOM     20  C   UNL     1       1.151   8.262  21.039  0.00  0.00    +0.000 A 
ATOM     21  C   UNL     1       0.528   9.486  20.777  0.00  0.00    +0.000 A 
ATOM     22  C   UNL     1       0.661  10.068  19.522  0.00  0.00    +0.000 A 
ATOM     23 CL   UNL     1      -0.103  11.574  19.194  0.00  0.00    +0.000 Cl
ATOM     24  C   UNL     1       1.406   9.436  18.529  0.00  0.00    +0.000 A 
ATOM     25  C   UNL     1       2.026   8.210  18.798  0.00  0.00    +0.000 A 
ENDBRANCH  17  19
ENDBRANCH   7  17
TORSDOF 4
ENDMDL
MODEL 8
REMARK VINA RESULT:      -8.0      1.154      1.893
REMARK  Name = 
REMARK  5 active torsions:
REMARK  status: ('A' for Active; 'I' for Inactive)
REMARK    1  A    between atoms: C_1  and  O_2
REMARK    2  A    between atoms: O_2  and  C_3
REMARK    3  A    between atoms: C_7  and  C_8
REMARK    4  A    between atoms: N_14  and  N_15
REMARK    5  A    between atoms: N_15  and  C_16
REMARK                            x       y       z     vdW  Elec       q    Type
REMARK                         _______ _______ _______ _____ _____    ______ ____
ROOT
ATOM      1  C   UNL     1       4.261   3.848  18.646  0.00  0.00    +0.000 C 
ATOM      2  N   UNL     1       4.125   2.609  19.048  0.00  0.00    +0.000 NA
ATOM      3  N   UNL     1       3.309   2.615  20.173  0.00  0.00    +0.000 N 
ATOM      4  C   UNL     1       2.880   3.856  20.580  0.00  0.00    +0.000 C 
ATOM      5  O   UNL     1       2.221   4.207  21.532  0.00  0.00    +0.000 OA
ATOM      6  C   UNL     1       3.447   4.745  19.516  0.00  0.00    +0.000 C 
ATOM      7  N   UNL     1       3.252   6.004  19.297  0.00  0.00    +0.000 NA
ATOM      8  H   UNL     1       3.127   1.754  20.677  0.00  0.00    +0.000 HD
ENDROOT
BRANCH   1  13
ATOM      9  C   UNL     1       6.763   5.822  16.660  0.00  0.00    +0.000 A 
ATOM     10  C   UNL     1       6.660   5.204  15.412  0.00  0.00    +0.000 A 
ATOM     11  C   UNL     1       5.786   4.134  15.213  0.00  0.00    +0.000 A 
ATOM     12  C   UNL     1       5.007   3.671  16.271  0.00  0.00    +0.000 A 
ATOM     13  C   UNL     1       5.106   4.278  17.527  0.00  0.00    +0.000 A 
ATOM     14  C   UNL     1       5.981   5.355  17.721  0.00  0.00    +0.000 A 
BRANCH   9  16
ATOM     15  C   UNL     1       7.859   7.465  17.984  0.00  0.00    +0.000 C 
ATOM     16  O   UNL     1       7.641   6.866  16.712  0.00  0.00    +0.000 OA
ENDBRANCH   9  16
ENDBRANCH   1  13
BRANCH   7  17
ATOM     17  N   UNL     1       2.466   6.673  20.172  0.00  0.00    +0.000 N 
ATOM     18  H   UNL     1       2.164   6.265  21.061  0.00  0.00    +0.000 HD
BRANCH  17  19
ATOM     19  C   UNL     1       1.887   7.891  19.782  0.00  0.00    +0.000 A 
ATOM     20  C   UNL     1       2.023   8.397  18.481  0.00  0.00    +0.000 A 
ATOM     21  C   UNL     1       1.469   9.628  18.118  0.00  0.00    +0.000 A 
ATOM     22  C   UNL     1       0.773  10.371  19.065  0.00  0.00    +0.000 A 
ATOM     23 CL   UNL     1       0.089  11.887  18.625  0.00  0.00    +0.000 Cl
ATOM     24  C   UNL     1       0.632   9.896  20.367  0.00  0.00    +0.000 A 
ATOM     25  C   UNL     1       1.190   8.662  20.723  0.00  0.00    +0.000 A 
ENDBRANCH  17  19
ENDBRANCH   7  17
TORSDOF 4
ENDMDL
MODEL 9
REMARK VINA RESULT:      -7.7      1.021      1.432
REMARK  Name = 
REMARK  5 active torsions:
REMARK  status: ('A' for Active; 'I' for Inactive)
REMARK    1  A    between atoms: C_1  and  O_2
REMARK    2  A    between atoms: O_2  and  C_3
REMARK    3  A    between atoms: C_7  and  C_8
REMARK    4  A    between atoms: N_14  and  N_15
REMARK    5  A    between atoms: N_15  and  C_16
REMARK                            x       y       z     vdW  Elec       q    Type
REMARK                         _______ _______ _______ _____ _____    ______ ____
ROOT
ATOM      1  C   UNL     1       3.594   3.960  17.711  0.00  0.00    +0.000 C 
ATOM      2  N   UNL     1       2.865   2.899  17.466  0.00  0.00    +0.000 NA
ATOM      3  N   UNL     1       1.764   2.937  18.315  0.00  0.00    +0.000 N 
ATOM      4  C   UNL     1       1.721   4.011  19.172  0.00  0.00    +0.000 C 
ATOM      5  O   UNL     1       0.947   4.304  20.055  0.00  0.00    +0.000 OA
ATOM      6  C   UNL     1       2.925   4.795  18.749  0.00  0.00    +0.000 C 
ATOM      7  N   UNL     1       3.313   5.975  19.107  0.00  0.00    +0.000 NA
ATOM      8  H   UNL     1       1.102   2.169  18.327  0.00  0.00    +0.000 HD
ENDROOT
BRANCH   1  13
ATOM      9  C   UNL     1       6.292   4.136  15.105  0.00  0.00    +0.000 A 
ATOM     10  C   UNL     1       7.338   4.697  15.840  0.00  0.00    +0.000 A 
ATOM     11  C   UNL     1       7.166   5.034  17.185  0.00  0.00    +0.000 A 
ATOM     12  C   UNL     1       5.939   4.811  17.803  0.00  0.00    +0.000 A 
ATOM     13  C   UNL     1       4.882   4.255  17.074  0.00  0.00    +0.000 A 
ATOM     14  C   UNL     1       5.059   3.914  15.726  0.00  0.00    +0.000 A 
BRANCH   9  16
ATOM     15  C   UNL     1       5.510   3.611  12.922  0.00  0.00    +0.000 C 
ATOM     16  O   UNL     1       6.599   3.838  13.808  0.00  0.00    +0.000 OA
ENDBRANCH   9  16
ENDBRANCH   1  13
BRANCH   7  17
ATOM     17  N   UNL     1       2.580   6.611  20.050  0.00  0.00    +0.000 N 
ATOM     18  H   UNL     1       2.338   6.176  20.944  0.00  0.00    +0.000 HD
BRANCH  17  19
ATOM     19  C   UNL     1       1.967   7.834  19.731  0.00  0.00    +0.000 A 
ATOM     20  C   UNL     1       1.266   8.586  20.686  0.00  0.00    +0.000 A 
ATOM     21  C   UNL     1       0.633   9.785  20.344  0.00  0.00    +0.000 A 
ATOM     22  C   UNL     1       0.693  10.241  19.032  0.00  0.00    +0.000 A 
ATOM     23 CL   UNL     1      -0.084  11.715  18.606  0.00  0.00    +0.000 Cl
ATOM     24  C   UNL     1       1.374   9.509  18.064  0.00  0.00    +0.000 A 
ATOM     25  C   UNL     1       2.006   8.308  18.413  0.00  0.00    +0.000 A 
ENDBRANCH  17  19
ENDBRANCH   7  17
TORSDOF 4
ENDMDL
