MODEL 1
REMARK VINA RESULT:      -8.1      0.000      0.000
REMARK  Name = 
REMARK  17 active torsions:
REMARK  status: ('A' for Active; 'I' for Inactive)
REMARK    1  A    between atoms: C_1  and  C_2
REMARK    2  A    between atoms: C_2  and  C_3
REMARK    3  A    between atoms: C_4  and  C_5
REMARK    4  A    between atoms: C_5  and  C_6
REMARK    5  A    between atoms: C_9  and  C_10
REMARK    6  A    between atoms: C_13  and  C_14
REMARK    7  A    between atoms: C_14  and  C_15
REMARK    8  A    between atoms: C_16  and  C_17
REMARK    9  A    between atoms: C_16  and  C_18
REMARK   10  A    between atoms: C_19  and  O_20
REMARK   11  A    between atoms: C_21  and  C_22
REMARK   12  A    between atoms: C_22  and  C_23
REMARK   13  A    between atoms: C_24  and  C_25
REMARK   14  A    between atoms: C_24  and  C_26
REMARK   15  A    between atoms: C_27  and  O_28
REMARK   16  A    between atoms: C_32  and  O_33
REMARK   17  A    between atoms: C_35  and  O_36
REMARK                            x       y       z     vdW  Elec       q    Type
REMARK                         _______ _______ _______ _____ _____    ______ ____
ROOT
ATOM      1  C   UNL     1       1.448  10.065  18.948  0.00  0.00    +0.000 A 
ATOM      2  O   UNL     1       0.468  10.077  19.935  0.00  0.00    +0.000 OA
ATOM      3  C   UNL     1      -0.200  11.270  20.039  0.00  0.00    +0.000 A 
ATOM      4  C   UNL     1      -1.539  11.366  19.689  0.00  0.00    +0.000 A 
ATOM      5  C   UNL     1      -2.139  12.626  19.833  0.00  0.00    +0.000 A 
ATOM      6  C   UNL     1      -1.474  13.729  20.411  0.00  0.00    +0.000 A 
ATOM      7  C   UNL     1      -0.084  13.633  20.537  0.00  0.00    +0.000 A 
ATOM      8  C   UNL     1       0.542  12.434  20.187  0.00  0.00    +0.000 A 
ATOM      9  C   UNL     1       1.773  12.432  19.343  0.00  0.00    +0.000 A 
ATOM     10  O   UNL     1       2.535  13.386  19.257  0.00  0.00    +0.000 OA
ATOM     11  C   UNL     1       1.941  11.217  18.458  0.00  0.00    +0.000 A 
ENDROOT
BRANCH   1  15
ATOM     12  C   UNL     1       3.312   6.214  18.445  0.00  0.00    +0.000 A 
ATOM     13  C   UNL     1       3.349   7.148  17.397  0.00  0.00    +0.000 A 
ATOM     14  C   UNL     1       2.696   8.373  17.500  0.00  0.00    +0.000 A 
ATOM     15  C   UNL     1       1.983   8.714  18.655  0.00  0.00    +0.000 A 
ATOM     16  C   UNL     1       1.919   7.766  19.692  0.00  0.00    +0.000 A 
ATOM     17  C   UNL     1       2.588   6.544  19.590  0.00  0.00    +0.000 A 
BRANCH  17  18
ATOM     18  O   UNL     1       2.576   5.670  20.641  0.00  0.00    +0.000 OA
ATOM     19  H   UNL     1       1.742   5.175  20.627  0.00  0.00    +0.000 HD
ENDBRANCH  17  18
BRANCH  12  20
ATOM     20  C   UNL     1       4.096   4.926  18.341  0.00  0.00    +0.000 C 
BRANCH  20  24
ATOM     21  C   UNL     1       5.843   4.110  14.934  0.00  0.00    +0.000 C 
ATOM     22  C   UNL     1       5.673   4.462  16.388  0.00  0.00    +0.000 C 
ATOM     23  C   UNL     1       6.930   4.676  17.190  0.00  0.00    +0.000 C 
ATOM     24  C   UNL     1       4.447   4.584  16.920  0.00  0.00    +0.000 C 
ENDBRANCH  20  24
ENDBRANCH  12  20
ENDBRANCH   1  15
BRANCH   5  25
ATOM     25  O   UNL     1      -3.369  12.819  19.265  0.00  0.00    +0.000 OA
ATOM     26  H   UNL     1      -3.210  12.891  18.303  0.00  0.00    +0.000 HD
ENDBRANCH   5  25
BRANCH   7  27
ATOM     27  O   UNL     1       0.694  14.665  20.973  0.00  0.00    +0.000 OA
ATOM     28  H   UNL     1       0.320  15.099  21.753  0.00  0.00    +0.000 HD
ENDBRANCH   7  27
BRANCH  11  29
ATOM     29  O   UNL     1       2.550  11.354  17.228  0.00  0.00    +0.000 OA
ATOM     30  H   UNL     1       3.501  11.269  17.387  0.00  0.00    +0.000 HD
ENDBRANCH  11  29
BRANCH   4  31
ATOM     31  C   UNL     1      -2.169  10.255  18.876  0.00  0.00    +0.000 C 
BRANCH  31  32
ATOM     32  C   UNL     1      -2.029  10.329  17.385  0.00  0.00    +0.000 C 
ATOM     33  C   UNL     1      -3.021  10.543  16.494  0.00  0.00    +0.000 C 
ATOM     34  C   UNL     1      -4.449  10.897  16.830  0.00  0.00    +0.000 C 
ATOM     35  C   UNL     1      -2.778  10.357  15.019  0.00  0.00    +0.000 C 
ENDBRANCH  31  32
ENDBRANCH   4  31
BRANCH   6  36
ATOM     36  C   UNL     1      -2.257  14.956  20.817  0.00  0.00    +0.000 C 
BRANCH  36  37
ATOM     37  C   UNL     1      -3.143  14.774  22.019  0.00  0.00    +0.000 C 
ATOM     38  C   UNL     1      -2.771  14.675  23.312  0.00  0.00    +0.000 C 
ATOM     39  C   UNL     1      -1.354  14.609  23.818  0.00  0.00    +0.000 C 
ATOM     40  C   UNL     1      -3.805  14.671  24.411  0.00  0.00    +0.000 C 
ENDBRANCH  36  37
ENDBRANCH   6  36
TORSDOF 11
ENDMDL
MODEL 2
REMARK VINA RESULT:      -8.0      0.697      1.067
REMARK  Name = 
REMARK  17 active torsions:
REMARK  status: ('A' for Active; 'I' for Inactive)
REMARK    1  A    between atoms: C_1  and  C_2
REMARK    2  A    between atoms: C_2  and  C_3
REMARK    3  A    between atoms: C_4  and  C_5
REMARK    4  A    between atoms: C_5  and  C_6
REMARK    5  A    between atoms: C_9  and  C_10
REMARK    6  A    between atoms: C_13  and  C_14
REMARK    7  A    between atoms: C_14  and  C_15
REMARK    8  A    between atoms: C_16  and  C_17
REMARK    9  A    between atoms: C_16  and  C_18
REMARK   10  A    between atoms: C_19  and  O_20
REMARK   11  A    between atoms: C_21  and  C_22
REMARK   12  A    between atoms: C_22  and  C_23
REMARK   13  A    between atoms: C_24  and  C_25
REMARK   14  A    between atoms: C_24  and  C_26
REMARK   15  A    between atoms: C_27  and  O_28
REMARK   16  A    between atoms: C_32  and  O_33
REMARK   17  A    between atoms: C_35  and  O_36
REMARK                            x       y       z     vdW  Elec       q    Type
REMARK                         _______ _______ _______ _____ _____    ______ ____
ROOT
ATOM      1  C   UNL     1       1.359  10.217  19.037  0.00  0.00    +0.000 A 
ATOM      2  O   UNL     1       0.370  10.233  20.016  0.00  0.00    +0.000 OA
ATOM      3  C   UNL     1      -0.306  11.422  20.102  0.00  0.00    +0.000 A 
ATOM      4  C   UNL     1      -1.643  11.505  19.740  0.00  0.00    +0.000 A 
ATOM      5  C   UNL     1      -2.253  12.763  19.865  0.00  0.00    +0.000 A 
ATOM      6  C   UNL     1      -1.600  13.877  20.436  0.00  0.00    +0.000 A 
ATOM      7  C   UNL     1      -0.210  13.792  20.574  0.00  0.00    +0.000 A 
ATOM      8  C   UNL     1       0.427  12.593  20.243  0.00  0.00    +0.000 A 
ATOM      9  C   UNL     1       1.664  12.590  19.408  0.00  0.00    +0.000 A 
ATOM     10  O   UNL     1       2.420  13.549  19.317  0.00  0.00    +0.000 OA
ATOM     11  C   UNL     1       1.848  11.366  18.538  0.00  0.00    +0.000 A 
ENDROOT
BRANCH   1  15
ATOM     12  C   UNL     1       3.245   6.368  18.600  0.00  0.00    +0.000 A 
ATOM     13  C   UNL     1       3.313   7.301  17.552  0.00  0.00    +0.000 A 
ATOM     14  C   UNL     1       2.655   8.525  17.632  0.00  0.00    +0.000 A 
ATOM     15  C   UNL     1       1.905   8.866  18.764  0.00  0.00    +0.000 A 
ATOM     16  C   UNL     1       1.810   7.920  19.800  0.00  0.00    +0.000 A 
ATOM     17  C   UNL     1       2.485   6.699  19.721  0.00  0.00    +0.000 A 
BRANCH  17  18
ATOM     18  O   UNL     1       2.442   5.828  20.773  0.00  0.00    +0.000 OA
ATOM     19  H   UNL     1       2.672   6.306  21.586  0.00  0.00    +0.000 HD
ENDBRANCH  17  18
BRANCH  12  20
ATOM     20  C   UNL     1       4.034   5.082  18.523  0.00  0.00    +0.000 C 
BRANCH  20  24
ATOM     21  C   UNL     1       7.840   5.644  19.248  0.00  0.00    +0.000 C 
ATOM     22  C   UNL     1       6.543   5.554  18.489  0.00  0.00    +0.000 C 
ATOM     23  C   UNL     1       6.594   5.844  17.012  0.00  0.00    +0.000 C 
ATOM     24  C   UNL     1       5.407   5.217  19.121  0.00  0.00    +0.000 C 
ENDBRANCH  20  24
ENDBRANCH  12  20
ENDBRANCH   1  15
BRANCH   5  25
ATOM     25  O   UNL     1      -3.480  12.940  19.285  0.00  0.00    +0.000 OA
ATOM     26  H   UNL     1      -4.131  12.606  19.933  0.00  0.00    +0.000 HD
ENDBRANCH   5  25
BRANCH   7  27
ATOM     27  O   UNL     1       0.557  14.834  21.004  0.00  0.00    +0.000 OA
ATOM     28  H   UNL     1       1.502  14.664  20.883  0.00  0.00    +0.000 HD
ENDBRANCH   7  27
BRANCH  11  29
ATOM     29  O   UNL     1       2.465  11.494  17.312  0.00  0.00    +0.000 OA
ATOM     30  H   UNL     1       1.868  12.024  16.763  0.00  0.00    +0.000 HD
ENDBRANCH  11  29
BRANCH   4  31
ATOM     31  C   UNL     1      -2.259  10.381  18.934  0.00  0.00    +0.000 C 
BRANCH  31  32
ATOM     32  C   UNL     1      -2.080  10.422  17.446  0.00  0.00    +0.000 C 
ATOM     33  C   UNL     1      -3.046  10.631  16.526  0.00  0.00    +0.000 C 
ATOM     34  C   UNL     1      -4.477  11.010  16.818  0.00  0.00    +0.000 C 
ATOM     35  C   UNL     1      -2.768  10.411  15.062  0.00  0.00    +0.000 C 
ENDBRANCH  31  32
ENDBRANCH   4  31
BRANCH   6  36
ATOM     36  C   UNL     1      -2.394  15.102  20.821  0.00  0.00    +0.000 C 
BRANCH  36  37
ATOM     37  C   UNL     1      -3.215  14.958  22.074  0.00  0.00    +0.000 C 
ATOM     38  C   UNL     1      -2.804  15.101  23.352  0.00  0.00    +0.000 C 
ATOM     39  C   UNL     1      -1.383  15.325  23.800  0.00  0.00    +0.000 C 
ATOM     40  C   UNL     1      -3.801  15.094  24.485  0.00  0.00    +0.000 C 
ENDBRANCH  36  37
ENDBRANCH   6  36
TORSDOF 11
ENDMDL
MODEL 3
REMARK VINA RESULT:      -7.8      2.371      3.764
REMARK  Name = 
REMARK  17 active torsions:
REMARK  status: ('A' for Active; 'I' for Inactive)
REMARK    1  A    between atoms: C_1  and  C_2
REMARK    2  A    between atoms: C_2  and  C_3
REMARK    3  A    between atoms: C_4  and  C_5
REMARK    4  A    between atoms: C_5  and  C_6
REMARK    5  A    between atoms: C_9  and  C_10
REMARK    6  A    between atoms: C_13  and  C_14
REMARK    7  A    between atoms: C_14  and  C_15
REMARK    8  A    between atoms: C_16  and  C_17
REMARK    9  A    between atoms: C_16  and  C_18
REMARK   10  A    between atoms: C_19  and  O_20
REMARK   11  A    between atoms: C_21  and  C_22
REMARK   12  A    between atoms: C_22  and  C_23
REMARK   13  A    between atoms: C_24  and  C_25
REMARK   14  A    between atoms: C_24  and  C_26
REMARK   15  A    between atoms: C_27  and  O_28
REMARK   16  A    between atoms: C_32  and  O_33
REMARK   17  A    between atoms: C_35  and  O_36
REMARK                            x       y       z     vdW  Elec       q    Type
REMARK                         _______ _______ _______ _____ _____    ______ ____
ROOT
ATOM      1  C   UNL     1       0.736   9.555  20.482  0.00  0.00    +0.000 A 
ATOM      2  O   UNL     1      -0.299  10.236  19.848  0.00  0.00    +0.000 OA
ATOM      3  C   UNL     1      -0.789  11.295  20.567  0.00  0.00    +0.000 A 
ATOM      4  C   UNL     1      -0.600  12.598  20.129  0.00  0.00    +0.000 A 
ATOM      5  C   UNL     1      -1.140  13.616  20.929  0.00  0.00    +0.000 A 
ATOM      6  C   UNL     1      -1.941  13.356  22.063  0.00  0.00    +0.000 A 
ATOM      7  C   UNL     1      -1.911  12.052  22.571  0.00  0.00    +0.000 A 
ATOM      8  C   UNL     1      -1.188  11.077  21.879  0.00  0.00    +0.000 A 
ATOM      9  C   UNL     1      -0.270  10.149  22.604  0.00  0.00    +0.000 A 
ATOM     10  O   UNL     1      -0.385   9.875  23.791  0.00  0.00    +0.000 OA
ATOM     11  C   UNL     1       0.928   9.682  21.808  0.00  0.00    +0.000 A 
ENDROOT
BRANCH   1  15
ATOM     12  C   UNL     1       3.153   6.800  18.218  0.00  0.00    +0.000 A 
ATOM     13  C   UNL     1       2.678   7.974  17.610  0.00  0.00    +0.000 A 
ATOM     14  C   UNL     1       1.837   8.850  18.290  0.00  0.00    +0.000 A 
ATOM     15  C   UNL     1       1.438   8.588  19.606  0.00  0.00    +0.000 A 
ATOM     16  C   UNL     1       1.887   7.396  20.205  0.00  0.00    +0.000 A 
ATOM     17  C   UNL     1       2.743   6.529  19.523  0.00  0.00    +0.000 A 
BRANCH  17  18
ATOM     18  O   UNL     1       3.229   5.417  20.152  0.00  0.00    +0.000 OA
ATOM     19  H   UNL     1       4.097   5.627  20.533  0.00  0.00    +0.000 HD
ENDBRANCH  17  18
BRANCH  12  20
ATOM     20  C   UNL     1       4.129   5.908  17.486  0.00  0.00    +0.000 C 
BRANCH  20  24
ATOM     21  C   UNL     1       7.819   7.216  17.522  0.00  0.00    +0.000 C 
ATOM     22  C   UNL     1       6.586   6.450  17.921  0.00  0.00    +0.000 C 
ATOM     23  C   UNL     1       6.701   5.547  19.121  0.00  0.00    +0.000 C 
ATOM     24  C   UNL     1       5.444   6.590  17.230  0.00  0.00    +0.000 C 
ENDBRANCH  20  24
ENDBRANCH  12  20
ENDBRANCH   1  15
BRANCH   5  25
ATOM     25  O   UNL     1      -0.760  14.905  20.669  0.00  0.00    +0.000 OA
ATOM     26  H   UNL     1       0.110  14.841  20.228  0.00  0.00    +0.000 HD
ENDBRANCH   5  25
BRANCH   7  27
ATOM     27  O   UNL     1      -2.545  11.691  23.723  0.00  0.00    +0.000 OA
ATOM     28  H   UNL     1      -2.004  11.101  24.267  0.00  0.00    +0.000 HD
ENDBRANCH   7  27
BRANCH  11  29
ATOM     29  O   UNL     1       2.121   9.443  22.458  0.00  0.00    +0.000 OA
ATOM     30  H   UNL     1       2.502  10.312  22.650  0.00  0.00    +0.000 HD
ENDBRANCH  11  29
BRANCH   4  31
ATOM     31  C   UNL     1       0.431  12.871  19.054  0.00  0.00    +0.000 C 
BRANCH  31  32
ATOM     32  C   UNL     1       1.823  13.203  19.503  0.00  0.00    +0.000 C 
ATOM     33  C   UNL     1       2.495  14.347  19.255  0.00  0.00    +0.000 C 
ATOM     34  C   UNL     1       1.927  15.581  18.599  0.00  0.00    +0.000 C 
ATOM     35  C   UNL     1       3.967  14.451  19.561  0.00  0.00    +0.000 C 
ENDBRANCH  31  32
ENDBRANCH   4  31
BRANCH   6  36
ATOM     36  C   UNL     1      -2.739  14.471  22.696  0.00  0.00    +0.000 C 
BRANCH  36  37
ATOM     37  C   UNL     1      -4.083  14.725  22.069  0.00  0.00    +0.000 C 
ATOM     38  C   UNL     1      -5.287  14.284  22.491  0.00  0.00    +0.000 C 
ATOM     39  C   UNL     1      -5.526  13.331  23.632  0.00  0.00    +0.000 C 
ATOM     40  C   UNL     1      -6.556  14.779  21.841  0.00  0.00    +0.000 C 
ENDBRANCH  36  37
ENDBRANCH   6  36
TORSDOF 11
ENDMDL
MODEL 4
REMARK VINA RESULT:      -7.8      2.350      3.748
REMARK  Name = 
REMARK  17 active torsions:
REMARK  status: ('A' for Active; 'I' for Inactive)
REMARK    1  A    between atoms: C_1  and  C_2
REMARK    2  A    between atoms: C_2  and  C_3
REMARK    3  A    between atoms: C_4  and  C_5
REMARK    4  A    between atoms: C_5  and  C_6
REMARK    5  A    between atoms: C_9  and  C_10
REMARK    6  A    between atoms: C_13  and  C_14
REMARK    7  A    between atoms: C_14  and  C_15
REMARK    8  A    between atoms: C_16  and  C_17
REMARK    9  A    between atoms: C_16  and  C_18
REMARK   10  A    between atoms: C_19  and  O_20
REMARK   11  A    between atoms: C_21  and  C_22
REMARK   12  A    between atoms: C_22  and  C_23
REMARK   13  A    between atoms: C_24  and  C_25
REMARK   14  A    between atoms: C_24  and  C_26
REMARK   15  A    between atoms: C_27  and  O_28
REMARK   16  A    between atoms: C_32  and  O_33
REMARK   17  A    between atoms: C_35  and  O_36
REMARK                            x       y       z     vdW  Elec       q    Type
REMARK                         _______ _______ _______ _____ _____    ______ ____
ROOT
ATOM      1  C   UNL     1       0.724   9.706  20.422  0.00  0.00    +0.000 A 
ATOM      2  O   UNL     1      -0.244  10.450  19.755  0.00  0.00    +0.000 OA
ATOM      3  C   UNL     1      -0.698  11.533  20.462  0.00  0.00    +0.000 A 
ATOM      4  C   UNL     1      -0.415  12.824  20.040  0.00  0.00    +0.000 A 
ATOM      5  C   UNL     1      -0.924  13.870  20.826  0.00  0.00    +0.000 A 
ATOM      6  C   UNL     1      -1.780  13.652  21.928  0.00  0.00    +0.000 A 
ATOM      7  C   UNL     1      -1.847  12.347  22.428  0.00  0.00    +0.000 A 
ATOM      8  C   UNL     1      -1.158  11.334  21.757  0.00  0.00    +0.000 A 
ATOM      9  C   UNL     1      -0.324  10.349  22.509  0.00  0.00    +0.000 A 
ATOM     10  O   UNL     1      -0.500  10.078  23.689  0.00  0.00    +0.000 OA
ATOM     11  C   UNL     1       0.873   9.816  21.755  0.00  0.00    +0.000 A 
ENDROOT
BRANCH   1  15
ATOM     12  C   UNL     1       3.065   6.842  18.215  0.00  0.00    +0.000 A 
ATOM     13  C   UNL     1       2.621   8.014  17.583  0.00  0.00    +0.000 A 
ATOM     14  C   UNL     1       1.803   8.926  18.245  0.00  0.00    +0.000 A 
ATOM     15  C   UNL     1       1.400   8.703  19.567  0.00  0.00    +0.000 A 
ATOM     16  C   UNL     1       1.818   7.513  20.190  0.00  0.00    +0.000 A 
ATOM     17  C   UNL     1       2.650   6.609  19.526  0.00  0.00    +0.000 A 
BRANCH  17  18
ATOM     18  O   UNL     1       3.108   5.498  20.178  0.00  0.00    +0.000 OA
ATOM     19  H   UNL     1       3.474   4.880  19.524  0.00  0.00    +0.000 HD
ENDBRANCH  17  18
BRANCH  12  20
ATOM     20  C   UNL     1       4.017   5.909  17.502  0.00  0.00    +0.000 C 
BRANCH  20  24
ATOM     21  C   UNL     1       7.743   7.112  17.517  0.00  0.00    +0.000 C 
ATOM     22  C   UNL     1       6.488   6.388  17.929  0.00  0.00    +0.000 C 
ATOM     23  C   UNL     1       6.579   5.503  19.144  0.00  0.00    +0.000 C 
ATOM     24  C   UNL     1       5.351   6.550  17.235  0.00  0.00    +0.000 C 
ENDBRANCH  20  24
ENDBRANCH  12  20
ENDBRANCH   1  15
BRANCH   5  25
ATOM     25  O   UNL     1      -0.458  15.135  20.589  0.00  0.00    +0.000 OA
ATOM     26  H   UNL     1      -1.048  15.512  19.907  0.00  0.00    +0.000 HD
ENDBRANCH   5  25
BRANCH   7  27
ATOM     27  O   UNL     1      -2.544  12.020  23.553  0.00  0.00    +0.000 OA
ATOM     28  H   UNL     1      -3.500  12.016  23.401  0.00  0.00    +0.000 HD
ENDBRANCH   7  27
BRANCH  11  29
ATOM     29  O   UNL     1       2.024   9.503  22.447  0.00  0.00    +0.000 OA
ATOM     30  H   UNL     1       1.755   9.358  23.366  0.00  0.00    +0.000 HD
ENDBRANCH  11  29
BRANCH   4  31
ATOM     31  C   UNL     1       0.670  13.040  19.006  0.00  0.00    +0.000 C 
BRANCH  31  32
ATOM     32  C   UNL     1       2.039  13.389  19.507  0.00  0.00    +0.000 C 
ATOM     33  C   UNL     1       2.734  14.514  19.229  0.00  0.00    +0.000 C 
ATOM     34  C   UNL     1       2.211  15.711  18.475  0.00  0.00    +0.000 C 
ATOM     35  C   UNL     1       4.188  14.627  19.605  0.00  0.00    +0.000 C 
ENDBRANCH  31  32
ENDBRANCH   4  31
BRANCH   6  36
ATOM     36  C   UNL     1      -2.533  14.810  22.539  0.00  0.00    +0.000 C 
BRANCH  36  37
ATOM     37  C   UNL     1      -1.800  15.539  23.632  0.00  0.00    +0.000 C 
ATOM     38  C   UNL     1      -2.001  15.447  24.964  0.00  0.00    +0.000 C 
ATOM     39  C   UNL     1      -3.100  14.669  25.637  0.00  0.00    +0.000 C 
ATOM     40  C   UNL     1      -1.055  16.118  25.931  0.00  0.00    +0.000 C 
ENDBRANCH  36  37
ENDBRANCH   6  36
TORSDOF 11
ENDMDL
MODEL 5
REMARK VINA RESULT:      -7.7      2.587      4.077
REMARK  Name = 
REMARK  17 active torsions:
REMARK  status: ('A' for Active; 'I' for Inactive)
REMARK    1  A    between atoms: C_1  and  C_2
REMARK    2  A    between atoms: C_2  and  C_3
REMARK    3  A    between atoms: C_4  and  C_5
REMARK    4  A    between atoms: C_5  and  C_6
REMARK    5  A    between atoms: C_9  and  C_10
REMARK    6  A    between atoms: C_13  and  C_14
REMARK    7  A    between atoms: C_14  and  C_15
REMARK    8  A    between atoms: C_16  and  C_17
REMARK    9  A    between atoms: C_16  and  C_18
REMARK   10  A    between atoms: C_19  and  O_20
REMARK   11  A    between atoms: C_21  and  C_22
REMARK   12  A    between atoms: C_22  and  C_23
REMARK   13  A    between atoms: C_24  and  C_25
REMARK   14  A    between atoms: C_24  and  C_26
REMARK   15  A    between atoms: C_27  and  O_28
REMARK   16  A    between atoms: C_32  and  O_33
REMARK   17  A    between atoms: C_35  and  O_36
REMARK                            x       y       z     vdW  Elec       q    Type
REMARK                         _______ _______ _______ _____ _____    ______ ____
ROOT
ATOM      1  C   UNL     1       0.879  10.041  20.553  0.00  0.00    +0.000 A 
ATOM      2  O   UNL     1       0.416  11.136  19.830  0.00  0.00    +0.000 OA
ATOM      3  C   UNL     1       0.158  12.240  20.600  0.00  0.00    +0.000 A 
ATOM      4  C   UNL     1       0.939  13.381  20.487  0.00  0.00    +0.000 A 
ATOM      5  C   UNL     1       0.597  14.463  21.314  0.00  0.00    +0.000 A 
ATOM      6  C   UNL     1      -0.547  14.462  22.141  0.00  0.00    +0.000 A 
ATOM      7  C   UNL     1      -1.158  13.225  22.374  0.00  0.00    +0.000 A 
ATOM      8  C   UNL     1      -0.672  12.099  21.704  0.00  0.00    +0.000 A 
ATOM      9  C   UNL     1      -0.431  10.820  22.435  0.00  0.00    +0.000 A 
ATOM     10  O   UNL     1      -0.994  10.522  23.480  0.00  0.00    +0.000 OA
ATOM     11  C   UNL     1       0.691   9.969  21.883  0.00  0.00    +0.000 A 
ENDROOT
BRANCH   1  15
ATOM     12  C   UNL     1       2.805   6.885  18.341  0.00  0.00    +0.000 A 
ATOM     13  C   UNL     1       2.432   8.069  17.685  0.00  0.00    +0.000 A 
ATOM     14  C   UNL     1       1.745   9.079  18.353  0.00  0.00    +0.000 A 
ATOM     15  C   UNL     1       1.405   8.946  19.704  0.00  0.00    +0.000 A 
ATOM     16  C   UNL     1       1.750   7.746  20.354  0.00  0.00    +0.000 A 
ATOM     17  C   UNL     1       2.453   6.743  19.683  0.00  0.00    +0.000 A 
BRANCH  17  18
ATOM     18  O   UNL     1       2.845   5.619  20.356  0.00  0.00    +0.000 OA
ATOM     19  H   UNL     1       3.357   5.885  21.136  0.00  0.00    +0.000 HD
ENDBRANCH  17  18
BRANCH  12  20
ATOM     20  C   UNL     1       3.621   5.840  17.616  0.00  0.00    +0.000 C 
BRANCH  20  24
ATOM     21  C   UNL     1       7.426   6.724  17.379  0.00  0.00    +0.000 C 
ATOM     22  C   UNL     1       6.139   6.146  17.903  0.00  0.00    +0.000 C 
ATOM     23  C   UNL     1       6.213   5.365  19.188  0.00  0.00    +0.000 C 
ATOM     24  C   UNL     1       4.987   6.341  17.241  0.00  0.00    +0.000 C 
ENDBRANCH  20  24
ENDBRANCH  12  20
ENDBRANCH   1  15
BRANCH   5  25
ATOM     25  O   UNL     1       1.487  15.498  21.415  0.00  0.00    +0.000 OA
ATOM     26  H   UNL     1       1.695  15.577  22.367  0.00  0.00    +0.000 HD
ENDBRANCH   5  25
BRANCH   7  27
ATOM     27  O   UNL     1      -2.198  13.064  23.240  0.00  0.00    +0.000 OA
ATOM     28  H   UNL     1      -2.812  13.812  23.215  0.00  0.00    +0.000 HD
ENDBRANCH   7  27
BRANCH  11  29
ATOM     29  O   UNL     1       1.452   9.209  22.747  0.00  0.00    +0.000 OA
ATOM     30  H   UNL     1       1.525   9.722  23.565  0.00  0.00    +0.000 HD
ENDBRANCH  11  29
BRANCH   4  31
ATOM     31  C   UNL     1       2.272  13.294  19.775  0.00  0.00    +0.000 C 
BRANCH  31  32
ATOM     32  C   UNL     1       2.453  14.133  18.546  0.00  0.00    +0.000 C 
ATOM     33  C   UNL     1       3.405  15.069  18.345  0.00  0.00    +0.000 C 
ATOM     34  C   UNL     1       4.568  15.357  19.261  0.00  0.00    +0.000 C 
ATOM     35  C   UNL     1       3.325  16.000  17.163  0.00  0.00    +0.000 C 
ENDBRANCH  31  32
ENDBRANCH   4  31
BRANCH   6  36
ATOM     36  C   UNL     1      -1.028  15.751  22.765  0.00  0.00    +0.000 C 
BRANCH  36  37
ATOM     37  C   UNL     1      -0.566  15.983  24.179  0.00  0.00    +0.000 C 
ATOM     38  C   UNL     1      -1.300  15.914  25.309  0.00  0.00    +0.000 C 
ATOM     39  C   UNL     1      -2.790  15.701  25.380  0.00  0.00    +0.000 C 
ATOM     40  C   UNL     1      -0.638  16.004  26.662  0.00  0.00    +0.000 C 
ENDBRANCH  36  37
ENDBRANCH   6  36
TORSDOF 11
ENDMDL
MODEL 6
REMARK VINA RESULT:      -7.7      1.224      1.942
REMARK  Name = 
REMARK  17 active torsions:
REMARK  status: ('A' for Active; 'I' for Inactive)
REMARK    1  A    between atoms: C_1  and  C_2
REMARK    2  A    between atoms: C_2  and  C_3
REMARK    3  A    between atoms: C_4  and  C_5
REMARK    4  A    between atoms: C_5  and  C_6
REMARK    5  A    between atoms: C_9  and  C_10
REMARK    6  A    between atoms: C_13  and  C_14
REMARK    7  A    between atoms: C_14  and  C_15
REMARK    8  A    between atoms: C_16  and  C_17
REMARK    9  A    between atoms: C_16  and  C_18
REMARK   10  A    between atoms: C_19  and  O_20
REMARK   11  A    between atoms: C_21  and  C_22
REMARK   12  A    between atoms: C_22  and  C_23
REMARK   13  A    between atoms: C_24  and  C_25
REMARK   14  A    between atoms: C_24  and  C_26
REMARK   15  A    between atoms: C_27  and  O_28
REMARK   16  A    between atoms: C_32  and  O_33
REMARK   17  A    between atoms: C_35  and  O_36
REMARK                            x       y       z     vdW  Elec       q    Type
REMARK                         _______ _______ _______ _____ _____    ______ ____
ROOT
ATOM      1  C   UNL     1       1.463  10.191  19.093  0.00  0.00    +0.000 A 
ATOM      2  O   UNL     1       0.555  10.325  20.139  0.00  0.00    +0.000 OA
ATOM      3  C   UNL     1      -0.022  11.566  20.217  0.00  0.00    +0.000 A 
ATOM      4  C   UNL     1      -1.373  11.738  19.950  0.00  0.00    +0.000 A 
ATOM      5  C   UNL     1      -1.876  13.044  20.059  0.00  0.00    +0.000 A 
ATOM      6  C   UNL     1      -1.100  14.126  20.528  0.00  0.00    +0.000 A 
ATOM      7  C   UNL     1       0.286  13.939  20.569  0.00  0.00    +0.000 A 
ATOM      8  C   UNL     1       0.804  12.681  20.250  0.00  0.00    +0.000 A 
ATOM      9  C   UNL     1       1.972  12.547  19.329  0.00  0.00    +0.000 A 
ATOM     10  O   UNL     1       2.788  13.439  19.139  0.00  0.00    +0.000 OA
ATOM     11  C   UNL     1       1.997  11.278  18.507  0.00  0.00    +0.000 A 
ENDROOT
BRANCH   1  15
ATOM     12  C   UNL     1       3.007   6.188  18.715  0.00  0.00    +0.000 A 
ATOM     13  C   UNL     1       3.107   7.078  17.634  0.00  0.00    +0.000 A 
ATOM     14  C   UNL     1       2.556   8.355  17.697  0.00  0.00    +0.000 A 
ATOM     15  C   UNL     1       1.884   8.793  18.845  0.00  0.00    +0.000 A 
ATOM     16  C   UNL     1       1.755   7.889  19.916  0.00  0.00    +0.000 A 
ATOM     17  C   UNL     1       2.323   6.615  19.853  0.00  0.00    +0.000 A 
BRANCH  17  18
ATOM     18  O   UNL     1       2.252   5.783  20.935  0.00  0.00    +0.000 OA
ATOM     19  H   UNL     1       2.098   6.317  21.731  0.00  0.00    +0.000 HD
ENDBRANCH  17  18
BRANCH  12  20
ATOM     20  C   UNL     1       3.683   4.838  18.652  0.00  0.00    +0.000 C 
BRANCH  20  24
ATOM     21  C   UNL     1       7.424   4.864  17.499  0.00  0.00    +0.000 C 
ATOM     22  C   UNL     1       5.929   4.692  17.447  0.00  0.00    +0.000 C 
ATOM     23  C   UNL     1       5.342   4.209  16.147  0.00  0.00    +0.000 C 
ATOM     24  C   UNL     1       5.177   4.953  18.528  0.00  0.00    +0.000 C 
ENDBRANCH  20  24
ENDBRANCH  12  20
ENDBRANCH   1  15
BRANCH   5  25
ATOM     25  O   UNL     1      -3.126  13.292  19.562  0.00  0.00    +0.000 OA
ATOM     26  H   UNL     1      -3.395  14.155  19.935  0.00  0.00    +0.000 HD
ENDBRANCH   5  25
BRANCH   7  27
ATOM     27  O   UNL     1       1.159  14.935  20.893  0.00  0.00    +0.000 OA
ATOM     28  H   UNL     1       1.078  15.203  21.820  0.00  0.00    +0.000 HD
ENDBRANCH   7  27
BRANCH  11  29
ATOM     29  O   UNL     1       2.527  11.306  17.234  0.00  0.00    +0.000 OA
ATOM     30  H   UNL     1       3.383  11.753  17.308  0.00  0.00    +0.000 HD
ENDBRANCH  11  29
BRANCH   4  31
ATOM     31  C   UNL     1      -2.130  10.633  19.244  0.00  0.00    +0.000 C 
BRANCH  31  32
ATOM     32  C   UNL     1      -2.002  10.554  17.752  0.00  0.00    +0.000 C 
ATOM     33  C   UNL     1      -2.995  10.714  16.851  0.00  0.00    +0.000 C 
ATOM     34  C   UNL     1      -4.407  11.147  17.160  0.00  0.00    +0.000 C 
ATOM     35  C   UNL     1      -2.773  10.373  15.400  0.00  0.00    +0.000 C 
ENDBRANCH  31  32
ENDBRANCH   4  31
BRANCH   6  36
ATOM     36  C   UNL     1      -1.769  15.425  20.912  0.00  0.00    +0.000 C 
BRANCH  36  37
ATOM     37  C   UNL     1      -1.821  16.459  19.820  0.00  0.00    +0.000 C 
ATOM     38  C   UNL     1      -1.118  17.608  19.737  0.00  0.00    +0.000 C 
ATOM     39  C   UNL     1      -0.205  18.160  20.800  0.00  0.00    +0.000 C 
ATOM     40  C   UNL     1      -1.163  18.448  18.484  0.00  0.00    +0.000 C 
ENDBRANCH  36  37
ENDBRANCH   6  36
TORSDOF 11
ENDMDL
MODEL 7
REMARK VINA RESULT:      -7.7      1.625      2.158
REMARK  Name = 
REMARK  17 active torsions:
REMARK  status: ('A' for Active; 'I' for Inactive)
REMARK    1  A    between atoms: C_1  and  C_2
REMARK    2  A    between atoms: C_2  and  C_3
REMARK    3  A    between atoms: C_4  and  C_5
REMARK    4  A    between atoms: C_5  and  C_6
REMARK    5  A    between atoms: C_9  and  C_10
REMARK    6  A    between atoms: C_13  and  C_14
REMARK    7  A    between atoms: C_14  and  C_15
REMARK    8  A    between atoms: C_16  and  C_17
REMARK    9  A    between atoms: C_16  and  C_18
REMARK   10  A    between atoms: C_19  and  O_20
REMARK   11  A    between atoms: C_21  and  C_22
REMARK   12  A    between atoms: C_22  and  C_23
REMARK   13  A    between atoms: C_24  and  C_25
REMARK   14  A    between atoms: C_24  and  C_26
REMARK   15  A    between atoms: C_27  and  O_28
REMARK   16  A    between atoms: C_32  and  O_33
REMARK   17  A    between atoms: C_35  and  O_36
REMARK                            x       y       z     vdW  Elec       q    Type
REMARK                         _______ _______ _______ _____ _____    ______ ____
ROOT
ATOM      1  C   UNL     1       1.190  10.960  19.370  0.00  0.00    +0.000 A 
ATOM      2  O   UNL     1       0.307  11.106  20.436  0.00  0.00    +0.000 OA
ATOM      3  C   UNL     1      -0.167  12.382  20.593  0.00  0.00    +0.000 A 
ATOM      4  C   UNL     1      -1.502  12.677  20.356  0.00  0.00    +0.000 A 
ATOM      5  C   UNL     1      -1.896  14.010  20.546  0.00  0.00    +0.000 A 
ATOM      6  C   UNL     1      -1.030  14.998  21.064  0.00  0.00    +0.000 A 
ATOM      7  C   UNL     1       0.336  14.699  21.073  0.00  0.00    +0.000 A 
ATOM      8  C   UNL     1       0.748  13.424  20.675  0.00  0.00    +0.000 A 
ATOM      9  C   UNL     1       1.890  13.250  19.730  0.00  0.00    +0.000 A 
ATOM     10  O   UNL     1       2.774  14.083  19.577  0.00  0.00    +0.000 OA
ATOM     11  C   UNL     1       1.804  12.032  18.837  0.00  0.00    +0.000 A 
ENDROOT
BRANCH   1  15
ATOM     12  C   UNL     1       2.455   6.901  18.677  0.00  0.00    +0.000 A 
ATOM     13  C   UNL     1       2.385   7.802  17.603  0.00  0.00    +0.000 A 
ATOM     14  C   UNL     1       1.913   9.100  17.778  0.00  0.00    +0.000 A 
ATOM     15  C   UNL     1       1.494   9.548  19.037  0.00  0.00    +0.000 A 
ATOM     16  C   UNL     1       1.533   8.636  20.107  0.00  0.00    +0.000 A 
ATOM     17  C   UNL     1       2.022   7.340  19.928  0.00  0.00    +0.000 A 
BRANCH  17  18
ATOM     18  O   UNL     1       2.124   6.496  20.998  0.00  0.00    +0.000 OA
ATOM     19  H   UNL     1       3.013   6.579  21.379  0.00  0.00    +0.000 HD
ENDBRANCH  17  18
BRANCH  12  20
ATOM     20  C   UNL     1       3.047   5.525  18.477  0.00  0.00    +0.000 C 
BRANCH  20  24
ATOM     21  C   UNL     1       0.671   2.431  18.809  0.00  0.00    +0.000 C 
ATOM     22  C   UNL     1       1.785   3.399  19.112  0.00  0.00    +0.000 C 
ATOM     23  C   UNL     1       2.641   3.100  20.314  0.00  0.00    +0.000 C 
ATOM     24  C   UNL     1       1.992   4.466  18.324  0.00  0.00    +0.000 C 
ENDBRANCH  20  24
ENDBRANCH  12  20
ENDBRANCH   1  15
BRANCH   5  25
ATOM     25  O   UNL     1      -3.128  14.387  20.084  0.00  0.00    +0.000 OA
ATOM     26  H   UNL     1      -2.962  15.098  19.434  0.00  0.00    +0.000 HD
ENDBRANCH   5  25
BRANCH   7  27
ATOM     27  O   UNL     1       1.291  15.601  21.439  0.00  0.00    +0.000 OA
ATOM     28  H   UNL     1       2.092  15.520  20.902  0.00  0.00    +0.000 HD
ENDBRANCH   7  27
BRANCH  11  29
ATOM     29  O   UNL     1       2.320  12.091  17.560  0.00  0.00    +0.000 OA
ATOM     30  H   UNL     1       1.685  12.600  17.035  0.00  0.00    +0.000 HD
ENDBRANCH  11  29
BRANCH   4  31
ATOM     31  C   UNL     1      -2.354  11.679  19.602  0.00  0.00    +0.000 C 
BRANCH  31  32
ATOM     32  C   UNL     1      -2.185  11.616  18.113  0.00  0.00    +0.000 C 
ATOM     33  C   UNL     1      -3.127  11.261  17.212  0.00  0.00    +0.000 C 
ATOM     34  C   UNL     1      -4.581  10.995  17.512  0.00  0.00    +0.000 C 
ATOM     35  C   UNL     1      -2.753  11.012  15.774  0.00  0.00    +0.000 C 
ENDBRANCH  31  32
ENDBRANCH   4  31
BRANCH   6  36
ATOM     36  C   UNL     1      -1.588  16.322  21.530  0.00  0.00    +0.000 C 
BRANCH  36  37
ATOM     37  C   UNL     1      -1.676  16.483  23.024  0.00  0.00    +0.000 C 
ATOM     38  C   UNL     1      -2.616  15.986  23.854  0.00  0.00    +0.000 C 
ATOM     39  C   UNL     1      -3.861  15.250  23.434  0.00  0.00    +0.000 C 
ATOM     40  C   UNL     1      -2.456  16.096  25.351  0.00  0.00    +0.000 C 
ENDBRANCH  36  37
ENDBRANCH   6  36
TORSDOF 11
ENDMDL
MODEL 8
REMARK VINA RESULT:      -7.7      1.025      1.430
REMARK  Name = 
REMARK  17 active torsions:
REMARK  status: ('A' for Active; 'I' for Inactive)
REMARK    1  A    between atoms: C_1  and  C_2
REMARK    2  A    between atoms: C_2  and  C_3
REMARK    3  A    between atoms: C_4  and  C_5
REMARK    4  A    between atoms: C_5  and  C_6
REMARK    5  A    between atoms: C_9  and  C_10
REMARK    6  A    between atoms: C_13  and  C_14
REMARK    7  A    between atoms: C_14  and  C_15
REMARK    8  A    between atoms: C_16  and  C_17
REMARK    9  A    between atoms: C_16  and  C_18
REMARK   10  A    between atoms: C_19  and  O_20
REMARK   11  A    between atoms: C_21  and  C_22
REMARK   12  A    between atoms: C_22  and  C_23
REMARK   13  A    between atoms: C_24  and  C_25
REMARK   14  A    between atoms: C_24  and  C_26
REMARK   15  A    between atoms: C_27  and  O_28
REMARK   16  A    between atoms: C_32  and  O_33
REMARK   17  A    between atoms: C_35  and  O_36
REMARK                            x       y       z     vdW  Elec       q    Type
REMARK                         _______ _______ _______ _____ _____    ______ ____
ROOT
ATOM      1  C   UNL     1       1.393  10.233  19.016  0.00  0.00    +0.000 A 
ATOM      2  O   UNL     1       0.411  10.240  20.002  0.00  0.00    +0.000 OA
ATOM      3  C   UNL     1      -0.264  11.429  20.104  0.00  0.00    +0.000 A 
ATOM      4  C   UNL     1      -1.604  11.516  19.752  0.00  0.00    +0.000 A 
ATOM      5  C   UNL     1      -2.212  12.773  19.892  0.00  0.00    +0.000 A 
ATOM      6  C   UNL     1      -1.554  13.881  20.469  0.00  0.00    +0.000 A 
ATOM      7  C   UNL     1      -0.164  13.794  20.598  0.00  0.00    +0.000 A 
ATOM      8  C   UNL     1       0.470  12.598  20.250  0.00  0.00    +0.000 A 
ATOM      9  C   UNL     1       1.702  12.603  19.407  0.00  0.00    +0.000 A 
ATOM     10  O   UNL     1       2.458  13.561  19.320  0.00  0.00    +0.000 OA
ATOM     11  C   UNL     1       1.879  11.387  18.525  0.00  0.00    +0.000 A 
ENDROOT
BRANCH   1  15
ATOM     12  C   UNL     1       3.282   6.393  18.522  0.00  0.00    +0.000 A 
ATOM     13  C   UNL     1       3.312   7.325  17.471  0.00  0.00    +0.000 A 
ATOM     14  C   UNL     1       2.650   8.546  17.571  0.00  0.00    +0.000 A 
ATOM     15  C   UNL     1       1.936   8.885  18.726  0.00  0.00    +0.000 A 
ATOM     16  C   UNL     1       1.879   7.939  19.766  0.00  0.00    +0.000 A 
ATOM     17  C   UNL     1       2.557   6.722  19.667  0.00  0.00    +0.000 A 
BRANCH  17  18
ATOM     18  O   UNL     1       2.552   5.851  20.720  0.00  0.00    +0.000 OA
ATOM     19  H   UNL     1       2.823   4.974  20.403  0.00  0.00    +0.000 HD
ENDBRANCH  17  18
BRANCH  12  20
ATOM     20  C   UNL     1       4.075   5.110  18.421  0.00  0.00    +0.000 C 
BRANCH  20  24
ATOM     21  C   UNL     1       2.155   1.701  18.287  0.00  0.00    +0.000 C 
ATOM     22  C   UNL     1       3.075   2.788  18.776  0.00  0.00    +0.000 C 
ATOM     23  C   UNL     1       3.829   2.523  20.052  0.00  0.00    +0.000 C 
ATOM     24  C   UNL     1       3.209   3.929  18.082  0.00  0.00    +0.000 C 
ENDBRANCH  20  24
ENDBRANCH  12  20
ENDBRANCH   1  15
BRANCH   5  25
ATOM     25  O   UNL     1      -3.443  12.957  19.323  0.00  0.00    +0.000 OA
ATOM     26  H   UNL     1      -4.043  13.194  20.057  0.00  0.00    +0.000 HD
ENDBRANCH   5  25
BRANCH   7  27
ATOM     27  O   UNL     1       0.607  14.832  21.032  0.00  0.00    +0.000 OA
ATOM     28  H   UNL     1       0.213  15.284  21.792  0.00  0.00    +0.000 HD
ENDBRANCH   7  27
BRANCH  11  29
ATOM     29  O   UNL     1       2.487  11.526  17.295  0.00  0.00    +0.000 OA
ATOM     30  H   UNL     1       2.822  10.648  17.059  0.00  0.00    +0.000 HD
ENDBRANCH  11  29
BRANCH   4  31
ATOM     31  C   UNL     1      -2.226  10.400  18.940  0.00  0.00    +0.000 C 
BRANCH  31  32
ATOM     32  C   UNL     1      -2.068  10.462  17.450  0.00  0.00    +0.000 C 
ATOM     33  C   UNL     1      -3.050  10.660  16.545  0.00  0.00    +0.000 C 
ATOM     34  C   UNL     1      -4.485  11.005  16.860  0.00  0.00    +0.000 C 
ATOM     35  C   UNL     1      -2.787  10.462  15.075  0.00  0.00    +0.000 C 
ENDBRANCH  31  32
ENDBRANCH   4  31
BRANCH   6  36
ATOM     36  C   UNL     1      -2.346  15.103  20.872  0.00  0.00    +0.000 C 
BRANCH  36  37
ATOM     37  C   UNL     1      -3.135  14.958  22.145  0.00  0.00    +0.000 C 
ATOM     38  C   UNL     1      -2.692  15.099  23.412  0.00  0.00    +0.000 C 
ATOM     39  C   UNL     1      -1.261  15.323  23.825  0.00  0.00    +0.000 C 
ATOM     40  C   UNL     1      -3.661  15.091  24.569  0.00  0.00    +0.000 C 
ENDBRANCH  36  37
ENDBRANCH   6  36
TORSDOF 11
ENDMDL
MODEL 9
REMARK VINA RESULT:      -7.6      2.383      3.661
REMARK  Name = 
REMARK  17 active torsions:
REMARK  status: ('A' for Active; 'I' for Inactive)
REMARK    1  A    between atoms: C_1  and  C_2
REMARK    2  A    between atoms: C_2  and  C_3
REMARK    3  A    between atoms: C_4  and  C_5
REMARK    4  A    between atoms: C_5  and  C_6
REMARK    5  A    between atoms: C_9  and  C_10
REMARK    6  A    between atoms: C_13  and  C_14
REMARK    7  A    between atoms: C_14  and  C_15
REMARK    8  A    between atoms: C_16  and  C_17
REMARK    9  A    between atoms: C_16  and  C_18
REMARK   10  A    between atoms: C_19  and  O_20
REMARK   11  A    between atoms: C_21  and  C_22
REMARK   12  A    between atoms: C_22  and  C_23
REMARK   13  A    between atoms: C_24  and  C_25
REMARK   14  A    between atoms: C_24  and  C_26
REMARK   15  A    between atoms: C_27  and  O_28
REMARK   16  A    between atoms: C_32  and  O_33
REMARK   17  A    between atoms: C_35  and  O_36
REMARK                            x       y       z     vdW  Elec       q    Type
REMARK                         _______ _______ _______ _____ _____    ______ ____
ROOT
ATOM      1  C   UNL     1       0.315  10.070  20.263  0.00  0.00    +0.000 A 
ATOM      2  O   UNL     1      -0.724  10.625  19.524  0.00  0.00    +0.000 OA
ATOM      3  C   UNL     1      -1.272  11.746  20.092  0.00  0.00    +0.000 A 
ATOM      4  C   UNL     1      -1.117  12.991  19.497  0.00  0.00    +0.000 A 
ATOM      5  C   UNL     1      -1.715  14.080  20.149  0.00  0.00    +0.000 A 
ATOM      6  C   UNL     1      -2.538  13.932  21.287  0.00  0.00    +0.000 A 
ATOM      7  C   UNL     1      -2.477  12.705  21.956  0.00  0.00    +0.000 A 
ATOM      8  C   UNL     1      -1.700  11.679  21.410  0.00  0.00    +0.000 A 
ATOM      9  C   UNL     1      -0.772  10.886  22.268  0.00  0.00    +0.000 A 
ATOM     10  O   UNL     1      -0.911  10.759  23.477  0.00  0.00    +0.000 OA
ATOM     11  C   UNL     1       0.465  10.370  21.566  0.00  0.00    +0.000 A 
ENDROOT
BRANCH   1  15
ATOM     12  C   UNL     1       2.881   7.127  18.443  0.00  0.00    +0.000 A 
ATOM     13  C   UNL     1       2.455   8.237  17.697  0.00  0.00    +0.000 A 
ATOM     14  C   UNL     1       1.569   9.169  18.231  0.00  0.00    +0.000 A 
ATOM     15  C   UNL     1       1.076   9.029  19.534  0.00  0.00    +0.000 A 
ATOM     16  C   UNL     1       1.477   7.899  20.270  0.00  0.00    +0.000 A 
ATOM     17  C   UNL     1       2.378   6.976  19.735  0.00  0.00    +0.000 A 
BRANCH  17  18
ATOM     18  O   UNL     1       2.814   5.928  20.498  0.00  0.00    +0.000 OA
ATOM     19  H   UNL     1       2.410   5.110  20.165  0.00  0.00    +0.000 HD
ENDBRANCH  17  18
BRANCH  12  20
ATOM     20  C   UNL     1       3.905   6.175  17.870  0.00  0.00    +0.000 C 
BRANCH  20  24
ATOM     21  C   UNL     1       2.922   2.397  17.570  0.00  0.00    +0.000 C 
ATOM     22  C   UNL     1       3.625   3.643  18.041  0.00  0.00    +0.000 C 
ATOM     23  C   UNL     1       4.685   3.472  19.097  0.00  0.00    +0.000 C 
ATOM     24  C   UNL     1       3.310   4.840  17.520  0.00  0.00    +0.000 C 
ENDBRANCH  20  24
ENDBRANCH  12  20
ENDBRANCH   1  15
BRANCH   5  25
ATOM     25  O   UNL     1      -1.374  15.339  19.738  0.00  0.00    +0.000 OA
ATOM     26  H   UNL     1      -1.450  15.907  20.530  0.00  0.00    +0.000 HD
ENDBRANCH   5  25
BRANCH   7  27
ATOM     27  O   UNL     1      -3.131  12.467  23.129  0.00  0.00    +0.000 OA
ATOM     28  H   UNL     1      -3.463  13.282  23.532  0.00  0.00    +0.000 HD
ENDBRANCH   7  27
BRANCH  11  29
ATOM     29  O   UNL     1       1.646  10.260  22.270  0.00  0.00    +0.000 OA
ATOM     30  H   UNL     1       2.331  10.055  21.616  0.00  0.00    +0.000 HD
ENDBRANCH  11  29
BRANCH   4  31
ATOM     31  C   UNL     1      -0.066  13.166  18.421  0.00  0.00    +0.000 C 
BRANCH  31  32
ATOM     32  C   UNL     1       1.363  13.265  18.864  0.00  0.00    +0.000 C 
ATOM     33  C   UNL     1       2.125  14.379  18.879  0.00  0.00    +0.000 C 
ATOM     34  C   UNL     1       1.646  15.781  18.589  0.00  0.00    +0.000 C 
ATOM     35  C   UNL     1       3.609  14.288  19.121  0.00  0.00    +0.000 C 
ENDBRANCH  31  32
ENDBRANCH   4  31
BRANCH   6  36
ATOM     36  C   UNL     1      -3.393  15.087  21.755  0.00  0.00    +0.000 C 
BRANCH  36  37
ATOM     37  C   UNL     1      -4.847  14.992  21.382  0.00  0.00    +0.000 C 
ATOM     38  C   UNL     1      -5.915  14.999  22.208  0.00  0.00    +0.000 C 
ATOM     39  C   UNL     1      -5.863  14.988  23.713  0.00  0.00    +0.000 C 
ATOM     40  C   UNL     1      -7.316  15.073  21.652  0.00  0.00    +0.000 C 
ENDBRANCH  36  37
ENDBRANCH   6  36
TORSDOF 11
ENDMDL
