MODEL 1
REMARK VINA RESULT:      -8.5      0.000      0.000
REMARK  Name = 
REMARK  4 active torsions:
REMARK  status: ('A' for Active; 'I' for Inactive)
REMARK    1  A    between atoms: C_2  and  C_3
REMARK    2  A    between atoms: N_9  and  C_10
REMARK    3  A    between atoms: C_15  and  O_16
REMARK    4  A    between atoms: N_19  and  C_20
REMARK                            x       y       z     vdW  Elec       q    Type
REMARK                         _______ _______ _______ _____ _____    ______ ____
ROOT
ATOM      1  C   UNL     1       2.047   8.039  19.090  0.00  0.00    +0.000 A 
ATOM      2  C   UNL     1       2.848   8.328  18.063  0.00  0.00    +0.000 A 
ATOM      3  C   UNL     1       3.674   7.275  17.516  0.00  0.00    +0.000 A 
ATOM      4  C   UNL     1       4.530   7.505  16.470  0.00  0.00    +0.000 A 
ATOM      5  N   UNL     1       5.261   6.543  15.904  0.00  0.00    +0.000 NA
ATOM      6  C   UNL     1       5.155   5.299  16.401  0.00  0.00    +0.000 A 
ATOM      7  N   UNL     1       5.871   4.280  15.788  0.00  0.00    +0.000 N 
ATOM      8  N   UNL     1       4.383   4.989  17.456  0.00  0.00    +0.000 NA
ATOM      9  C   UNL     1       3.633   5.973  17.996  0.00  0.00    +0.000 A 
ATOM     10  N   UNL     1       2.757   5.683  19.092  0.00  0.00    +0.000 N 
ATOM     11  C   UNL     1       2.000   6.686  19.701  0.00  0.00    +0.000 A 
ATOM     12  O   UNL     1       1.295   6.515  20.691  0.00  0.00    +0.000 OA
ATOM     13  H   UNL     1       5.833   3.405  16.290  0.00  0.00    +0.000 HD
ENDROOT
BRANCH   7  14
ATOM     14  C   UNL     1       6.180   4.144  14.421  0.00  0.00    +0.000 A 
ATOM     15  C   UNL     1       5.422   3.326  13.570  0.00  0.00    +0.000 A 
ATOM     16  C   UNL     1       5.724   3.211  12.213  0.00  0.00    +0.000 A 
ATOM     17  C   UNL     1       6.778   3.943  11.675  0.00  0.00    +0.000 A 
ATOM     18  C   UNL     1       7.534   4.779  12.494  0.00  0.00    +0.000 A 
ATOM     19  C   UNL     1       7.241   4.870  13.858  0.00  0.00    +0.000 A 
BRANCH  19  20
ATOM     20  O   UNL     1       7.989   5.683  14.669  0.00  0.00    +0.000 OA
ATOM     21  H   UNL     1       7.870   5.393  15.587  0.00  0.00    +0.000 HD
ENDBRANCH  19  20
ENDBRANCH   7  14
BRANCH  10  22
ATOM     22  C   UNL     1       2.664   4.298  19.575  0.00  0.00    +0.000 C 
ATOM     23  C   UNL     1       2.546   4.152  21.094  0.00  0.00    +0.000 C 
ATOM     24  C   UNL     1       2.051   2.723  21.279  0.00  0.00    +0.000 C 
ATOM     25  C   UNL     1       1.222   2.394  20.039  0.00  0.00    +0.000 C 
ATOM     26  C   UNL     1       1.443   3.534  19.046  0.00  0.00    +0.000 C 
ENDBRANCH  10  22
BRANCH   1  28
ATOM     27  N   UNL     1       0.474  10.038  20.216  0.00  0.00    +0.000 NA
ATOM     28  C   UNL     1       1.187   9.132  19.706  0.00  0.00    +0.000 C 
ENDBRANCH   1  28
TORSDOF 4
ENDMDL
MODEL 2
REMARK VINA RESULT:      -8.1      0.781      1.092
REMARK  Name = 
REMARK  4 active torsions:
REMARK  status: ('A' for Active; 'I' for Inactive)
REMARK    1  A    between atoms: C_2  and  C_3
REMARK    2  A    between atoms: N_9  and  C_10
REMARK    3  A    between atoms: C_15  and  O_16
REMARK    4  A    between atoms: N_19  and  C_20
REMARK                            x       y       z     vdW  Elec       q    Type
REMARK                         _______ _______ _______ _____ _____    ______ ____
ROOT
ATOM      1  C   UNL     1       2.176   7.839  19.084  0.00  0.00    +0.000 A 
ATOM      2  C   UNL     1       2.927   8.160  18.028  0.00  0.00    +0.000 A 
ATOM      3  C   UNL     1       3.766   7.139  17.444  0.00  0.00    +0.000 A 
ATOM      4  C   UNL     1       4.573   7.403  16.367  0.00  0.00    +0.000 A 
ATOM      5  N   UNL     1       5.315   6.470  15.768  0.00  0.00    +0.000 NA
ATOM      6  C   UNL     1       5.272   5.220  16.262  0.00  0.00    +0.000 A 
ATOM      7  N   UNL     1       5.998   4.230  15.616  0.00  0.00    +0.000 N 
ATOM      8  N   UNL     1       4.552   4.879  17.344  0.00  0.00    +0.000 NA
ATOM      9  C   UNL     1       3.790   5.834  17.918  0.00  0.00    +0.000 A 
ATOM     10  N   UNL     1       2.967   5.509  19.045  0.00  0.00    +0.000 N 
ATOM     11  C   UNL     1       2.199   6.482  19.688  0.00  0.00    +0.000 A 
ATOM     12  O   UNL     1       1.539   6.283  20.703  0.00  0.00    +0.000 OA
ATOM     13  H   UNL     1       6.010   3.352  16.114  0.00  0.00    +0.000 HD
ENDROOT
BRANCH   7  14
ATOM     14  C   UNL     1       6.259   4.111  14.238  0.00  0.00    +0.000 A 
ATOM     15  C   UNL     1       5.479   3.293  13.406  0.00  0.00    +0.000 A 
ATOM     16  C   UNL     1       5.733   3.195  12.038  0.00  0.00    +0.000 A 
ATOM     17  C   UNL     1       6.760   3.943  11.470  0.00  0.00    +0.000 A 
ATOM     18  C   UNL     1       7.537   4.778  12.270  0.00  0.00    +0.000 A 
ATOM     19  C   UNL     1       7.292   4.853  13.644  0.00  0.00    +0.000 A 
BRANCH  19  20
ATOM     20  O   UNL     1       8.060   5.666  14.436  0.00  0.00    +0.000 OA
ATOM     21  H   UNL     1       7.571   6.488  14.598  0.00  0.00    +0.000 HD
ENDBRANCH  19  20
ENDBRANCH   7  14
BRANCH  10  22
ATOM     22  C   UNL     1       2.940   4.120  19.523  0.00  0.00    +0.000 C 
ATOM     23  C   UNL     1       2.102   3.163  18.673  0.00  0.00    +0.000 C 
ATOM     24  C   UNL     1       2.576   1.783  19.115  0.00  0.00    +0.000 C 
ATOM     25  C   UNL     1       4.035   1.947  19.536  0.00  0.00    +0.000 C 
ATOM     26  C   UNL     1       4.319   3.448  19.566  0.00  0.00    +0.000 C 
ENDBRANCH  10  22
BRANCH   1  28
ATOM     27  N   UNL     1       0.579   9.777  20.280  0.00  0.00    +0.000 NA
ATOM     28  C   UNL     1       1.303   8.898  19.738  0.00  0.00    +0.000 C 
ENDBRANCH   1  28
TORSDOF 4
ENDMDL
MODEL 3
REMARK VINA RESULT:      -7.0      2.824      7.392
REMARK  Name = 
REMARK  4 active torsions:
REMARK  status: ('A' for Active; 'I' for Inactive)
REMARK    1  A    between atoms: C_2  and  C_3
REMARK    2  A    between atoms: N_9  and  C_10
REMARK    3  A    between atoms: C_15  and  O_16
REMARK    4  A    between atoms: N_19  and  C_20
REMARK                            x       y       z     vdW  Elec       q    Type
REMARK                         _______ _______ _______ _____ _____    ______ ____
ROOT
ATOM      1  C   UNL     1       5.196   5.690  17.652  0.00  0.00    +0.000 A 
ATOM      2  C   UNL     1       4.940   6.938  17.257  0.00  0.00    +0.000 A 
ATOM      3  C   UNL     1       3.712   7.562  17.695  0.00  0.00    +0.000 A 
ATOM      4  C   UNL     1       3.380   8.837  17.315  0.00  0.00    +0.000 A 
ATOM      5  N   UNL     1       2.284   9.462  17.749  0.00  0.00    +0.000 NA
ATOM      6  C   UNL     1       1.469   8.796  18.584  0.00  0.00    +0.000 A 
ATOM      7  N   UNL     1       0.353   9.454  19.083  0.00  0.00    +0.000 N 
ATOM      8  N   UNL     1       1.685   7.527  18.969  0.00  0.00    +0.000 NA
ATOM      9  C   UNL     1       2.813   6.923  18.538  0.00  0.00    +0.000 A 
ATOM     10  N   UNL     1       3.113   5.587  18.959  0.00  0.00    +0.000 N 
ATOM     11  C   UNL     1       4.249   4.919  18.499  0.00  0.00    +0.000 A 
ATOM     12  O   UNL     1       4.517   3.750  18.759  0.00  0.00    +0.000 OA
ATOM     13  H   UNL     1      -0.268   8.852  19.603  0.00  0.00    +0.000 HD
ENDROOT
BRANCH   7  14
ATOM     14  C   UNL     1       0.227  10.819  19.400  0.00  0.00    +0.000 A 
ATOM     15  C   UNL     1       0.893  11.388  20.496  0.00  0.00    +0.000 A 
ATOM     16  C   UNL     1       0.777  12.746  20.792  0.00  0.00    +0.000 A 
ATOM     17  C   UNL     1       0.011  13.570  19.972  0.00  0.00    +0.000 A 
ATOM     18  C   UNL     1      -0.643  13.034  18.865  0.00  0.00    +0.000 A 
ATOM     19  C   UNL     1      -0.542  11.668  18.589  0.00  0.00    +0.000 A 
BRANCH  19  20
ATOM     20  O   UNL     1      -1.193  11.136  17.506  0.00  0.00    +0.000 OA
ATOM     21  H   UNL     1      -0.869  11.578  16.706  0.00  0.00    +0.000 HD
ENDBRANCH  19  20
ENDBRANCH   7  14
BRANCH  10  22
ATOM     22  C   UNL     1       2.198   4.918  19.895  0.00  0.00    +0.000 C 
ATOM     23  C   UNL     1       1.353   3.800  19.281  0.00  0.00    +0.000 C 
ATOM     24  C   UNL     1       0.844   3.029  20.493  0.00  0.00    +0.000 C 
ATOM     25  C   UNL     1       1.910   3.183  21.576  0.00  0.00    +0.000 C 
ATOM     26  C   UNL     1       2.902   4.231  21.072  0.00  0.00    +0.000 C 
ENDBRANCH  10  22
BRANCH   1  28
ATOM     27  N   UNL     1       7.519   4.421  16.798  0.00  0.00    +0.000 NA
ATOM     28  C   UNL     1       6.465   4.996  17.185  0.00  0.00    +0.000 C 
ENDBRANCH   1  28
TORSDOF 4
ENDMDL
MODEL 4
REMARK VINA RESULT:      -7.0      2.701      7.465
REMARK  Name = 
REMARK  4 active torsions:
REMARK  status: ('A' for Active; 'I' for Inactive)
REMARK    1  A    between atoms: C_2  and  C_3
REMARK    2  A    between atoms: N_9  and  C_10
REMARK    3  A    between atoms: C_15  and  O_16
REMARK    4  A    between atoms: N_19  and  C_20
REMARK                            x       y       z     vdW  Elec       q    Type
REMARK                         _______ _______ _______ _____ _____    ______ ____
ROOT
ATOM      1  C   UNL     1       2.797   4.088  20.655  0.00  0.00    +0.000 A 
ATOM      2  C   UNL     1       2.044   5.066  21.162  0.00  0.00    +0.000 A 
ATOM      3  C   UNL     1       1.980   6.324  20.453  0.00  0.00    +0.000 A 
ATOM      4  C   UNL     1       1.236   7.376  20.924  0.00  0.00    +0.000 A 
ATOM      5  N   UNL     1       1.109   8.529  20.265  0.00  0.00    +0.000 NA
ATOM      6  C   UNL     1       1.756   8.658  19.094  0.00  0.00    +0.000 A 
ATOM      7  N   UNL     1       1.590   9.833  18.374  0.00  0.00    +0.000 N 
ATOM      8  N   UNL     1       2.548   7.703  18.580  0.00  0.00    +0.000 NA
ATOM      9  C   UNL     1       2.642   6.535  19.251  0.00  0.00    +0.000 A 
ATOM     10  N   UNL     1       3.436   5.468  18.720  0.00  0.00    +0.000 N 
ATOM     11  C   UNL     1       3.588   4.263  19.410  0.00  0.00    +0.000 A 
ATOM     12  O   UNL     1       4.316   3.345  19.046  0.00  0.00    +0.000 OA
ATOM     13  H   UNL     1       2.198   9.901  17.572  0.00  0.00    +0.000 HD
ENDROOT
BRANCH   7  14
ATOM     14  C   UNL     1       0.438  10.638  18.290  0.00  0.00    +0.000 A 
ATOM     15  C   UNL     1      -0.780  10.137  17.805  0.00  0.00    +0.000 A 
ATOM     16  C   UNL     1      -1.921  10.936  17.742  0.00  0.00    +0.000 A 
ATOM     17  C   UNL     1      -1.870  12.251  18.197  0.00  0.00    +0.000 A 
ATOM     18  C   UNL     1      -0.679  12.766  18.702  0.00  0.00    +0.000 A 
ATOM     19  C   UNL     1       0.467  11.967  18.739  0.00  0.00    +0.000 A 
BRANCH  19  20
ATOM     20  O   UNL     1       1.643  12.474  19.227  0.00  0.00    +0.000 OA
ATOM     21  H   UNL     1       1.742  13.384  18.905  0.00  0.00    +0.000 HD
ENDBRANCH  19  20
ENDBRANCH   7  14
BRANCH  10  22
ATOM     22  C   UNL     1       4.098   5.658  17.422  0.00  0.00    +0.000 C 
ATOM     23  C   UNL     1       5.553   6.124  17.504  0.00  0.00    +0.000 C 
ATOM     24  C   UNL     1       6.101   5.835  16.111  0.00  0.00    +0.000 C 
ATOM     25  C   UNL     1       5.322   4.629  15.588  0.00  0.00    +0.000 C 
ATOM     26  C   UNL     1       4.177   4.385  16.569  0.00  0.00    +0.000 C 
ENDBRANCH  10  22
BRANCH   1  28
ATOM     27  N   UNL     1       2.998   1.663  22.003  0.00  0.00    +0.000 NA
ATOM     28  C   UNL     1       2.907   2.763  21.392  0.00  0.00    +0.000 C 
ENDBRANCH   1  28
TORSDOF 4
ENDMDL
MODEL 5
REMARK VINA RESULT:      -7.0      2.721      7.424
REMARK  Name = 
REMARK  4 active torsions:
REMARK  status: ('A' for Active; 'I' for Inactive)
REMARK    1  A    between atoms: C_2  and  C_3
REMARK    2  A    between atoms: N_9  and  C_10
REMARK    3  A    between atoms: C_15  and  O_16
REMARK    4  A    between atoms: N_19  and  C_20
REMARK                            x       y       z     vdW  Elec       q    Type
REMARK                         _______ _______ _______ _____ _____    ______ ____
ROOT
ATOM      1  C   UNL     1       5.075   5.698  17.570  0.00  0.00    +0.000 A 
ATOM      2  C   UNL     1       4.822   6.956  17.203  0.00  0.00    +0.000 A 
ATOM      3  C   UNL     1       3.616   7.587  17.691  0.00  0.00    +0.000 A 
ATOM      4  C   UNL     1       3.288   8.872  17.342  0.00  0.00    +0.000 A 
ATOM      5  N   UNL     1       2.213   9.502  17.820  0.00  0.00    +0.000 NA
ATOM      6  C   UNL     1       1.417   8.832  18.670  0.00  0.00    +0.000 A 
ATOM      7  N   UNL     1       0.326   9.494  19.215  0.00  0.00    +0.000 N 
ATOM      8  N   UNL     1       1.630   7.554  19.028  0.00  0.00    +0.000 NA
ATOM      9  C   UNL     1       2.736   6.944  18.551  0.00  0.00    +0.000 A 
ATOM     10  N   UNL     1       3.033   5.598  18.941  0.00  0.00    +0.000 N 
ATOM     11  C   UNL     1       4.146   4.924  18.434  0.00  0.00    +0.000 A 
ATOM     12  O   UNL     1       4.408   3.748  18.667  0.00  0.00    +0.000 OA
ATOM     13  H   UNL     1      -0.286   8.891  19.745  0.00  0.00    +0.000 HD
ENDROOT
BRANCH   7  14
ATOM     14  C   UNL     1       0.226  10.856  19.558  0.00  0.00    +0.000 A 
ATOM     15  C   UNL     1      -0.337  11.799  18.684  0.00  0.00    +0.000 A 
ATOM     16  C   UNL     1      -0.449  13.143  19.040  0.00  0.00    +0.000 A 
ATOM     17  C   UNL     1      -0.025  13.563  20.297  0.00  0.00    +0.000 A 
ATOM     18  C   UNL     1       0.519  12.644  21.191  0.00  0.00    +0.000 A 
ATOM     19  C   UNL     1       0.651  11.303  20.818  0.00  0.00    +0.000 A 
BRANCH  19  20
ATOM     20  O   UNL     1       1.195  10.397  21.692  0.00  0.00    +0.000 OA
ATOM     21  H   UNL     1       1.658  10.886  22.391  0.00  0.00    +0.000 HD
ENDBRANCH  19  20
ENDBRANCH   7  14
BRANCH  10  22
ATOM     22  C   UNL     1       2.140   4.925  19.894  0.00  0.00    +0.000 C 
ATOM     23  C   UNL     1       1.342   3.756  19.314  0.00  0.00    +0.000 C 
ATOM     24  C   UNL     1       0.858   3.005  20.549  0.00  0.00    +0.000 C 
ATOM     25  C   UNL     1       1.912   3.234  21.630  0.00  0.00    +0.000 C 
ATOM     26  C   UNL     1       2.864   4.304  21.096  0.00  0.00    +0.000 C 
ENDBRANCH  10  22
BRANCH   1  28
ATOM     27  N   UNL     1       7.354   4.417  16.622  0.00  0.00    +0.000 NA
ATOM     28  C   UNL     1       6.321   4.998  17.052  0.00  0.00    +0.000 C 
ENDBRANCH   1  28
TORSDOF 4
ENDMDL
MODEL 6
REMARK VINA RESULT:      -6.9      2.644      8.135
REMARK  Name = 
REMARK  4 active torsions:
REMARK  status: ('A' for Active; 'I' for Inactive)
REMARK    1  A    between atoms: C_2  and  C_3
REMARK    2  A    between atoms: N_9  and  C_10
REMARK    3  A    between atoms: C_15  and  O_16
REMARK    4  A    between atoms: N_19  and  C_20
REMARK                            x       y       z     vdW  Elec       q    Type
REMARK                         _______ _______ _______ _____ _____    ______ ____
ROOT
ATOM      1  C   UNL     1       4.254   6.519  17.365  0.00  0.00    +0.000 A 
ATOM      2  C   UNL     1       3.792   7.767  17.256  0.00  0.00    +0.000 A 
ATOM      3  C   UNL     1       2.704   8.176  18.115  0.00  0.00    +0.000 A 
ATOM      4  C   UNL     1       2.173   9.438  18.047  0.00  0.00    +0.000 A 
ATOM      5  N   UNL     1       1.209   9.866  18.864  0.00  0.00    +0.000 NA
ATOM      6  C   UNL     1       0.735   9.006  19.782  0.00  0.00    +0.000 A 
ATOM      7  N   UNL     1      -0.231   9.456  20.671  0.00  0.00    +0.000 N 
ATOM      8  N   UNL     1       1.157   7.736  19.889  0.00  0.00    +0.000 NA
ATOM      9  C   UNL     1       2.151   7.332  19.068  0.00  0.00    +0.000 A 
ATOM     10  N   UNL     1       2.669   6.001  19.175  0.00  0.00    +0.000 N 
ATOM     11  C   UNL     1       3.667   5.539  18.315  0.00  0.00    +0.000 A 
ATOM     12  O   UNL     1       4.093   4.388  18.305  0.00  0.00    +0.000 OA
ATOM     13  H   UNL     1      -0.619   8.722  21.246  0.00  0.00    +0.000 HD
ENDROOT
BRANCH   7  14
ATOM     14  C   UNL     1      -0.367  10.746  21.218  0.00  0.00    +0.000 A 
ATOM     15  C   UNL     1      -0.118  11.900  20.460  0.00  0.00    +0.000 A 
ATOM     16  C   UNL     1      -0.273  13.175  21.005  0.00  0.00    +0.000 A 
ATOM     17  C   UNL     1      -0.714  13.317  22.317  0.00  0.00    +0.000 A 
ATOM     18  C   UNL     1      -0.988  12.187  23.085  0.00  0.00    +0.000 A 
ATOM     19  C   UNL     1      -0.806  10.913  22.540  0.00  0.00    +0.000 A 
BRANCH  19  20
ATOM     20  O   UNL     1      -1.065   9.799  23.296  0.00  0.00    +0.000 OA
ATOM     21  H   UNL     1      -1.599  10.065  24.062  0.00  0.00    +0.000 HD
ENDBRANCH  19  20
ENDBRANCH   7  14
BRANCH  10  22
ATOM     22  C   UNL     1       2.130   5.114  20.216  0.00  0.00    +0.000 C 
ATOM     23  C   UNL     1       1.108   4.088  19.723  0.00  0.00    +0.000 C 
ATOM     24  C   UNL     1       1.045   3.071  20.856  0.00  0.00    +0.000 C 
ATOM     25  C   UNL     1       2.425   3.075  21.511  0.00  0.00    +0.000 C 
ATOM     26  C   UNL     1       3.192   4.255  20.916  0.00  0.00    +0.000 C 
ENDBRANCH  10  22
BRANCH   1  28
ATOM     27  N   UNL     1       6.312   5.660  15.704  0.00  0.00    +0.000 NA
ATOM     28  C   UNL     1       5.379   6.050  16.457  0.00  0.00    +0.000 C 
ENDBRANCH   1  28
TORSDOF 4
ENDMDL
MODEL 7
REMARK VINA RESULT:      -6.9      5.408      9.245
REMARK  Name = 
REMARK  4 active torsions:
REMARK  status: ('A' for Active; 'I' for Inactive)
REMARK    1  A    between atoms: C_2  and  C_3
REMARK    2  A    between atoms: N_9  and  C_10
REMARK    3  A    between atoms: C_15  and  O_16
REMARK    4  A    between atoms: N_19  and  C_20
REMARK                            x       y       z     vdW  Elec       q    Type
REMARK                         _______ _______ _______ _____ _____    ______ ____
ROOT
ATOM      1  C   UNL     1      -5.056  12.350  18.664  0.00  0.00    +0.000 A 
ATOM      2  C   UNL     1      -4.270  11.591  17.897  0.00  0.00    +0.000 A 
ATOM      3  C   UNL     1      -2.929  11.304  18.355  0.00  0.00    +0.000 A 
ATOM      4  C   UNL     1      -2.065  10.543  17.610  0.00  0.00    +0.000 A 
ATOM      5  N   UNL     1      -0.843  10.211  18.030  0.00  0.00    +0.000 NA
ATOM      6  C   UNL     1      -0.448  10.661  19.233  0.00  0.00    +0.000 A 
ATOM      7  N   UNL     1       0.801  10.279  19.703  0.00  0.00    +0.000 N 
ATOM      8  N   UNL     1      -1.205  11.454  20.009  0.00  0.00    +0.000 NA
ATOM      9  C   UNL     1      -2.447  11.757  19.575  0.00  0.00    +0.000 A 
ATOM     10  N   UNL     1      -3.311  12.560  20.388  0.00  0.00    +0.000 N 
ATOM     11  C   UNL     1      -4.586  12.926  19.951  0.00  0.00    +0.000 A 
ATOM     12  O   UNL     1      -5.339  13.676  20.564  0.00  0.00    +0.000 OA
ATOM     13  H   UNL     1       1.071  10.752  20.553  0.00  0.00    +0.000 HD
ENDROOT
BRANCH   7  14
ATOM     14  C   UNL     1       1.466   9.057  19.491  0.00  0.00    +0.000 A 
ATOM     15  C   UNL     1       1.504   8.056  20.474  0.00  0.00    +0.000 A 
ATOM     16  C   UNL     1       2.150   6.840  20.249  0.00  0.00    +0.000 A 
ATOM     17  C   UNL     1       2.746   6.592  19.016  0.00  0.00    +0.000 A 
ATOM     18  C   UNL     1       2.704   7.560  18.016  0.00  0.00    +0.000 A 
ATOM     19  C   UNL     1       2.077   8.786  18.257  0.00  0.00    +0.000 A 
BRANCH  19  20
ATOM     20  O   UNL     1       2.042   9.745  17.279  0.00  0.00    +0.000 OA
ATOM     21  H   UNL     1       2.545   9.421  16.514  0.00  0.00    +0.000 HD
ENDBRANCH  19  20
ENDBRANCH   7  14
BRANCH  10  22
ATOM     22  C   UNL     1      -2.834  13.001  21.706  0.00  0.00    +0.000 C 
ATOM     23  C   UNL     1      -2.737  14.518  21.882  0.00  0.00    +0.000 C 
ATOM     24  C   UNL     1      -2.643  14.698  23.392  0.00  0.00    +0.000 C 
ATOM     25  C   UNL     1      -3.409  13.530  24.010  0.00  0.00    +0.000 C 
ATOM     26  C   UNL     1      -3.728  12.561  22.873  0.00  0.00    +0.000 C 
ENDBRANCH  10  22
BRANCH   1  28
ATOM     27  N   UNL     1      -7.627  12.978  17.811  0.00  0.00    +0.000 NA
ATOM     28  C   UNL     1      -6.461  12.693  18.198  0.00  0.00    +0.000 C 
ENDBRANCH   1  28
TORSDOF 4
ENDMDL
MODEL 8
REMARK VINA RESULT:      -6.8      2.273      7.624
REMARK  Name = 
REMARK  4 active torsions:
REMARK  status: ('A' for Active; 'I' for Inactive)
REMARK    1  A    between atoms: C_2  and  C_3
REMARK    2  A    between atoms: N_9  and  C_10
REMARK    3  A    between atoms: C_15  and  O_16
REMARK    4  A    between atoms: N_19  and  C_20
REMARK                            x       y       z     vdW  Elec       q    Type
REMARK                         _______ _______ _______ _____ _____    ______ ____
ROOT
ATOM      1  C   UNL     1       5.163   5.883  16.882  0.00  0.00    +0.000 A 
ATOM      2  C   UNL     1       4.634   7.108  16.860  0.00  0.00    +0.000 A 
ATOM      3  C   UNL     1       3.508   7.388  17.722  0.00  0.00    +0.000 A 
ATOM      4  C   UNL     1       2.908   8.620  17.740  0.00  0.00    +0.000 A 
ATOM      5  N   UNL     1       1.905   8.929  18.565  0.00  0.00    +0.000 NA
ATOM      6  C   UNL     1       1.465   7.975  19.403  0.00  0.00    +0.000 A 
ATOM      7  N   UNL     1       0.458   8.299  20.301  0.00  0.00    +0.000 N 
ATOM      8  N   UNL     1       1.956   6.724  19.420  0.00  0.00    +0.000 NA
ATOM      9  C   UNL     1       2.986   6.442  18.594  0.00  0.00    +0.000 A 
ATOM     10  N   UNL     1       3.577   5.137  18.610  0.00  0.00    +0.000 N 
ATOM     11  C   UNL     1       4.615   4.800  17.739  0.00  0.00    +0.000 A 
ATOM     12  O   UNL     1       5.107   3.679  17.650  0.00  0.00    +0.000 OA
ATOM     13  H   UNL     1       0.102   7.502  20.809  0.00  0.00    +0.000 HD
ENDROOT
BRANCH   7  14
ATOM     14  C   UNL     1       0.239   9.532  20.944  0.00  0.00    +0.000 A 
ATOM     15  C   UNL     1       0.634  10.748  20.365  0.00  0.00    +0.000 A 
ATOM     16  C   UNL     1       0.397  11.967  20.999  0.00  0.00    +0.000 A 
ATOM     17  C   UNL     1      -0.274  11.992  22.219  0.00  0.00    +0.000 A 
ATOM     18  C   UNL     1      -0.696  10.801  22.805  0.00  0.00    +0.000 A 
ATOM     19  C   UNL     1      -0.432   9.581  22.175  0.00  0.00    +0.000 A 
BRANCH  19  20
ATOM     20  O   UNL     1      -0.837   8.407  22.754  0.00  0.00    +0.000 OA
ATOM     21  H   UNL     1      -0.772   8.501  23.718  0.00  0.00    +0.000 HD
ENDBRANCH  19  20
ENDBRANCH   7  14
BRANCH  10  22
ATOM     22  C   UNL     1       3.070   4.143  19.566  0.00  0.00    +0.000 C 
ATOM     23  C   UNL     1       2.651   4.712  20.924  0.00  0.00    +0.000 C 
ATOM     24  C   UNL     1       1.804   3.600  21.531  0.00  0.00    +0.000 C 
ATOM     25  C   UNL     1       1.155   2.868  20.358  0.00  0.00    +0.000 C 
ATOM     26  C   UNL     1       1.817   3.399  19.087  0.00  0.00    +0.000 C 
ENDBRANCH  10  22
BRANCH   1  28
ATOM     27  N   UNL     1       7.298   5.272  15.207  0.00  0.00    +0.000 NA
ATOM     28  C   UNL     1       6.330   5.549  15.967  0.00  0.00    +0.000 C 
ENDBRANCH   1  28
TORSDOF 4
ENDMDL
MODEL 9
REMARK VINA RESULT:      -6.7      4.997      8.886
REMARK  Name = 
REMARK  4 active torsions:
REMARK  status: ('A' for Active; 'I' for Inactive)
REMARK    1  A    between atoms: C_2  and  C_3
REMARK    2  A    between atoms: N_9  and  C_10
REMARK    3  A    between atoms: C_15  and  O_16
REMARK    4  A    between atoms: N_19  and  C_20
REMARK                            x       y       z     vdW  Elec       q    Type
REMARK                         _______ _______ _______ _____ _____    ______ ____
ROOT
ATOM      1  C   UNL     1      -4.789  11.978  18.579  0.00  0.00    +0.000 A 
ATOM      2  C   UNL     1      -4.074  11.169  17.794  0.00  0.00    +0.000 A 
ATOM      3  C   UNL     1      -2.693  10.918  18.139  0.00  0.00    +0.000 A 
ATOM      4  C   UNL     1      -1.898  10.108  17.369  0.00  0.00    +0.000 A 
ATOM      5  N   UNL     1      -0.638   9.809  17.691  0.00  0.00    +0.000 NA
ATOM      6  C   UNL     1      -0.133  10.343  18.816  0.00  0.00    +0.000 A 
ATOM      7  N   UNL     1       1.159   9.998  19.189  0.00  0.00    +0.000 N 
ATOM      8  N   UNL     1      -0.819  11.187  19.604  0.00  0.00    +0.000 NA
ATOM      9  C   UNL     1      -2.100  11.456  19.273  0.00  0.00    +0.000 A 
ATOM     10  N   UNL     1      -2.889  12.313  20.107  0.00  0.00    +0.000 N 
ATOM     11  C   UNL     1      -4.203  12.644  19.771  0.00  0.00    +0.000 A 
ATOM     12  O   UNL     1      -4.900  13.433  20.401  0.00  0.00    +0.000 OA
ATOM     13  H   UNL     1       1.505  10.530  19.974  0.00  0.00    +0.000 HD
ENDROOT
BRANCH   7  14
ATOM     14  C   UNL     1       1.812   8.766  18.999  0.00  0.00    +0.000 A 
ATOM     15  C   UNL     1       2.565   8.498  17.846  0.00  0.00    +0.000 A 
ATOM     16  C   UNL     1       3.224   7.281  17.674  0.00  0.00    +0.000 A 
ATOM     17  C   UNL     1       3.165   6.316  18.675  0.00  0.00    +0.000 A 
ATOM     18  C   UNL     1       2.441   6.564  19.839  0.00  0.00    +0.000 A 
ATOM     19  C   UNL     1       1.763   7.776  19.993  0.00  0.00    +0.000 A 
BRANCH  19  20
ATOM     20  O   UNL     1       1.042   8.020  21.133  0.00  0.00    +0.000 OA
ATOM     21  H   UNL     1       1.331   8.869  21.504  0.00  0.00    +0.000 HD
ENDBRANCH  19  20
ENDBRANCH   7  14
BRANCH  10  22
ATOM     22  C   UNL     1      -2.290  12.846  21.339  0.00  0.00    +0.000 C 
ATOM     23  C   UNL     1      -2.174  14.370  21.391  0.00  0.00    +0.000 C 
ATOM     24  C   UNL     1      -1.941  14.662  22.869  0.00  0.00    +0.000 C 
ATOM     25  C   UNL     1      -2.649  13.550  23.641  0.00  0.00    +0.000 C 
ATOM     26  C   UNL     1      -3.074  12.502  22.613  0.00  0.00    +0.000 C 
ENDBRANCH  10  22
BRANCH   1  28
ATOM     27  N   UNL     1      -7.436  12.539  17.937  0.00  0.00    +0.000 NA
ATOM     28  C   UNL     1      -6.236  12.284  18.228  0.00  0.00    +0.000 C 
ENDBRANCH   1  28
TORSDOF 4
ENDMDL
