MODEL 1
REMARK VINA RESULT:      -6.3      0.000      0.000
REMARK  Name = 
REMARK  10 active torsions:
REMARK  status: ('A' for Active; 'I' for Inactive)
REMARK    1  A    between atoms: C_2  and  O_3
REMARK    2  A    between atoms: C_2  and  C_4
REMARK    3  A    between atoms: C_7  and  C_8
REMARK    4  A    between atoms: C_9  and  C_10
REMARK    5  A    between atoms: C_10  and  C_12
REMARK    6  A    between atoms: C_18  and  O_19
REMARK    7  A    between atoms: N_22  and  C_23
REMARK    8  A    between atoms: C_26  and  O_27
REMARK    9  A    between atoms: C_28  and  C_29
REMARK   10  A    between atoms: C_29  and  O_31
REMARK                            x       y       z     vdW  Elec       q    Type
REMARK                         _______ _______ _______ _____ _____    ______ ____
ROOT
ATOM      1  C   UNL     1      -0.284  12.124  20.438  0.00  0.00    +0.000 C 
ATOM      2  C   UNL     1      -1.538  12.866  20.085  0.00  0.00    +0.000 C 
ATOM      3  C   UNL     1      -2.316  12.167  19.245  0.00  0.00    +0.000 C 
ATOM      4  C   UNL     1      -1.664  10.851  19.014  0.00  0.00    +0.000 C 
ATOM      5  O   UNL     1      -2.141   9.966  18.321  0.00  0.00    +0.000 OA
ATOM      6  N   UNL     1      -0.497  10.846  19.777  0.00  0.00    +0.000 N 
ENDROOT
BRANCH   1  10
ATOM      7  C   UNL     1       3.332  14.091  19.027  0.00  0.00    +0.000 A 
ATOM      8  C   UNL     1       2.380  13.620  18.122  0.00  0.00    +0.000 A 
ATOM      9  C   UNL     1       1.233  12.971  18.586  0.00  0.00    +0.000 A 
ATOM     10  C   UNL     1       0.999  12.808  19.964  0.00  0.00    +0.000 A 
ATOM     11  C   UNL     1       1.940  13.341  20.864  0.00  0.00    +0.000 A 
ATOM     12  C   UNL     1       3.101  13.973  20.401  0.00  0.00    +0.000 A 
BRANCH   7  14
ATOM     13  O   UNL     1       5.555  14.927  19.160  0.00  0.00    +0.000 OA
ATOM     14  C   UNL     1       4.558  14.729  18.489  0.00  0.00    +0.000 C 
BRANCH  14  15
ATOM     15  O   UNL     1       4.436  15.122  17.204  0.00  0.00    +0.000 OA
ATOM     16  H   UNL     1       3.539  15.039  16.830  0.00  0.00    +0.000 HD
ENDBRANCH  14  15
ENDBRANCH   7  14
ENDBRANCH   1  10
BRANCH   6  17
ATOM     17  C   UNL     1       0.358   9.722  19.937  0.00  0.00    +0.000 A 
ATOM     18  C   UNL     1       0.382   9.019  21.145  0.00  0.00    +0.000 A 
ATOM     19  C   UNL     1       1.174   7.877  21.301  0.00  0.00    +0.000 A 
ATOM     20  C   UNL     1       1.974   7.439  20.249  0.00  0.00    +0.000 A 
ATOM     21  C   UNL     1       2.004   8.141  19.043  0.00  0.00    +0.000 A 
ATOM     22  C   UNL     1       1.186   9.279  18.899  0.00  0.00    +0.000 A 
BRANCH  20  23
ATOM     23  O   UNL     1       2.735   6.310  20.411  0.00  0.00    +0.000 OA
ATOM     24  H   UNL     1       2.181   5.624  20.834  0.00  0.00    +0.000 HD
ENDBRANCH  20  23
BRANCH  21  25
ATOM     25  C   UNL     1       2.854   7.765  17.875  0.00  0.00    +0.000 C 
ATOM     26  O   UNL     1       3.414   6.681  17.802  0.00  0.00    +0.000 OA
BRANCH  25  27
ATOM     27  O   UNL     1       2.954   8.697  16.908  0.00  0.00    +0.000 OA
ATOM     28  H   UNL     1       3.570   9.427  17.149  0.00  0.00    +0.000 HD
ENDBRANCH  25  27
ENDBRANCH  21  25
ENDBRANCH   6  17
BRANCH   2  29
ATOM     29  C   UNL     1      -1.911  14.251  20.457  0.00  0.00    +0.000 C 
ATOM     30  O   UNL     1      -3.035  14.462  20.919  0.00  0.00    +0.000 OA
BRANCH  29  31
ATOM     31  C   UNL     1      -0.973  15.384  20.280  0.00  0.00    +0.000 A 
ATOM     32  C   UNL     1      -0.366  15.923  21.425  0.00  0.00    +0.000 A 
ATOM     33  C   UNL     1       0.557  16.966  21.311  0.00  0.00    +0.000 A 
ATOM     34  C   UNL     1       0.870  17.484  20.055  0.00  0.00    +0.000 A 
ATOM     35  C   UNL     1       0.286  16.943  18.913  0.00  0.00    +0.000 A 
ATOM     36  C   UNL     1      -0.609  15.877  19.023  0.00  0.00    +0.000 A 
ENDBRANCH  29  31
ENDBRANCH   2  29
BRANCH   3  37
ATOM     37  O   UNL     1      -3.499  12.541  18.670  0.00  0.00    +0.000 OA
ATOM     38  H   UNL     1      -4.091  11.758  18.673  0.00  0.00    +0.000 HD
ENDBRANCH   3  37
TORSDOF 10
ENDMDL
MODEL 2
REMARK VINA RESULT:      -6.2      3.263      5.244
REMARK  Name = 
REMARK  10 active torsions:
REMARK  status: ('A' for Active; 'I' for Inactive)
REMARK    1  A    between atoms: C_2  and  O_3
REMARK    2  A    between atoms: C_2  and  C_4
REMARK    3  A    between atoms: C_7  and  C_8
REMARK    4  A    between atoms: C_9  and  C_10
REMARK    5  A    between atoms: C_10  and  C_12
REMARK    6  A    between atoms: C_18  and  O_19
REMARK    7  A    between atoms: N_22  and  C_23
REMARK    8  A    between atoms: C_26  and  O_27
REMARK    9  A    between atoms: C_28  and  C_29
REMARK   10  A    between atoms: C_29  and  O_31
REMARK                            x       y       z     vdW  Elec       q    Type
REMARK                         _______ _______ _______ _____ _____    ______ ____
ROOT
ATOM      1  C   UNL     1       0.012  11.133  20.034  0.00  0.00    +0.000 C 
ATOM      2  C   UNL     1      -0.573  11.688  21.298  0.00  0.00    +0.000 C 
ATOM      3  C   UNL     1      -0.503  10.810  22.311  0.00  0.00    +0.000 C 
ATOM      4  C   UNL     1       0.204   9.601  21.814  0.00  0.00    +0.000 C 
ATOM      5  O   UNL     1       0.462   8.630  22.507  0.00  0.00    +0.000 OA
ATOM      6  N   UNL     1       0.539   9.854  20.485  0.00  0.00    +0.000 N 
ENDROOT
BRANCH   1  10
ATOM      7  C   UNL     1      -2.820  10.708  16.759  0.00  0.00    +0.000 A 
ATOM      8  C   UNL     1      -1.977  11.818  16.829  0.00  0.00    +0.000 A 
ATOM      9  C   UNL     1      -1.087  11.954  17.897  0.00  0.00    +0.000 A 
ATOM     10  C   UNL     1      -0.998  10.969  18.898  0.00  0.00    +0.000 A 
ATOM     11  C   UNL     1      -1.813   9.829  18.780  0.00  0.00    +0.000 A 
ATOM     12  C   UNL     1      -2.722   9.700  17.723  0.00  0.00    +0.000 A 
BRANCH   7  14
ATOM     13  O   UNL     1      -3.476  10.249  14.519  0.00  0.00    +0.000 OA
ATOM     14  C   UNL     1      -3.784  10.628  15.635  0.00  0.00    +0.000 C 
BRANCH  14  15
ATOM     15  O   UNL     1      -5.018  11.071  15.955  0.00  0.00    +0.000 OA
ATOM     16  H   UNL     1      -5.753  10.564  15.563  0.00  0.00    +0.000 HD
ENDBRANCH  14  15
ENDBRANCH   7  14
ENDBRANCH   1  10
BRANCH   6  17
ATOM     17  C   UNL     1       1.336   8.999  19.676  0.00  0.00    +0.000 A 
ATOM     18  C   UNL     1       1.766   9.419  18.414  0.00  0.00    +0.000 A 
ATOM     19  C   UNL     1       2.598   8.614  17.630  0.00  0.00    +0.000 A 
ATOM     20  C   UNL     1       2.991   7.361  18.094  0.00  0.00    +0.000 A 
ATOM     21  C   UNL     1       2.545   6.895  19.332  0.00  0.00    +0.000 A 
ATOM     22  C   UNL     1       1.722   7.727  20.116  0.00  0.00    +0.000 A 
BRANCH  20  23
ATOM     23  O   UNL     1       3.817   6.589  17.321  0.00  0.00    +0.000 OA
ATOM     24  H   UNL     1       4.671   6.488  17.788  0.00  0.00    +0.000 HD
ENDBRANCH  20  23
BRANCH  21  25
ATOM     25  C   UNL     1       2.887   5.555  19.895  0.00  0.00    +0.000 C 
ATOM     26  O   UNL     1       3.538   4.733  19.266  0.00  0.00    +0.000 OA
BRANCH  25  27
ATOM     27  O   UNL     1       2.435   5.319  21.142  0.00  0.00    +0.000 OA
ATOM     28  H   UNL     1       2.506   4.370  21.396  0.00  0.00    +0.000 HD
ENDBRANCH  25  27
ENDBRANCH  21  25
ENDBRANCH   6  17
BRANCH   2  29
ATOM     29  C   UNL     1      -1.280  12.976  21.484  0.00  0.00    +0.000 C 
ATOM     30  O   UNL     1      -0.619  14.016  21.546  0.00  0.00    +0.000 OA
BRANCH  29  31
ATOM     31  C   UNL     1      -2.755  13.045  21.606  0.00  0.00    +0.000 A 
ATOM     32  C   UNL     1      -3.525  12.775  20.464  0.00  0.00    +0.000 A 
ATOM     33  C   UNL     1      -4.921  12.785  20.534  0.00  0.00    +0.000 A 
ATOM     34  C   UNL     1      -5.555  13.078  21.740  0.00  0.00    +0.000 A 
ATOM     35  C   UNL     1      -4.799  13.330  22.881  0.00  0.00    +0.000 A 
ATOM     36  C   UNL     1      -3.405  13.283  22.822  0.00  0.00    +0.000 A 
ENDBRANCH  29  31
ENDBRANCH   2  29
BRANCH   3  37
ATOM     37  O   UNL     1      -0.979  10.944  23.586  0.00  0.00    +0.000 OA
ATOM     38  H   UNL     1      -1.339  11.853  23.674  0.00  0.00    +0.000 HD
ENDBRANCH   3  37
TORSDOF 10
ENDMDL
MODEL 3
REMARK VINA RESULT:      -6.2      2.719      6.800
REMARK  Name = 
REMARK  10 active torsions:
REMARK  status: ('A' for Active; 'I' for Inactive)
REMARK    1  A    between atoms: C_2  and  O_3
REMARK    2  A    between atoms: C_2  and  C_4
REMARK    3  A    between atoms: C_7  and  C_8
REMARK    4  A    between atoms: C_9  and  C_10
REMARK    5  A    between atoms: C_10  and  C_12
REMARK    6  A    between atoms: C_18  and  O_19
REMARK    7  A    between atoms: N_22  and  C_23
REMARK    8  A    between atoms: C_26  and  O_27
REMARK    9  A    between atoms: C_28  and  C_29
REMARK   10  A    between atoms: C_29  and  O_31
REMARK                            x       y       z     vdW  Elec       q    Type
REMARK                         _______ _______ _______ _____ _____    ______ ____
ROOT
ATOM      1  C   UNL     1      -0.921  12.596  20.276  0.00  0.00    +0.000 C 
ATOM      2  C   UNL     1      -0.801  11.134  19.966  0.00  0.00    +0.000 C 
ATOM      3  C   UNL     1      -0.579  10.403  21.070  0.00  0.00    +0.000 C 
ATOM      4  C   UNL     1      -0.597  11.327  22.235  0.00  0.00    +0.000 C 
ATOM      5  O   UNL     1      -0.461  10.965  23.392  0.00  0.00    +0.000 OA
ATOM      6  N   UNL     1      -0.855  12.600  21.729  0.00  0.00    +0.000 N 
ENDROOT
BRANCH   1  10
ATOM      7  C   UNL     1       2.159  15.109  18.508  0.00  0.00    +0.000 A 
ATOM      8  C   UNL     1       0.829  15.531  18.538  0.00  0.00    +0.000 A 
ATOM      9  C   UNL     1      -0.155  14.705  19.088  0.00  0.00    +0.000 A 
ATOM     10  C   UNL     1       0.175  13.458  19.650  0.00  0.00    +0.000 A 
ATOM     11  C   UNL     1       1.529  13.075  19.665  0.00  0.00    +0.000 A 
ATOM     12  C   UNL     1       2.514  13.890  19.094  0.00  0.00    +0.000 A 
BRANCH   7  14
ATOM     13  O   UNL     1       3.179  17.203  18.025  0.00  0.00    +0.000 OA
ATOM     14  C   UNL     1       3.163  15.995  17.870  0.00  0.00    +0.000 C 
BRANCH  14  15
ATOM     15  O   UNL     1       4.016  15.338  17.056  0.00  0.00    +0.000 OA
ATOM     16  H   UNL     1       3.719  14.451  16.778  0.00  0.00    +0.000 HD
ENDBRANCH  14  15
ENDBRANCH   7  14
ENDBRANCH   1  10
BRANCH   6  17
ATOM     17  C   UNL     1      -1.077  13.755  22.527  0.00  0.00    +0.000 A 
ATOM     18  C   UNL     1      -0.058  14.694  22.710  0.00  0.00    +0.000 A 
ATOM     19  C   UNL     1      -0.277  15.864  23.444  0.00  0.00    +0.000 A 
ATOM     20  C   UNL     1      -1.520  16.095  24.027  0.00  0.00    +0.000 A 
ATOM     21  C   UNL     1      -2.546  15.158  23.898  0.00  0.00    +0.000 A 
ATOM     22  C   UNL     1      -2.313  13.993  23.141  0.00  0.00    +0.000 A 
BRANCH  20  23
ATOM     23  O   UNL     1      -1.724  17.252  24.732  0.00  0.00    +0.000 OA
ATOM     24  H   UNL     1      -0.958  17.392  25.324  0.00  0.00    +0.000 HD
ENDBRANCH  20  23
BRANCH  21  25
ATOM     25  C   UNL     1      -3.898  15.305  24.516  0.00  0.00    +0.000 C 
ATOM     26  O   UNL     1      -4.302  16.376  24.947  0.00  0.00    +0.000 OA
BRANCH  25  27
ATOM     27  O   UNL     1      -4.640  14.182  24.558  0.00  0.00    +0.000 OA
ATOM     28  H   UNL     1      -4.966  13.911  23.669  0.00  0.00    +0.000 HD
ENDBRANCH  25  27
ENDBRANCH  21  25
ENDBRANCH   6  17
BRANCH   2  29
ATOM     29  C   UNL     1      -0.785  10.485  18.635  0.00  0.00    +0.000 C 
ATOM     30  O   UNL     1       0.205   9.829  18.303  0.00  0.00    +0.000 OA
BRANCH  29  31
ATOM     31  C   UNL     1      -1.922  10.612  17.692  0.00  0.00    +0.000 A 
ATOM     32  C   UNL     1      -1.909   9.820  16.534  0.00  0.00    +0.000 A 
ATOM     33  C   UNL     1      -2.976   9.869  15.632  0.00  0.00    +0.000 A 
ATOM     34  C   UNL     1      -4.054  10.718  15.877  0.00  0.00    +0.000 A 
ATOM     35  C   UNL     1      -4.083  11.494  17.032  0.00  0.00    +0.000 A 
ATOM     36  C   UNL     1      -3.035  11.418  17.952  0.00  0.00    +0.000 A 
ENDBRANCH  29  31
ENDBRANCH   2  29
BRANCH   3  37
ATOM     37  O   UNL     1      -0.365   9.056  21.168  0.00  0.00    +0.000 OA
ATOM     38  H   UNL     1       0.411   8.838  20.610  0.00  0.00    +0.000 HD
ENDBRANCH   3  37
TORSDOF 10
ENDMDL
MODEL 4
REMARK VINA RESULT:      -6.1      3.179      6.888
REMARK  Name = 
REMARK  10 active torsions:
REMARK  status: ('A' for Active; 'I' for Inactive)
REMARK    1  A    between atoms: C_2  and  O_3
REMARK    2  A    between atoms: C_2  and  C_4
REMARK    3  A    between atoms: C_7  and  C_8
REMARK    4  A    between atoms: C_9  and  C_10
REMARK    5  A    between atoms: C_10  and  C_12
REMARK    6  A    between atoms: C_18  and  O_19
REMARK    7  A    between atoms: N_22  and  C_23
REMARK    8  A    between atoms: C_26  and  O_27
REMARK    9  A    between atoms: C_28  and  C_29
REMARK   10  A    between atoms: C_29  and  O_31
REMARK                            x       y       z     vdW  Elec       q    Type
REMARK                         _______ _______ _______ _____ _____    ______ ____
ROOT
ATOM      1  C   UNL     1      -1.536  12.453  20.509  0.00  0.00    +0.000 C 
ATOM      2  C   UNL     1      -0.978  11.136  20.060  0.00  0.00    +0.000 C 
ATOM      3  C   UNL     1      -0.527  10.404  21.091  0.00  0.00    +0.000 C 
ATOM      4  C   UNL     1      -0.811  11.159  22.340  0.00  0.00    +0.000 C 
ATOM      5  O   UNL     1      -0.555  10.744  23.459  0.00  0.00    +0.000 OA
ATOM      6  N   UNL     1      -1.455  12.334  21.956  0.00  0.00    +0.000 N 
ENDROOT
BRANCH   1  10
ATOM      7  C   UNL     1       0.610  15.950  19.064  0.00  0.00    +0.000 A 
ATOM      8  C   UNL     1      -0.738  16.039  19.416  0.00  0.00    +0.000 A 
ATOM      9  C   UNL     1      -1.422  14.904  19.858  0.00  0.00    +0.000 A 
ATOM     10  C   UNL     1      -0.766  13.666  19.989  0.00  0.00    +0.000 A 
ATOM     11  C   UNL     1       0.607  13.608  19.686  0.00  0.00    +0.000 A 
ATOM     12  C   UNL     1       1.290  14.739  19.222  0.00  0.00    +0.000 A 
BRANCH   7  14
ATOM     13  O   UNL     1       2.353  17.567  18.981  0.00  0.00    +0.000 OA
ATOM     14  C   UNL     1       1.284  17.168  18.553  0.00  0.00    +0.000 C 
BRANCH  14  15
ATOM     15  O   UNL     1       0.570  17.820  17.611  0.00  0.00    +0.000 OA
ATOM     16  H   UNL     1      -0.085  17.273  17.139  0.00  0.00    +0.000 HD
ENDBRANCH  14  15
ENDBRANCH   7  14
ENDBRANCH   1  10
BRANCH   6  17
ATOM     17  C   UNL     1      -2.009  13.282  22.859  0.00  0.00    +0.000 A 
ATOM     18  C   UNL     1      -3.394  13.461  22.933  0.00  0.00    +0.000 A 
ATOM     19  C   UNL     1      -3.959  14.346  23.855  0.00  0.00    +0.000 A 
ATOM     20  C   UNL     1      -3.138  15.085  24.702  0.00  0.00    +0.000 A 
ATOM     21  C   UNL     1      -1.750  14.960  24.626  0.00  0.00    +0.000 A 
ATOM     22  C   UNL     1      -1.198  14.050  23.703  0.00  0.00    +0.000 A 
BRANCH  20  23
ATOM     23  O   UNL     1      -3.707  15.939  25.611  0.00  0.00    +0.000 OA
ATOM     24  H   UNL     1      -3.465  16.855  25.367  0.00  0.00    +0.000 HD
ENDBRANCH  20  23
BRANCH  21  25
ATOM     25  C   UNL     1      -0.791  15.735  25.469  0.00  0.00    +0.000 C 
ATOM     26  O   UNL     1       0.183  16.300  24.992  0.00  0.00    +0.000 OA
BRANCH  25  27
ATOM     27  O   UNL     1      -1.078  15.774  26.785  0.00  0.00    +0.000 OA
ATOM     28  H   UNL     1      -1.842  15.199  27.022  0.00  0.00    +0.000 HD
ENDBRANCH  25  27
ENDBRANCH  21  25
ENDBRANCH   6  17
BRANCH   2  29
ATOM     29  C   UNL     1      -0.782  10.656  18.672  0.00  0.00    +0.000 C 
ATOM     30  O   UNL     1       0.326  10.229  18.340  0.00  0.00    +0.000 OA
BRANCH  29  31
ATOM     31  C   UNL     1      -1.878  10.686  17.676  0.00  0.00    +0.000 A 
ATOM     32  C   UNL     1      -1.812   9.792  16.596  0.00  0.00    +0.000 A 
ATOM     33  C   UNL     1      -2.839   9.749  15.650  0.00  0.00    +0.000 A 
ATOM     34  C   UNL     1      -3.932  10.606  15.770  0.00  0.00    +0.000 A 
ATOM     35  C   UNL     1      -4.014  11.483  16.848  0.00  0.00    +0.000 A 
ATOM     36  C   UNL     1      -3.006  11.501  17.814  0.00  0.00    +0.000 A 
ENDBRANCH  29  31
ENDBRANCH   2  29
BRANCH   3  37
ATOM     37  O   UNL     1       0.091   9.184  21.062  0.00  0.00    +0.000 OA
ATOM     38  H   UNL     1       0.889   9.243  21.629  0.00  0.00    +0.000 HD
ENDBRANCH   3  37
TORSDOF 10
ENDMDL
MODEL 5
REMARK VINA RESULT:      -6.1      3.103      7.702
REMARK  Name = 
REMARK  10 active torsions:
REMARK  status: ('A' for Active; 'I' for Inactive)
REMARK    1  A    between atoms: C_2  and  O_3
REMARK    2  A    between atoms: C_2  and  C_4
REMARK    3  A    between atoms: C_7  and  C_8
REMARK    4  A    between atoms: C_9  and  C_10
REMARK    5  A    between atoms: C_10  and  C_12
REMARK    6  A    between atoms: C_18  and  O_19
REMARK    7  A    between atoms: N_22  and  C_23
REMARK    8  A    between atoms: C_26  and  O_27
REMARK    9  A    between atoms: C_28  and  C_29
REMARK   10  A    between atoms: C_29  and  O_31
REMARK                            x       y       z     vdW  Elec       q    Type
REMARK                         _______ _______ _______ _____ _____    ______ ____
ROOT
ATOM      1  C   UNL     1      -1.523  11.480  19.444  0.00  0.00    +0.000 C 
ATOM      2  C   UNL     1      -0.149  12.080  19.429  0.00  0.00    +0.000 C 
ATOM      3  C   UNL     1      -0.160  13.371  19.798  0.00  0.00    +0.000 C 
ATOM      4  C   UNL     1      -1.559  13.726  20.157  0.00  0.00    +0.000 C 
ATOM      5  O   UNL     1      -1.898  14.823  20.570  0.00  0.00    +0.000 OA
ATOM      6  N   UNL     1      -2.319  12.570  19.988  0.00  0.00    +0.000 N 
ENDROOT
BRANCH   1  10
ATOM      7  C   UNL     1      -2.909  10.261  15.505  0.00  0.00    +0.000 A 
ATOM      8  C   UNL     1      -2.529  11.582  15.747  0.00  0.00    +0.000 A 
ATOM      9  C   UNL     1      -2.106  11.967  17.022  0.00  0.00    +0.000 A 
ATOM     10  C   UNL     1      -2.023  11.033  18.071  0.00  0.00    +0.000 A 
ATOM     11  C   UNL     1      -2.354   9.693  17.795  0.00  0.00    +0.000 A 
ATOM     12  C   UNL     1      -2.799   9.310  16.524  0.00  0.00    +0.000 A 
BRANCH   7  14
ATOM     13  O   UNL     1      -4.572   9.703  13.898  0.00  0.00    +0.000 OA
ATOM     14  C   UNL     1      -3.398   9.908  14.150  0.00  0.00    +0.000 C 
BRANCH  14  15
ATOM     15  O   UNL     1      -2.409   9.779  13.241  0.00  0.00    +0.000 OA
ATOM     16  H   UNL     1      -2.041   8.880  13.157  0.00  0.00    +0.000 HD
ENDBRANCH  14  15
ENDBRANCH   7  14
ENDBRANCH   1  10
BRANCH   6  17
ATOM     17  C   UNL     1      -3.689  12.446  20.344  0.00  0.00    +0.000 A 
ATOM     18  C   UNL     1      -4.111  12.741  21.643  0.00  0.00    +0.000 A 
ATOM     19  C   UNL     1      -5.463  12.680  21.995  0.00  0.00    +0.000 A 
ATOM     20  C   UNL     1      -6.410  12.296  21.050  0.00  0.00    +0.000 A 
ATOM     21  C   UNL     1      -6.017  11.954  19.755  0.00  0.00    +0.000 A 
ATOM     22  C   UNL     1      -4.653  12.038  19.413  0.00  0.00    +0.000 A 
BRANCH  20  23
ATOM     23  O   UNL     1      -7.732  12.253  21.406  0.00  0.00    +0.000 OA
ATOM     24  H   UNL     1      -8.255  12.687  20.702  0.00  0.00    +0.000 HD
ENDBRANCH  20  23
BRANCH  21  25
ATOM     25  C   UNL     1      -6.956  11.500  18.687  0.00  0.00    +0.000 C 
ATOM     26  O   UNL     1      -7.200  12.183  17.703  0.00  0.00    +0.000 OA
BRANCH  25  27
ATOM     27  O   UNL     1      -7.507  10.286  18.879  0.00  0.00    +0.000 OA
ATOM     28  H   UNL     1      -6.872   9.552  18.714  0.00  0.00    +0.000 HD
ENDBRANCH  25  27
ENDBRANCH  21  25
ENDBRANCH   6  17
BRANCH   2  29
ATOM     29  C   UNL     1       1.111  11.458  18.960  0.00  0.00    +0.000 C 
ATOM     30  O   UNL     1       1.941  12.158  18.376  0.00  0.00    +0.000 OA
BRANCH  29  31
ATOM     31  C   UNL     1       1.392  10.018  19.167  0.00  0.00    +0.000 A 
ATOM     32  C   UNL     1       1.914   9.286  18.090  0.00  0.00    +0.000 A 
ATOM     33  C   UNL     1       2.236   7.934  18.243  0.00  0.00    +0.000 A 
ATOM     34  C   UNL     1       2.028   7.305  19.469  0.00  0.00    +0.000 A 
ATOM     35  C   UNL     1       1.528   8.028  20.548  0.00  0.00    +0.000 A 
ATOM     36  C   UNL     1       1.240   9.387  20.406  0.00  0.00    +0.000 A 
ENDBRANCH  29  31
ENDBRANCH   2  29
BRANCH   3  37
ATOM     37  O   UNL     1       0.886  14.250  19.850  0.00  0.00    +0.000 OA
ATOM     38  H   UNL     1       1.715  13.724  19.839  0.00  0.00    +0.000 HD
ENDBRANCH   3  37
TORSDOF 10
ENDMDL
MODEL 6
REMARK VINA RESULT:      -6.1      2.709      6.796
REMARK  Name = 
REMARK  10 active torsions:
REMARK  status: ('A' for Active; 'I' for Inactive)
REMARK    1  A    between atoms: C_2  and  O_3
REMARK    2  A    between atoms: C_2  and  C_4
REMARK    3  A    between atoms: C_7  and  C_8
REMARK    4  A    between atoms: C_9  and  C_10
REMARK    5  A    between atoms: C_10  and  C_12
REMARK    6  A    between atoms: C_18  and  O_19
REMARK    7  A    between atoms: N_22  and  C_23
REMARK    8  A    between atoms: C_26  and  O_27
REMARK    9  A    between atoms: C_28  and  C_29
REMARK   10  A    between atoms: C_29  and  O_31
REMARK                            x       y       z     vdW  Elec       q    Type
REMARK                         _______ _______ _______ _____ _____    ______ ____
ROOT
ATOM      1  C   UNL     1      -0.959  12.649  20.293  0.00  0.00    +0.000 C 
ATOM      2  C   UNL     1      -0.804  11.192  19.977  0.00  0.00    +0.000 C 
ATOM      3  C   UNL     1      -0.574  10.461  21.080  0.00  0.00    +0.000 C 
ATOM      4  C   UNL     1      -0.621  11.378  22.249  0.00  0.00    +0.000 C 
ATOM      5  O   UNL     1      -0.486  11.014  23.406  0.00  0.00    +0.000 OA
ATOM      6  N   UNL     1      -0.904  12.647  21.747  0.00  0.00    +0.000 N 
ENDROOT
BRANCH   1  10
ATOM      7  C   UNL     1       2.158  15.121  18.533  0.00  0.00    +0.000 A 
ATOM      8  C   UNL     1       2.469  13.887  19.105  0.00  0.00    +0.000 A 
ATOM      9  C   UNL     1       1.462  13.112  19.687  0.00  0.00    +0.000 A 
ATOM     10  C   UNL     1       0.122  13.539  19.679  0.00  0.00    +0.000 A 
ATOM     11  C   UNL     1      -0.183  14.758  19.045  0.00  0.00    +0.000 A 
ATOM     12  C   UNL     1       0.827  15.547  18.481  0.00  0.00    +0.000 A 
BRANCH   7  14
ATOM     13  O   UNL     1       3.462  17.095  18.281  0.00  0.00    +0.000 OA
ATOM     14  C   UNL     1       3.264  15.934  17.971  0.00  0.00    +0.000 C 
BRANCH  14  15
ATOM     15  O   UNL     1       3.990  15.279  17.041  0.00  0.00    +0.000 OA
ATOM     16  H   UNL     1       3.867  15.592  16.126  0.00  0.00    +0.000 HD
ENDBRANCH  14  15
ENDBRANCH   7  14
ENDBRANCH   1  10
BRANCH   6  17
ATOM     17  C   UNL     1      -1.159  13.794  22.548  0.00  0.00    +0.000 A 
ATOM     18  C   UNL     1      -0.150  14.733  22.777  0.00  0.00    +0.000 A 
ATOM     19  C   UNL     1      -0.399  15.895  23.515  0.00  0.00    +0.000 A 
ATOM     20  C   UNL     1      -1.663  16.117  24.056  0.00  0.00    +0.000 A 
ATOM     21  C   UNL     1      -2.681  15.179  23.880  0.00  0.00    +0.000 A 
ATOM     22  C   UNL     1      -2.417  14.022  23.119  0.00  0.00    +0.000 A 
BRANCH  20  23
ATOM     23  O   UNL     1      -1.896  17.266  24.765  0.00  0.00    +0.000 OA
ATOM     24  H   UNL     1      -1.329  17.975  24.399  0.00  0.00    +0.000 HD
ENDBRANCH  20  23
BRANCH  21  25
ATOM     25  C   UNL     1      -4.054  15.315  24.450  0.00  0.00    +0.000 C 
ATOM     26  O   UNL     1      -4.457  16.366  24.928  0.00  0.00    +0.000 OA
BRANCH  25  27
ATOM     27  O   UNL     1      -4.817  14.207  24.393  0.00  0.00    +0.000 OA
ATOM     28  H   UNL     1      -4.287  13.380  24.455  0.00  0.00    +0.000 HD
ENDBRANCH  25  27
ENDBRANCH  21  25
ENDBRANCH   6  17
BRANCH   2  29
ATOM     29  C   UNL     1      -0.763  10.549  18.644  0.00  0.00    +0.000 C 
ATOM     30  O   UNL     1       0.268   9.971  18.291  0.00  0.00    +0.000 OA
BRANCH  29  31
ATOM     31  C   UNL     1      -1.922  10.592  17.722  0.00  0.00    +0.000 A 
ATOM     32  C   UNL     1      -2.978  11.465  18.029  0.00  0.00    +0.000 A 
ATOM     33  C   UNL     1      -4.076  11.574  17.172  0.00  0.00    +0.000 A 
ATOM     34  C   UNL     1      -4.133  10.805  16.012  0.00  0.00    +0.000 A 
ATOM     35  C   UNL     1      -3.083   9.950  15.691  0.00  0.00    +0.000 A 
ATOM     36  C   UNL     1      -1.967   9.867  16.527  0.00  0.00    +0.000 A 
ENDBRANCH  29  31
ENDBRANCH   2  29
BRANCH   3  37
ATOM     37  O   UNL     1      -0.330   9.118  21.174  0.00  0.00    +0.000 OA
ATOM     38  H   UNL     1      -1.197   8.660  21.177  0.00  0.00    +0.000 HD
ENDBRANCH   3  37
TORSDOF 10
ENDMDL
MODEL 7
REMARK VINA RESULT:      -6.1      2.961      6.640
REMARK  Name = 
REMARK  10 active torsions:
REMARK  status: ('A' for Active; 'I' for Inactive)
REMARK    1  A    between atoms: C_2  and  O_3
REMARK    2  A    between atoms: C_2  and  C_4
REMARK    3  A    between atoms: C_7  and  C_8
REMARK    4  A    between atoms: C_9  and  C_10
REMARK    5  A    between atoms: C_10  and  C_12
REMARK    6  A    between atoms: C_18  and  O_19
REMARK    7  A    between atoms: N_22  and  C_23
REMARK    8  A    between atoms: C_26  and  O_27
REMARK    9  A    between atoms: C_28  and  C_29
REMARK   10  A    between atoms: C_29  and  O_31
REMARK                            x       y       z     vdW  Elec       q    Type
REMARK                         _______ _______ _______ _____ _____    ______ ____
ROOT
ATOM      1  C   UNL     1      -1.174  12.378  20.465  0.00  0.00    +0.000 C 
ATOM      2  C   UNL     1      -0.827  10.984  20.034  0.00  0.00    +0.000 C 
ATOM      3  C   UNL     1      -0.442  10.220  21.068  0.00  0.00    +0.000 C 
ATOM      4  C   UNL     1      -0.565  11.037  22.304  0.00  0.00    +0.000 C 
ATOM      5  O   UNL     1      -0.324  10.616  23.425  0.00  0.00    +0.000 OA
ATOM      6  N   UNL     1      -1.051  12.282  21.911  0.00  0.00    +0.000 N 
ENDROOT
BRANCH   1  10
ATOM      7  C   UNL     1       1.470  15.397  18.786  0.00  0.00    +0.000 A 
ATOM      8  C   UNL     1       1.985  14.198  19.280  0.00  0.00    +0.000 A 
ATOM      9  C   UNL     1       1.128  13.245  19.837  0.00  0.00    +0.000 A 
ATOM     10  C   UNL     1      -0.262  13.457  19.881  0.00  0.00    +0.000 A 
ATOM     11  C   UNL     1      -0.770  14.646  19.325  0.00  0.00    +0.000 A 
ATOM     12  C   UNL     1       0.088  15.612  18.786  0.00  0.00    +0.000 A 
BRANCH   7  14
ATOM     13  O   UNL     1       2.323  17.596  18.470  0.00  0.00    +0.000 OA
ATOM     14  C   UNL     1       2.420  16.402  18.249  0.00  0.00    +0.000 C 
BRANCH  14  15
ATOM     15  O   UNL     1       3.365  15.869  17.446  0.00  0.00    +0.000 OA
ATOM     16  H   UNL     1       3.027  15.456  16.630  0.00  0.00    +0.000 HD
ENDBRANCH  14  15
ENDBRANCH   7  14
ENDBRANCH   1  10
BRANCH   6  17
ATOM     17  C   UNL     1      -1.428  13.320  22.806  0.00  0.00    +0.000 A 
ATOM     18  C   UNL     1      -2.650  13.259  23.483  0.00  0.00    +0.000 A 
ATOM     19  C   UNL     1      -3.011  14.241  24.411  0.00  0.00    +0.000 A 
ATOM     20  C   UNL     1      -2.159  15.315  24.653  0.00  0.00    +0.000 A 
ATOM     21  C   UNL     1      -0.951  15.428  23.963  0.00  0.00    +0.000 A 
ATOM     22  C   UNL     1      -0.595  14.420  23.045  0.00  0.00    +0.000 A 
BRANCH  20  23
ATOM     23  O   UNL     1      -2.521  16.263  25.574  0.00  0.00    +0.000 OA
ATOM     24  H   UNL     1      -3.237  15.896  26.130  0.00  0.00    +0.000 HD
ENDBRANCH  20  23
BRANCH  21  25
ATOM     25  C   UNL     1       0.008  16.559  24.132  0.00  0.00    +0.000 C 
ATOM     26  O   UNL     1       0.268  17.332  23.221  0.00  0.00    +0.000 OA
BRANCH  25  27
ATOM     27  O   UNL     1       0.559  16.674  25.356  0.00  0.00    +0.000 OA
ATOM     28  H   UNL     1       0.213  16.004  25.990  0.00  0.00    +0.000 HD
ENDBRANCH  25  27
ENDBRANCH  21  25
ENDBRANCH   6  17
BRANCH   2  29
ATOM     29  C   UNL     1      -0.757  10.450  18.654  0.00  0.00    +0.000 C 
ATOM     30  O   UNL     1       0.273   9.882  18.286  0.00  0.00    +0.000 OA
BRANCH  29  31
ATOM     31  C   UNL     1      -1.888  10.589  17.707  0.00  0.00    +0.000 A 
ATOM     32  C   UNL     1      -1.892   9.780  16.560  0.00  0.00    +0.000 A 
ATOM     33  C   UNL     1      -2.955   9.841  15.656  0.00  0.00    +0.000 A 
ATOM     34  C   UNL     1      -4.014  10.718  15.885  0.00  0.00    +0.000 A 
ATOM     35  C   UNL     1      -4.027  11.510  17.029  0.00  0.00    +0.000 A 
ATOM     36  C   UNL     1      -2.984  11.424  17.952  0.00  0.00    +0.000 A 
ENDBRANCH  29  31
ENDBRANCH   2  29
BRANCH   3  37
ATOM     37  O   UNL     1      -0.004   8.925  21.051  0.00  0.00    +0.000 OA
ATOM     38  H   UNL     1       0.946   8.930  21.296  0.00  0.00    +0.000 HD
ENDBRANCH   3  37
TORSDOF 10
ENDMDL
MODEL 8
REMARK VINA RESULT:      -6.1      2.893      6.915
REMARK  Name = 
REMARK  10 active torsions:
REMARK  status: ('A' for Active; 'I' for Inactive)
REMARK    1  A    between atoms: C_2  and  O_3
REMARK    2  A    between atoms: C_2  and  C_4
REMARK    3  A    between atoms: C_7  and  C_8
REMARK    4  A    between atoms: C_9  and  C_10
REMARK    5  A    between atoms: C_10  and  C_12
REMARK    6  A    between atoms: C_18  and  O_19
REMARK    7  A    between atoms: N_22  and  C_23
REMARK    8  A    between atoms: C_26  and  O_27
REMARK    9  A    between atoms: C_28  and  C_29
REMARK   10  A    between atoms: C_29  and  O_31
REMARK                            x       y       z     vdW  Elec       q    Type
REMARK                         _______ _______ _______ _____ _____    ______ ____
ROOT
ATOM      1  C   UNL     1      -1.290  12.496  20.422  0.00  0.00    +0.000 C 
ATOM      2  C   UNL     1      -0.893  11.112  20.004  0.00  0.00    +0.000 C 
ATOM      3  C   UNL     1      -0.523  10.358  21.051  0.00  0.00    +0.000 C 
ATOM      4  C   UNL     1      -0.707  11.172  22.282  0.00  0.00    +0.000 C 
ATOM      5  O   UNL     1      -0.491  10.758  23.410  0.00  0.00    +0.000 OA
ATOM      6  N   UNL     1      -1.211  12.404  21.872  0.00  0.00    +0.000 N 
ENDROOT
BRANCH   1  10
ATOM      7  C   UNL     1       1.329  15.581  18.825  0.00  0.00    +0.000 A 
ATOM      8  C   UNL     1       1.858  14.395  19.336  0.00  0.00    +0.000 A 
ATOM      9  C   UNL     1       1.008  13.421  19.866  0.00  0.00    +0.000 A 
ATOM     10  C   UNL     1      -0.388  13.598  19.867  0.00  0.00    +0.000 A 
ATOM     11  C   UNL     1      -0.908  14.774  19.294  0.00  0.00    +0.000 A 
ATOM     12  C   UNL     1      -0.057  15.761  18.782  0.00  0.00    +0.000 A 
BRANCH   7  14
ATOM     13  O   UNL     1       2.999  16.429  17.359  0.00  0.00    +0.000 OA
ATOM     14  C   UNL     1       2.270  16.609  18.318  0.00  0.00    +0.000 C 
BRANCH  14  15
ATOM     15  O   UNL     1       2.281  17.737  19.059  0.00  0.00    +0.000 OA
ATOM     16  H   UNL     1       2.588  18.535  18.590  0.00  0.00    +0.000 HD
ENDBRANCH  14  15
ENDBRANCH   7  14
ENDBRANCH   1  10
BRANCH   6  17
ATOM     17  C   UNL     1      -1.644  13.432  22.753  0.00  0.00    +0.000 A 
ATOM     18  C   UNL     1      -0.713  14.274  23.367  0.00  0.00    +0.000 A 
ATOM     19  C   UNL     1      -1.125  15.327  24.191  0.00  0.00    +0.000 A 
ATOM     20  C   UNL     1      -2.481  15.533  24.430  0.00  0.00    +0.000 A 
ATOM     21  C   UNL     1      -3.434  14.685  23.864  0.00  0.00    +0.000 A 
ATOM     22  C   UNL     1      -3.002  13.641  23.023  0.00  0.00    +0.000 A 
BRANCH  20  23
ATOM     23  O   UNL     1      -2.870  16.576  25.228  0.00  0.00    +0.000 OA
ATOM     24  H   UNL     1      -2.439  17.392  24.902  0.00  0.00    +0.000 HD
ENDBRANCH  20  23
BRANCH  21  25
ATOM     25  C   UNL     1      -4.905  14.808  24.090  0.00  0.00    +0.000 C 
ATOM     26  O   UNL     1      -5.483  15.885  24.032  0.00  0.00    +0.000 OA
BRANCH  25  27
ATOM     27  O   UNL     1      -5.549  13.655  24.355  0.00  0.00    +0.000 OA
ATOM     28  H   UNL     1      -5.684  13.510  25.320  0.00  0.00    +0.000 HD
ENDBRANCH  25  27
ENDBRANCH  21  25
ENDBRANCH   6  17
BRANCH   2  29
ATOM     29  C   UNL     1      -0.766  10.579  18.628  0.00  0.00    +0.000 C 
ATOM     30  O   UNL     1       0.303  10.068  18.283  0.00  0.00    +0.000 OA
BRANCH  29  31
ATOM     31  C   UNL     1      -1.883  10.650  17.658  0.00  0.00    +0.000 A 
ATOM     32  C   UNL     1      -1.860   9.778  16.559  0.00  0.00    +0.000 A 
ATOM     33  C   UNL     1      -2.910   9.776  15.636  0.00  0.00    +0.000 A 
ATOM     34  C   UNL     1      -3.981  10.652  15.799  0.00  0.00    +0.000 A 
ATOM     35  C   UNL     1      -4.021  11.507  16.896  0.00  0.00    +0.000 A 
ATOM     36  C   UNL     1      -2.991  11.485  17.839  0.00  0.00    +0.000 A 
ENDBRANCH  29  31
ENDBRANCH   2  29
BRANCH   3  37
ATOM     37  O   UNL     1      -0.052   9.074  21.050  0.00  0.00    +0.000 OA
ATOM     38  H   UNL     1       0.913   9.113  20.878  0.00  0.00    +0.000 HD
ENDBRANCH   3  37
TORSDOF 10
ENDMDL
MODEL 9
REMARK VINA RESULT:      -6.0      2.839      6.859
REMARK  Name = 
REMARK  10 active torsions:
REMARK  status: ('A' for Active; 'I' for Inactive)
REMARK    1  A    between atoms: C_2  and  O_3
REMARK    2  A    between atoms: C_2  and  C_4
REMARK    3  A    between atoms: C_7  and  C_8
REMARK    4  A    between atoms: C_9  and  C_10
REMARK    5  A    between atoms: C_10  and  C_12
REMARK    6  A    between atoms: C_18  and  O_19
REMARK    7  A    between atoms: N_22  and  C_23
REMARK    8  A    between atoms: C_26  and  O_27
REMARK    9  A    between atoms: C_28  and  C_29
REMARK   10  A    between atoms: C_29  and  O_31
REMARK                            x       y       z     vdW  Elec       q    Type
REMARK                         _______ _______ _______ _____ _____    ______ ____
ROOT
ATOM      1  C   UNL     1      -1.188  12.539  20.360  0.00  0.00    +0.000 C 
ATOM      2  C   UNL     1      -0.853  11.126  19.984  0.00  0.00    +0.000 C 
ATOM      3  C   UNL     1      -0.530  10.384  21.054  0.00  0.00    +0.000 C 
ATOM      4  C   UNL     1      -0.687  11.239  22.261  0.00  0.00    +0.000 C 
ATOM      5  O   UNL     1      -0.503  10.846  23.402  0.00  0.00    +0.000 OA
ATOM      6  N   UNL     1      -1.128  12.483  21.812  0.00  0.00    +0.000 N 
ENDROOT
BRANCH   1  10
ATOM      7  C   UNL     1       1.497  15.557  18.745  0.00  0.00    +0.000 A 
ATOM      8  C   UNL     1       0.122  15.788  18.803  0.00  0.00    +0.000 A 
ATOM      9  C   UNL     1      -0.732  14.802  19.304  0.00  0.00    +0.000 A 
ATOM     10  C   UNL     1      -0.228  13.581  19.786  0.00  0.00    +0.000 A 
ATOM     11  C   UNL     1       1.166  13.388  19.775  0.00  0.00    +0.000 A 
ATOM     12  C   UNL     1       2.023  14.365  19.254  0.00  0.00    +0.000 A 
BRANCH   7  14
ATOM     13  O   UNL     1       3.278  16.371  17.393  0.00  0.00    +0.000 OA
ATOM     14  C   UNL     1       2.362  16.610  18.160  0.00  0.00    +0.000 C 
BRANCH  14  15
ATOM     15  O   UNL     1       2.073  17.850  18.608  0.00  0.00    +0.000 OA
ATOM     16  H   UNL     1       1.828  18.491  17.915  0.00  0.00    +0.000 HD
ENDBRANCH  14  15
ENDBRANCH   7  14
ENDBRANCH   1  10
BRANCH   6  17
ATOM     17  C   UNL     1      -1.520  13.554  22.661  0.00  0.00    +0.000 A 
ATOM     18  C   UNL     1      -0.564  14.438  23.170  0.00  0.00    +0.000 A 
ATOM     19  C   UNL     1      -0.939  15.530  23.959  0.00  0.00    +0.000 A 
ATOM     20  C   UNL     1      -2.280  15.735  24.269  0.00  0.00    +0.000 A 
ATOM     21  C   UNL     1      -3.255  14.848  23.811  0.00  0.00    +0.000 A 
ATOM     22  C   UNL     1      -2.861  13.763  23.003  0.00  0.00    +0.000 A 
BRANCH  20  23
ATOM     23  O   UNL     1      -2.634  16.817  25.032  0.00  0.00    +0.000 OA
ATOM     24  H   UNL     1      -1.961  17.517  24.905  0.00  0.00    +0.000 HD
ENDBRANCH  20  23
BRANCH  21  25
ATOM     25  C   UNL     1      -4.711  14.969  24.120  0.00  0.00    +0.000 C 
ATOM     26  O   UNL     1      -5.274  16.052  24.178  0.00  0.00    +0.000 OA
BRANCH  25  27
ATOM     27  O   UNL     1      -5.358  13.805  24.324  0.00  0.00    +0.000 OA
ATOM     28  H   UNL     1      -5.354  13.227  23.527  0.00  0.00    +0.000 HD
ENDBRANCH  25  27
ENDBRANCH  21  25
ENDBRANCH   6  17
BRANCH   2  29
ATOM     29  C   UNL     1      -0.737  10.551  18.624  0.00  0.00    +0.000 C 
ATOM     30  O   UNL     1       0.339  10.061  18.273  0.00  0.00    +0.000 OA
BRANCH  29  31
ATOM     31  C   UNL     1      -1.876  10.556  17.676  0.00  0.00    +0.000 A 
ATOM     32  C   UNL     1      -2.937  11.441  17.924  0.00  0.00    +0.000 A 
ATOM     33  C   UNL     1      -4.016  11.516  17.039  0.00  0.00    +0.000 A 
ATOM     34  C   UNL     1      -4.048  10.700  15.909  0.00  0.00    +0.000 A 
ATOM     35  C   UNL     1      -2.991   9.833  15.646  0.00  0.00    +0.000 A 
ATOM     36  C   UNL     1      -1.895   9.783  16.510  0.00  0.00    +0.000 A 
ENDBRANCH  29  31
ENDBRANCH   2  29
BRANCH   3  37
ATOM     37  O   UNL     1      -0.121   9.080  21.093  0.00  0.00    +0.000 OA
ATOM     38  H   UNL     1      -0.654   8.622  21.778  0.00  0.00    +0.000 HD
ENDBRANCH   3  37
TORSDOF 10
ENDMDL
