MODEL 1
REMARK VINA RESULT:      -8.0      0.000      0.000
REMARK  Name = 
REMARK  8 active torsions:
REMARK  status: ('A' for Active; 'I' for Inactive)
REMARK    1  A    between atoms: C_1  and  C_2
REMARK    2  A    between atoms: C_2  and  C_3
REMARK    3  A    between atoms: C_3  and  N_4
REMARK    4  A    between atoms: C_3  and  C_24
REMARK    5  A    between atoms: C_5  and  C_7
REMARK    6  A    between atoms: C_9  and  C_10
REMARK    7  A    between atoms: C_16  and  C_17
REMARK    8  A    between atoms: C_28  and  C_29
REMARK                            x       y       z     vdW  Elec       q    Type
REMARK                         _______ _______ _______ _____ _____    ______ ____
ROOT
ATOM      1  C   UNL     1       2.375   6.721  19.869  0.00  0.00    +0.000 A 
ATOM      2  C   UNL     1       3.618   6.844  19.202  0.00  0.00    +0.000 A 
ATOM      3  C   UNL     1       4.262   5.615  19.186  0.00  0.00    +0.000 A 
ATOM      4  N   UNL     1       3.304   4.704  19.574  0.00  0.00    +0.000 N 
ATOM      5  C   UNL     1       2.156   5.356  19.976  0.00  0.00    +0.000 A 
ATOM      6  C   UNL     1       0.961   4.615  20.488  0.00  0.00    +0.000 C 
ATOM      7  O   UNL     1       1.061   3.224  20.148  0.00  0.00    +0.000 OA
ATOM      8  C   UNL     1       2.328   2.676  20.519  0.00  0.00    +0.000 C 
ATOM      9  C   UNL     1       3.413   3.252  19.615  0.00  0.00    +0.000 C 
ENDROOT
BRANCH   3  10
ATOM     10  C   UNL     1       5.631   5.336  18.771  0.00  0.00    +0.000 C 
ATOM     11  O   UNL     1       6.563   5.326  19.574  0.00  0.00    +0.000 OA
ATOM     12  N   UNL     1       5.836   5.058  17.419  0.00  0.00    +0.000 N 
ATOM     13  C   UNL     1       7.105   4.544  16.951  0.00  0.00    +0.000 C 
ATOM     14  C   UNL     1       6.760   3.896  15.620  0.00  0.00    +0.000 C 
ATOM     15  C   UNL     1       5.616   4.738  15.063  0.00  0.00    +0.000 C 
ATOM     16  C   UNL     1       5.005   5.454  16.276  0.00  0.00    +0.000 C 
ATOM     17  C   UNL     1       4.972   6.970  16.091  0.00  0.00    +0.000 C 
ENDBRANCH   3  10
BRANCH   1  19
ATOM     18  N   UNL     1       1.310   8.826  19.468  0.00  0.00    +0.000 N 
ATOM     19  C   UNL     1       1.486   7.776  20.347  0.00  0.00    +0.000 C 
ATOM     20  O   UNL     1       0.982   7.760  21.459  0.00  0.00    +0.000 OA
ATOM     21  H   UNL     1       1.754   8.831  18.561  0.00  0.00    +0.000 HD
BRANCH  18  22
ATOM     22  C   UNL     1       0.493   9.984  19.786  0.00  0.00    +0.000 C 
BRANCH  22  23
ATOM     23  C   UNL     1       1.268  11.273  19.507  0.00  0.00    +0.000 A 
ATOM     24  C   UNL     1       1.862  11.468  18.259  0.00  0.00    +0.000 A 
ATOM     25  C   UNL     1       2.652  12.596  18.051  0.00  0.00    +0.000 A 
ATOM     26  C   UNL     1       2.834  13.502  19.089  0.00  0.00    +0.000 A 
ATOM     27  C   UNL     1       2.204  13.249  20.301  0.00  0.00    +0.000 A 
ATOM     28  N   UNL     1       1.424  12.159  20.530  0.00  0.00    +0.000 NA
BRANCH  27  29
ATOM     29  C   UNL     1       2.365  14.152  21.408  0.00  0.00    +0.000 C 
ATOM     30  N   UNL     1       2.492  14.906  22.283  0.00  0.00    +0.000 NA
ENDBRANCH  27  29
ENDBRANCH  22  23
BRANCH  22  32
ATOM     31  C   UNL     1      -1.661  11.247  19.167  0.00  0.00    +0.000 C 
ATOM     32  C   UNL     1      -0.802  10.010  18.954  0.00  0.00    +0.000 C 
ENDBRANCH  22  32
ENDBRANCH  18  22
ENDBRANCH   1  19
TORSDOF 6
ENDMDL
MODEL 2
REMARK VINA RESULT:      -7.8      7.024      9.818
REMARK  Name = 
REMARK  8 active torsions:
REMARK  status: ('A' for Active; 'I' for Inactive)
REMARK    1  A    between atoms: C_1  and  C_2
REMARK    2  A    between atoms: C_2  and  C_3
REMARK    3  A    between atoms: C_3  and  N_4
REMARK    4  A    between atoms: C_3  and  C_24
REMARK    5  A    between atoms: C_5  and  C_7
REMARK    6  A    between atoms: C_9  and  C_10
REMARK    7  A    between atoms: C_16  and  C_17
REMARK    8  A    between atoms: C_28  and  C_29
REMARK                            x       y       z     vdW  Elec       q    Type
REMARK                         _______ _______ _______ _____ _____    ______ ____
ROOT
ATOM      1  C   UNL     1      -0.616  12.444  18.954  0.00  0.00    +0.000 A 
ATOM      2  C   UNL     1       0.352  13.310  18.392  0.00  0.00    +0.000 A 
ATOM      3  C   UNL     1       0.697  14.285  19.316  0.00  0.00    +0.000 A 
ATOM      4  N   UNL     1       0.172  13.847  20.512  0.00  0.00    +0.000 N 
ATOM      5  C   UNL     1      -0.613  12.730  20.311  0.00  0.00    +0.000 A 
ATOM      6  C   UNL     1      -1.344  12.062  21.433  0.00  0.00    +0.000 C 
ATOM      7  O   UNL     1      -0.822  12.505  22.694  0.00  0.00    +0.000 OA
ATOM      8  C   UNL     1      -0.754  13.931  22.769  0.00  0.00    +0.000 C 
ATOM      9  C   UNL     1       0.340  14.436  21.833  0.00  0.00    +0.000 C 
ENDROOT
BRANCH   3  10
ATOM     10  C   UNL     1       1.510  15.475  19.090  0.00  0.00    +0.000 C 
ATOM     11  O   UNL     1       2.686  15.533  19.447  0.00  0.00    +0.000 OA
ATOM     12  N   UNL     1       0.899  16.541  18.430  0.00  0.00    +0.000 N 
ATOM     13  C   UNL     1       1.677  17.664  17.954  0.00  0.00    +0.000 C 
ATOM     14  C   UNL     1       0.795  18.285  16.885  0.00  0.00    +0.000 C 
ATOM     15  C   UNL     1      -0.632  18.030  17.363  0.00  0.00    +0.000 C 
ATOM     16  C   UNL     1      -0.532  16.853  18.343  0.00  0.00    +0.000 C 
ATOM     17  C   UNL     1      -1.128  17.189  19.708  0.00  0.00    +0.000 C 
ENDBRANCH   3  10
BRANCH   1  19
ATOM     18  N   UNL     1      -2.649  11.929  17.802  0.00  0.00    +0.000 N 
ATOM     19  C   UNL     1      -1.449  11.448  18.286  0.00  0.00    +0.000 C 
ATOM     20  O   UNL     1      -1.137  10.269  18.211  0.00  0.00    +0.000 OA
ATOM     21  H   UNL     1      -2.899  12.903  17.893  0.00  0.00    +0.000 HD
BRANCH  18  22
ATOM     22  C   UNL     1      -3.625  11.078  17.144  0.00  0.00    +0.000 C 
BRANCH  22  23
ATOM     23  C   UNL     1      -5.040  11.454  17.585  0.00  0.00    +0.000 A 
ATOM     24  C   UNL     1      -5.712  12.498  16.946  0.00  0.00    +0.000 A 
ATOM     25  C   UNL     1      -6.956  12.900  17.424  0.00  0.00    +0.000 A 
ATOM     26  C   UNL     1      -7.502  12.256  18.529  0.00  0.00    +0.000 A 
ATOM     27  C   UNL     1      -6.783  11.219  19.108  0.00  0.00    +0.000 A 
ATOM     28  N   UNL     1      -5.569  10.803  18.659  0.00  0.00    +0.000 NA
BRANCH  27  29
ATOM     29  C   UNL     1      -7.302  10.525  20.255  0.00  0.00    +0.000 C 
ATOM     30  N   UNL     1      -7.714   9.938  21.169  0.00  0.00    +0.000 NA
ENDBRANCH  27  29
ENDBRANCH  22  23
BRANCH  22  32
ATOM     31  C   UNL     1      -2.950   9.998  14.909  0.00  0.00    +0.000 C 
ATOM     32  C   UNL     1      -3.548  11.206  15.612  0.00  0.00    +0.000 C 
ENDBRANCH  22  32
ENDBRANCH  18  22
ENDBRANCH   1  19
TORSDOF 6
ENDMDL
MODEL 3
REMARK VINA RESULT:      -7.5      1.913      2.850
REMARK  Name = 
REMARK  8 active torsions:
REMARK  status: ('A' for Active; 'I' for Inactive)
REMARK    1  A    between atoms: C_1  and  C_2
REMARK    2  A    between atoms: C_2  and  C_3
REMARK    3  A    between atoms: C_3  and  N_4
REMARK    4  A    between atoms: C_3  and  C_24
REMARK    5  A    between atoms: C_5  and  C_7
REMARK    6  A    between atoms: C_9  and  C_10
REMARK    7  A    between atoms: C_16  and  C_17
REMARK    8  A    between atoms: C_28  and  C_29
REMARK                            x       y       z     vdW  Elec       q    Type
REMARK                         _______ _______ _______ _____ _____    ______ ____
ROOT
ATOM      1  C   UNL     1       2.492   6.021  19.757  0.00  0.00    +0.000 A 
ATOM      2  C   UNL     1       3.755   6.268  19.168  0.00  0.00    +0.000 A 
ATOM      3  C   UNL     1       4.324   5.068  18.765  0.00  0.00    +0.000 A 
ATOM      4  N   UNL     1       3.303   4.145  18.839  0.00  0.00    +0.000 N 
ATOM      5  C   UNL     1       2.188   4.710  19.425  0.00  0.00    +0.000 A 
ATOM      6  C   UNL     1       0.938   3.924  19.671  0.00  0.00    +0.000 C 
ATOM      7  O   UNL     1       0.962   2.709  18.906  0.00  0.00    +0.000 OA
ATOM      8  C   UNL     1       2.184   1.991  19.089  0.00  0.00    +0.000 C 
ATOM      9  C   UNL     1       3.324   2.752  18.418  0.00  0.00    +0.000 C 
ENDROOT
BRANCH   3  10
ATOM     10  C   UNL     1       5.683   4.846  18.287  0.00  0.00    +0.000 C 
ATOM     11  O   UNL     1       6.626   4.694  19.062  0.00  0.00    +0.000 OA
ATOM     12  N   UNL     1       5.865   4.794  16.904  0.00  0.00    +0.000 N 
ATOM     13  C   UNL     1       7.120   4.350  16.337  0.00  0.00    +0.000 C 
ATOM     14  C   UNL     1       6.748   3.936  14.923  0.00  0.00    +0.000 C 
ATOM     15  C   UNL     1       5.607   4.870  14.532  0.00  0.00    +0.000 C 
ATOM     16  C   UNL     1       5.023   5.383  15.856  0.00  0.00    +0.000 C 
ATOM     17  C   UNL     1       5.008   6.909  15.925  0.00  0.00    +0.000 C 
ENDBRANCH   3  10
BRANCH   1  19
ATOM     18  N   UNL     1       1.707   8.247  20.147  0.00  0.00    +0.000 N 
ATOM     19  C   UNL     1       1.657   6.926  20.543  0.00  0.00    +0.000 C 
ATOM     20  O   UNL     1       1.009   6.553  21.509  0.00  0.00    +0.000 OA
ATOM     21  H   UNL     1       2.266   8.539  19.359  0.00  0.00    +0.000 HD
BRANCH  18  22
ATOM     22  C   UNL     1       0.975   9.297  20.834  0.00  0.00    +0.000 C 
BRANCH  22  23
ATOM     23  C   UNL     1       0.382  10.280  19.823  0.00  0.00    +0.000 A 
ATOM     24  C   UNL     1       0.755  11.625  19.863  0.00  0.00    +0.000 A 
ATOM     25  C   UNL     1       0.131  12.530  19.007  0.00  0.00    +0.000 A 
ATOM     26  C   UNL     1      -0.850  12.076  18.134  0.00  0.00    +0.000 A 
ATOM     27  C   UNL     1      -1.164  10.723  18.142  0.00  0.00    +0.000 A 
ATOM     28  N   UNL     1      -0.568   9.818  18.962  0.00  0.00    +0.000 NA
BRANCH  27  29
ATOM     29  C   UNL     1      -2.175  10.206  17.261  0.00  0.00    +0.000 C 
ATOM     30  N   UNL     1      -2.975   9.794  16.525  0.00  0.00    +0.000 NA
ENDBRANCH  27  29
ENDBRANCH  22  23
BRANCH  22  32
ATOM     31  C   UNL     1      -0.539   9.564  22.897  0.00  0.00    +0.000 C 
ATOM     32  C   UNL     1      -0.176   8.726  21.681  0.00  0.00    +0.000 C 
ENDBRANCH  22  32
ENDBRANCH  18  22
ENDBRANCH   1  19
TORSDOF 6
ENDMDL
MODEL 4
REMARK VINA RESULT:      -7.5      2.147      8.150
REMARK  Name = 
REMARK  8 active torsions:
REMARK  status: ('A' for Active; 'I' for Inactive)
REMARK    1  A    between atoms: C_1  and  C_2
REMARK    2  A    between atoms: C_2  and  C_3
REMARK    3  A    between atoms: C_3  and  N_4
REMARK    4  A    between atoms: C_3  and  C_24
REMARK    5  A    between atoms: C_5  and  C_7
REMARK    6  A    between atoms: C_9  and  C_10
REMARK    7  A    between atoms: C_16  and  C_17
REMARK    8  A    between atoms: C_28  and  C_29
REMARK                            x       y       z     vdW  Elec       q    Type
REMARK                         _______ _______ _______ _____ _____    ______ ____
ROOT
ATOM      1  C   UNL     1       1.797   8.846  18.522  0.00  0.00    +0.000 A 
ATOM      2  C   UNL     1       1.507  10.128  17.997  0.00  0.00    +0.000 A 
ATOM      3  C   UNL     1       0.701  10.825  18.885  0.00  0.00    +0.000 A 
ATOM      4  N   UNL     1       0.742  10.096  20.054  0.00  0.00    +0.000 N 
ATOM      5  C   UNL     1       1.411   8.905  19.853  0.00  0.00    +0.000 A 
ATOM      6  C   UNL     1       1.573   7.893  20.944  0.00  0.00    +0.000 C 
ATOM      7  O   UNL     1       1.287   8.492  22.217  0.00  0.00    +0.000 OA
ATOM      8  C   UNL     1       0.038   9.188  22.207  0.00  0.00    +0.000 C 
ATOM      9  C   UNL     1       0.164  10.441  21.345  0.00  0.00    +0.000 C 
ENDROOT
BRANCH   3  10
ATOM     10  C   UNL     1       0.023  12.096  18.659  0.00  0.00    +0.000 C 
ATOM     11  O   UNL     1      -1.046  12.162  18.055  0.00  0.00    +0.000 OA
ATOM     12  N   UNL     1       0.634  13.238  19.179  0.00  0.00    +0.000 N 
ATOM     13  C   UNL     1      -0.066  14.504  19.213  0.00  0.00    +0.000 C 
ATOM     14  C   UNL     1       0.674  15.293  20.279  0.00  0.00    +0.000 C 
ATOM     15  C   UNL     1       2.119  14.812  20.187  0.00  0.00    +0.000 C 
ATOM     16  C   UNL     1       2.052  13.442  19.498  0.00  0.00    +0.000 C 
ATOM     17  C   UNL     1       2.933  13.382  18.252  0.00  0.00    +0.000 C 
ENDBRANCH   3  10
BRANCH   1  19
ATOM     18  N   UNL     1       2.118   6.476  18.448  0.00  0.00    +0.000 N 
ATOM     19  C   UNL     1       2.381   7.691  17.846  0.00  0.00    +0.000 C 
ATOM     20  O   UNL     1       3.092   7.794  16.859  0.00  0.00    +0.000 OA
ATOM     21  H   UNL     1       1.546   6.414  19.277  0.00  0.00    +0.000 HD
BRANCH  18  22
ATOM     22  C   UNL     1       2.648   5.222  17.942  0.00  0.00    +0.000 C 
BRANCH  22  23
ATOM     23  C   UNL     1       4.175   5.211  18.042  0.00  0.00    +0.000 A 
ATOM     24  C   UNL     1       4.788   5.332  19.291  0.00  0.00    +0.000 A 
ATOM     25  C   UNL     1       6.175   5.427  19.361  0.00  0.00    +0.000 A 
ATOM     26  C   UNL     1       6.920   5.401  18.188  0.00  0.00    +0.000 A 
ATOM     27  C   UNL     1       6.244   5.269  16.982  0.00  0.00    +0.000 A 
ATOM     28  N   UNL     1       4.892   5.170  16.885  0.00  0.00    +0.000 NA
BRANCH  27  29
ATOM     29  C   UNL     1       6.969   5.242  15.740  0.00  0.00    +0.000 C 
ATOM     30  N   UNL     1       7.530   5.209  14.723  0.00  0.00    +0.000 NA
ENDBRANCH  27  29
ENDBRANCH  22  23
BRANCH  22  32
ATOM     31  C   UNL     1       1.304   4.385  19.969  0.00  0.00    +0.000 C 
ATOM     32  C   UNL     1       2.105   4.017  18.730  0.00  0.00    +0.000 C 
ENDBRANCH  22  32
ENDBRANCH  18  22
ENDBRANCH   1  19
TORSDOF 6
ENDMDL
MODEL 5
REMARK VINA RESULT:      -7.4      2.892      9.019
REMARK  Name = 
REMARK  8 active torsions:
REMARK  status: ('A' for Active; 'I' for Inactive)
REMARK    1  A    between atoms: C_1  and  C_2
REMARK    2  A    between atoms: C_2  and  C_3
REMARK    3  A    between atoms: C_3  and  N_4
REMARK    4  A    between atoms: C_3  and  C_24
REMARK    5  A    between atoms: C_5  and  C_7
REMARK    6  A    between atoms: C_9  and  C_10
REMARK    7  A    between atoms: C_16  and  C_17
REMARK    8  A    between atoms: C_28  and  C_29
REMARK                            x       y       z     vdW  Elec       q    Type
REMARK                         _______ _______ _______ _____ _____    ______ ____
ROOT
ATOM      1  C   UNL     1       0.990   9.826  19.017  0.00  0.00    +0.000 A 
ATOM      2  C   UNL     1       1.150  10.565  20.213  0.00  0.00    +0.000 A 
ATOM      3  C   UNL     1       0.196  11.569  20.272  0.00  0.00    +0.000 A 
ATOM      4  N   UNL     1      -0.709  11.263  19.278  0.00  0.00    +0.000 N 
ATOM      5  C   UNL     1      -0.248  10.205  18.520  0.00  0.00    +0.000 A 
ATOM      6  C   UNL     1      -1.010   9.683  17.343  0.00  0.00    +0.000 C 
ATOM      7  O   UNL     1      -2.361  10.168  17.375  0.00  0.00    +0.000 OA
ATOM      8  C   UNL     1      -2.412  11.585  17.560  0.00  0.00    +0.000 C 
ATOM      9  C   UNL     1      -1.970  11.927  18.980  0.00  0.00    +0.000 C 
ENDROOT
BRANCH   3  10
ATOM     10  C   UNL     1       0.119  12.666  21.231  0.00  0.00    +0.000 C 
ATOM     11  O   UNL     1       0.931  13.589  21.226  0.00  0.00    +0.000 OA
ATOM     12  N   UNL     1      -0.935  12.632  22.145  0.00  0.00    +0.000 N 
ATOM     13  C   UNL     1      -1.234  13.778  22.975  0.00  0.00    +0.000 C 
ATOM     14  C   UNL     1      -2.679  13.554  23.389  0.00  0.00    +0.000 C 
ATOM     15  C   UNL     1      -2.828  12.037  23.472  0.00  0.00    +0.000 C 
ATOM     16  C   UNL     1      -1.694  11.465  22.611  0.00  0.00    +0.000 C 
ATOM     17  C   UNL     1      -0.817  10.488  23.390  0.00  0.00    +0.000 C 
ENDBRANCH   3  10
BRANCH   1  19
ATOM     18  N   UNL     1       2.274   7.819  19.235  0.00  0.00    +0.000 N 
ATOM     19  C   UNL     1       1.901   8.860  18.409  0.00  0.00    +0.000 C 
ATOM     20  O   UNL     1       2.344   8.992  17.278  0.00  0.00    +0.000 OA
ATOM     21  H   UNL     1       1.915   7.740  20.175  0.00  0.00    +0.000 HD
BRANCH  18  22
ATOM     22  C   UNL     1       3.205   6.785  18.818  0.00  0.00    +0.000 C 
BRANCH  22  23
ATOM     23  C   UNL     1       2.520   5.416  18.835  0.00  0.00    +0.000 A 
ATOM     24  C   UNL     1       1.967   4.904  17.659  0.00  0.00    +0.000 A 
ATOM     25  C   UNL     1       1.255   3.708  17.708  0.00  0.00    +0.000 A 
ATOM     26  C   UNL     1       1.108   3.051  18.924  0.00  0.00    +0.000 A 
ATOM     27  C   UNL     1       1.694   3.614  20.051  0.00  0.00    +0.000 A 
ATOM     28  N   UNL     1       2.397   4.777  20.031  0.00  0.00    +0.000 NA
BRANCH  27  29
ATOM     29  C   UNL     1       1.566   2.976  21.333  0.00  0.00    +0.000 C 
ATOM     30  N   UNL     1       1.434   2.454  22.363  0.00  0.00    +0.000 NA
ENDBRANCH  27  29
ENDBRANCH  22  23
BRANCH  22  32
ATOM     31  C   UNL     1       5.168   6.578  17.169  0.00  0.00    +0.000 C 
ATOM     32  C   UNL     1       3.737   7.040  17.397  0.00  0.00    +0.000 C 
ENDBRANCH  22  32
ENDBRANCH  18  22
ENDBRANCH   1  19
TORSDOF 6
ENDMDL
MODEL 6
REMARK VINA RESULT:      -7.4      2.276      4.631
REMARK  Name = 
REMARK  8 active torsions:
REMARK  status: ('A' for Active; 'I' for Inactive)
REMARK    1  A    between atoms: C_1  and  C_2
REMARK    2  A    between atoms: C_2  and  C_3
REMARK    3  A    between atoms: C_3  and  N_4
REMARK    4  A    between atoms: C_3  and  C_24
REMARK    5  A    between atoms: C_5  and  C_7
REMARK    6  A    between atoms: C_9  and  C_10
REMARK    7  A    between atoms: C_16  and  C_17
REMARK    8  A    between atoms: C_28  and  C_29
REMARK                            x       y       z     vdW  Elec       q    Type
REMARK                         _______ _______ _______ _____ _____    ______ ____
ROOT
ATOM      1  C   UNL     1       3.231   7.255  18.183  0.00  0.00    +0.000 A 
ATOM      2  C   UNL     1       3.327   6.344  19.262  0.00  0.00    +0.000 A 
ATOM      3  C   UNL     1       4.006   5.206  18.852  0.00  0.00    +0.000 A 
ATOM      4  N   UNL     1       4.567   5.541  17.639  0.00  0.00    +0.000 N 
ATOM      5  C   UNL     1       4.118   6.780  17.228  0.00  0.00    +0.000 A 
ATOM      6  C   UNL     1       4.533   7.381  15.922  0.00  0.00    +0.000 C 
ATOM      7  O   UNL     1       5.678   6.689  15.403  0.00  0.00    +0.000 OA
ATOM      8  C   UNL     1       5.482   5.273  15.392  0.00  0.00    +0.000 C 
ATOM      9  C   UNL     1       5.480   4.751  16.826  0.00  0.00    +0.000 C 
ENDROOT
BRANCH   3  10
ATOM     10  C   UNL     1       4.162   3.954  19.583  0.00  0.00    +0.000 C 
ATOM     11  O   UNL     1       5.256   3.404  19.700  0.00  0.00    +0.000 OA
ATOM     12  N   UNL     1       3.014   3.415  20.165  0.00  0.00    +0.000 N 
ATOM     13  C   UNL     1       3.102   2.313  21.098  0.00  0.00    +0.000 C 
ATOM     14  C   UNL     1       1.794   2.389  21.867  0.00  0.00    +0.000 C 
ATOM     15  C   UNL     1       0.783   2.930  20.861  0.00  0.00    +0.000 C 
ATOM     16  C   UNL     1       1.615   3.633  19.779  0.00  0.00    +0.000 C 
ATOM     17  C   UNL     1       1.316   3.093  18.382  0.00  0.00    +0.000 C 
ENDBRANCH   3  10
BRANCH   1  19
ATOM     18  N   UNL     1       1.875   8.907  19.258  0.00  0.00    +0.000 N 
ATOM     19  C   UNL     1       2.399   8.450  18.066  0.00  0.00    +0.000 C 
ATOM     20  O   UNL     1       2.140   8.970  16.991  0.00  0.00    +0.000 OA
ATOM     21  H   UNL     1       2.083   8.450  20.133  0.00  0.00    +0.000 HD
BRANCH  18  22
ATOM     22  C   UNL     1       0.993  10.059  19.333  0.00  0.00    +0.000 C 
BRANCH  22  23
ATOM     23  C   UNL     1       0.398  10.181  20.737  0.00  0.00    +0.000 A 
ATOM     24  C   UNL     1       0.762   9.265  21.726  0.00  0.00    +0.000 A 
ATOM     25  C   UNL     1       0.136   9.322  22.969  0.00  0.00    +0.000 A 
ATOM     26  C   UNL     1      -0.839  10.287  23.198  0.00  0.00    +0.000 A 
ATOM     27  C   UNL     1      -1.143  11.172  22.171  0.00  0.00    +0.000 A 
ATOM     28  N   UNL     1      -0.544  11.142  20.951  0.00  0.00    +0.000 NA
BRANCH  27  29
ATOM     29  C   UNL     1      -2.146  12.184  22.357  0.00  0.00    +0.000 C 
ATOM     30  N   UNL     1      -2.971  12.985  22.527  0.00  0.00    +0.000 NA
ENDBRANCH  27  29
ENDBRANCH  22  23
BRANCH  22  32
ATOM     31  C   UNL     1       0.858  12.465  18.432  0.00  0.00    +0.000 C 
ATOM     32  C   UNL     1       1.737  11.366  19.010  0.00  0.00    +0.000 C 
ENDBRANCH  22  32
ENDBRANCH  18  22
ENDBRANCH   1  19
TORSDOF 6
ENDMDL
MODEL 7
REMARK VINA RESULT:      -7.4      2.661      8.309
REMARK  Name = 
REMARK  8 active torsions:
REMARK  status: ('A' for Active; 'I' for Inactive)
REMARK    1  A    between atoms: C_1  and  C_2
REMARK    2  A    between atoms: C_2  and  C_3
REMARK    3  A    between atoms: C_3  and  N_4
REMARK    4  A    between atoms: C_3  and  C_24
REMARK    5  A    between atoms: C_5  and  C_7
REMARK    6  A    between atoms: C_9  and  C_10
REMARK    7  A    between atoms: C_16  and  C_17
REMARK    8  A    between atoms: C_28  and  C_29
REMARK                            x       y       z     vdW  Elec       q    Type
REMARK                         _______ _______ _______ _____ _____    ______ ____
ROOT
ATOM      1  C   UNL     1       0.954   9.299  19.881  0.00  0.00    +0.000 A 
ATOM      2  C   UNL     1       0.600  10.018  18.714  0.00  0.00    +0.000 A 
ATOM      3  C   UNL     1      -0.448  10.882  18.999  0.00  0.00    +0.000 A 
ATOM      4  N   UNL     1      -0.531  10.902  20.374  0.00  0.00    +0.000 N 
ATOM      5  C   UNL     1       0.318   9.961  20.921  0.00  0.00    +0.000 A 
ATOM      6  C   UNL     1       0.405   9.734  22.397  0.00  0.00    +0.000 C 
ATOM      7  O   UNL     1      -0.197  10.831  23.101  0.00  0.00    +0.000 OA
ATOM      8  C   UNL     1      -1.503  11.129  22.602  0.00  0.00    +0.000 C 
ATOM      9  C   UNL     1      -1.386  11.736  21.207  0.00  0.00    +0.000 C 
ENDROOT
BRANCH   3  10
ATOM     10  C   UNL     1      -1.236  11.664  18.053  0.00  0.00    +0.000 C 
ATOM     11  O   UNL     1      -1.213  12.893  18.052  0.00  0.00    +0.000 OA
ATOM     12  N   UNL     1      -2.004  10.951  17.132  0.00  0.00    +0.000 N 
ATOM     13  C   UNL     1      -2.632  11.621  16.014  0.00  0.00    +0.000 C 
ATOM     14  C   UNL     1      -2.885  10.500  15.020  0.00  0.00    +0.000 C 
ATOM     15  C   UNL     1      -3.147   9.268  15.882  0.00  0.00    +0.000 C 
ATOM     16  C   UNL     1      -2.520   9.582  17.247  0.00  0.00    +0.000 C 
ATOM     17  C   UNL     1      -3.526   9.444  18.388  0.00  0.00    +0.000 C 
ENDBRANCH   3  10
BRANCH   1  19
ATOM     18  N   UNL     1       2.511   7.794  18.864  0.00  0.00    +0.000 N 
ATOM     19  C   UNL     1       1.807   8.120  20.005  0.00  0.00    +0.000 C 
ATOM     20  O   UNL     1       1.851   7.442  21.021  0.00  0.00    +0.000 OA
ATOM     21  H   UNL     1       2.444   8.355  18.027  0.00  0.00    +0.000 HD
BRANCH  18  22
ATOM     22  C   UNL     1       3.380   6.633  18.786  0.00  0.00    +0.000 C 
BRANCH  22  23
ATOM     23  C   UNL     1       2.550   5.347  18.814  0.00  0.00    +0.000 A 
ATOM     24  C   UNL     1       1.852   4.947  17.673  0.00  0.00    +0.000 A 
ATOM     25  C   UNL     1       1.018   3.834  17.742  0.00  0.00    +0.000 A 
ATOM     26  C   UNL     1       0.895   3.147  18.943  0.00  0.00    +0.000 A 
ATOM     27  C   UNL     1       1.627   3.596  20.035  0.00  0.00    +0.000 A 
ATOM     28  N   UNL     1       2.452   4.676  19.996  0.00  0.00    +0.000 NA
BRANCH  27  29
ATOM     29  C   UNL     1       1.531   2.922  21.302  0.00  0.00    +0.000 C 
ATOM     30  N   UNL     1       1.475   2.358  22.317  0.00  0.00    +0.000 NA
ENDBRANCH  27  29
ENDBRANCH  22  23
BRANCH  22  32
ATOM     31  C   UNL     1       5.513   5.843  17.585  0.00  0.00    +0.000 C 
ATOM     32  C   UNL     1       4.218   6.636  17.496  0.00  0.00    +0.000 C 
ENDBRANCH  22  32
ENDBRANCH  18  22
ENDBRANCH   1  19
TORSDOF 6
ENDMDL
MODEL 8
REMARK VINA RESULT:      -7.3      2.764      9.143
REMARK  Name = 
REMARK  8 active torsions:
REMARK  status: ('A' for Active; 'I' for Inactive)
REMARK    1  A    between atoms: C_1  and  C_2
REMARK    2  A    between atoms: C_2  and  C_3
REMARK    3  A    between atoms: C_3  and  N_4
REMARK    4  A    between atoms: C_3  and  C_24
REMARK    5  A    between atoms: C_5  and  C_7
REMARK    6  A    between atoms: C_9  and  C_10
REMARK    7  A    between atoms: C_16  and  C_17
REMARK    8  A    between atoms: C_28  and  C_29
REMARK                            x       y       z     vdW  Elec       q    Type
REMARK                         _______ _______ _______ _____ _____    ______ ____
ROOT
ATOM      1  C   UNL     1       1.022   9.737  19.112  0.00  0.00    +0.000 A 
ATOM      2  C   UNL     1       1.175  10.438  20.332  0.00  0.00    +0.000 A 
ATOM      3  C   UNL     1       0.263  11.481  20.387  0.00  0.00    +0.000 A 
ATOM      4  N   UNL     1      -0.622  11.239  19.358  0.00  0.00    +0.000 N 
ATOM      5  C   UNL     1      -0.182  10.181  18.588  0.00  0.00    +0.000 A 
ATOM      6  C   UNL     1      -0.927   9.721  17.374  0.00  0.00    +0.000 C 
ATOM      7  O   UNL     1      -2.256  10.263  17.377  0.00  0.00    +0.000 OA
ATOM      8  C   UNL     1      -2.253  11.676  17.597  0.00  0.00    +0.000 C 
ATOM      9  C   UNL     1      -1.843  11.963  19.038  0.00  0.00    +0.000 C 
ENDROOT
BRANCH   3  10
ATOM     10  C   UNL     1       0.201  12.556  21.371  0.00  0.00    +0.000 C 
ATOM     11  O   UNL     1       1.060  13.435  21.426  0.00  0.00    +0.000 OA
ATOM     12  N   UNL     1      -0.893  12.556  22.238  0.00  0.00    +0.000 N 
ATOM     13  C   UNL     1      -1.167  13.696  23.086  0.00  0.00    +0.000 C 
ATOM     14  C   UNL     1      -2.638  13.539  23.431  0.00  0.00    +0.000 C 
ATOM     15  C   UNL     1      -2.871  12.031  23.467  0.00  0.00    +0.000 C 
ATOM     16  C   UNL     1      -1.731  11.421  22.639  0.00  0.00    +0.000 C 
ATOM     17  C   UNL     1      -0.942  10.378  23.429  0.00  0.00    +0.000 C 
ENDBRANCH   3  10
BRANCH   1  19
ATOM     18  N   UNL     1       2.266   7.706  19.341  0.00  0.00    +0.000 N 
ATOM     19  C   UNL     1       1.911   8.747  18.508  0.00  0.00    +0.000 C 
ATOM     20  O   UNL     1       2.351   8.862  17.374  0.00  0.00    +0.000 OA
ATOM     21  H   UNL     1       1.909   7.641  20.283  0.00  0.00    +0.000 HD
BRANCH  18  22
ATOM     22  C   UNL     1       3.174   6.649  18.929  0.00  0.00    +0.000 C 
BRANCH  22  23
ATOM     23  C   UNL     1       2.759   5.317  19.557  0.00  0.00    +0.000 A 
ATOM     24  C   UNL     1       1.473   5.169  20.080  0.00  0.00    +0.000 A 
ATOM     25  C   UNL     1       1.140   3.990  20.742  0.00  0.00    +0.000 A 
ATOM     26  C   UNL     1       2.095   2.988  20.871  0.00  0.00    +0.000 A 
ATOM     27  C   UNL     1       3.351   3.201  20.317  0.00  0.00    +0.000 A 
ATOM     28  N   UNL     1       3.701   4.339  19.661  0.00  0.00    +0.000 NA
BRANCH  27  29
ATOM     29  C   UNL     1       4.374   2.197  20.427  0.00  0.00    +0.000 C 
ATOM     30  N   UNL     1       5.197   1.384  20.546  0.00  0.00    +0.000 NA
ENDBRANCH  27  29
ENDBRANCH  22  23
BRANCH  22  32
ATOM     31  C   UNL     1       4.570   6.272  16.801  0.00  0.00    +0.000 C 
ATOM     32  C   UNL     1       3.187   6.477  17.399  0.00  0.00    +0.000 C 
ENDBRANCH  22  32
ENDBRANCH  18  22
ENDBRANCH   1  19
TORSDOF 6
ENDMDL
MODEL 9
REMARK VINA RESULT:      -7.2      1.665      2.134
REMARK  Name = 
REMARK  8 active torsions:
REMARK  status: ('A' for Active; 'I' for Inactive)
REMARK    1  A    between atoms: C_1  and  C_2
REMARK    2  A    between atoms: C_2  and  C_3
REMARK    3  A    between atoms: C_3  and  N_4
REMARK    4  A    between atoms: C_3  and  C_24
REMARK    5  A    between atoms: C_5  and  C_7
REMARK    6  A    between atoms: C_9  and  C_10
REMARK    7  A    between atoms: C_16  and  C_17
REMARK    8  A    between atoms: C_28  and  C_29
REMARK                            x       y       z     vdW  Elec       q    Type
REMARK                         _______ _______ _______ _____ _____    ______ ____
ROOT
ATOM      1  C   UNL     1       2.357   6.259  19.911  0.00  0.00    +0.000 A 
ATOM      2  C   UNL     1       3.623   6.512  19.330  0.00  0.00    +0.000 A 
ATOM      3  C   UNL     1       4.235   5.311  19.005  0.00  0.00    +0.000 A 
ATOM      4  N   UNL     1       3.242   4.362  19.113  0.00  0.00    +0.000 N 
ATOM      5  C   UNL     1       2.099   4.922  19.647  0.00  0.00    +0.000 A 
ATOM      6  C   UNL     1       0.870   4.112  19.916  0.00  0.00    +0.000 C 
ATOM      7  O   UNL     1       0.944   2.858  19.221  0.00  0.00    +0.000 OA
ATOM      8  C   UNL     1       2.185   2.190  19.463  0.00  0.00    +0.000 C 
ATOM      9  C   UNL     1       3.313   2.949  18.770  0.00  0.00    +0.000 C 
ENDROOT
BRANCH   3  10
ATOM     10  C   UNL     1       5.609   5.106  18.562  0.00  0.00    +0.000 C 
ATOM     11  O   UNL     1       6.545   5.047  19.359  0.00  0.00    +0.000 OA
ATOM     12  N   UNL     1       5.815   4.959  17.190  0.00  0.00    +0.000 N 
ATOM     13  C   UNL     1       7.094   4.523  16.674  0.00  0.00    +0.000 C 
ATOM     14  C   UNL     1       6.760   3.991  15.290  0.00  0.00    +0.000 C 
ATOM     15  C   UNL     1       5.592   4.851  14.815  0.00  0.00    +0.000 C 
ATOM     16  C   UNL     1       4.969   5.437  16.090  0.00  0.00    +0.000 C 
ATOM     17  C   UNL     1       4.896   6.962  16.046  0.00  0.00    +0.000 C 
ENDBRANCH   3  10
BRANCH   1  19
ATOM     18  N   UNL     1       1.565   8.495  20.224  0.00  0.00    +0.000 N 
ATOM     19  C   UNL     1       1.480   7.178  20.632  0.00  0.00    +0.000 C 
ATOM     20  O   UNL     1       0.770   6.822  21.560  0.00  0.00    +0.000 OA
ATOM     21  H   UNL     1       2.175   8.773  19.470  0.00  0.00    +0.000 HD
BRANCH  18  22
ATOM     22  C   UNL     1       0.798   9.558  20.850  0.00  0.00    +0.000 C 
BRANCH  22  23
ATOM     23  C   UNL     1       0.003  10.331  19.796  0.00  0.00    +0.000 A 
ATOM     24  C   UNL     1      -0.752   9.636  18.849  0.00  0.00    +0.000 A 
ATOM     25  C   UNL     1      -1.385  10.345  17.832  0.00  0.00    +0.000 A 
ATOM     26  C   UNL     1      -1.252  11.728  17.779  0.00  0.00    +0.000 A 
ATOM     27  C   UNL     1      -0.493  12.353  18.760  0.00  0.00    +0.000 A 
ATOM     28  N   UNL     1       0.132  11.687  19.766  0.00  0.00    +0.000 NA
BRANCH  27  29
ATOM     29  C   UNL     1      -0.320  13.781  18.746  0.00  0.00    +0.000 C 
ATOM     30  N   UNL     1      -0.162  14.932  18.711  0.00  0.00    +0.000 NA
ENDBRANCH  27  29
ENDBRANCH  22  23
BRANCH  22  32
ATOM     31  C   UNL     1      -0.389   9.898  23.107  0.00  0.00    +0.000 C 
ATOM     32  C   UNL     1      -0.193   9.006  21.891  0.00  0.00    +0.000 C 
ENDBRANCH  22  32
ENDBRANCH  18  22
ENDBRANCH   1  19
TORSDOF 6
ENDMDL
