MODEL 1
REMARK VINA RESULT:      -7.9      0.000      0.000
REMARK  Name = 
REMARK  18 active torsions:
REMARK  status: ('A' for Active; 'I' for Inactive)
REMARK    1  A    between atoms: C_1  and  C_2
REMARK    2  A    between atoms: C_2  and  C_3
REMARK    3  A    between atoms: C_3  and  C_4
REMARK    4  A    between atoms: C_4  and  C_5
REMARK    5  A    between atoms: C_5  and  C_6
REMARK    6  A    between atoms: C_12  and  O_13
REMARK    7  A    between atoms: O_13  and  C_14
REMARK    8  A    between atoms: C_14  and  C_15
REMARK    9  A    between atoms: C_15  and  C_16
REMARK   10  A    between atoms: C_18  and  C_19
REMARK   11  A    between atoms: C_20  and  C_21
REMARK   12  A    between atoms: C_21  and  C_22
REMARK   13  A    between atoms: C_22  and  C_23
REMARK   14  A    between atoms: C_23  and  C_24
REMARK   15  A    between atoms: C_23  and  C_25
REMARK   16  A    between atoms: C_27  and  C_28
REMARK   17  A    between atoms: C_33  and  C_34
REMARK   18  A    between atoms: C_34  and  O_36
REMARK                            x       y       z     vdW  Elec       q    Type
REMARK                         _______ _______ _______ _____ _____    ______ ____
ROOT
ATOM      1  C   UNL     1      -0.502  10.082  19.177  0.00  0.00    +0.000 C 
ATOM      2  O   UNL     1      -1.250  10.668  19.961  0.00  0.00    +0.000 OA
ATOM      3  N   UNL     1       0.631   9.424  19.642  0.00  0.00    +0.000 N 
ATOM      4  C   UNL     1       1.613   8.847  18.709  0.00  0.00    +0.000 C 
ATOM      5  C   UNL     1       1.916   7.401  18.989  0.00  0.00    +0.000 A 
ATOM      6  C   UNL     1       2.071   6.462  17.963  0.00  0.00    +0.000 A 
ATOM      7  C   UNL     1       2.485   5.160  18.256  0.00  0.00    +0.000 A 
ATOM      8  C   UNL     1       2.726   4.802  19.584  0.00  0.00    +0.000 A 
ATOM      9  C   UNL     1       2.561   5.731  20.612  0.00  0.00    +0.000 A 
ATOM     10  C   UNL     1       2.134   7.026  20.316  0.00  0.00    +0.000 A 
ATOM     11  C   UNL     1       1.932   8.080  21.367  0.00  0.00    +0.000 C 
ATOM     12  C   UNL     1       0.673   8.946  21.071  0.00  0.00    +0.000 C 
ENDROOT
BRANCH  12  13
ATOM     13  C   UNL     1       0.592   9.940  22.260  0.00  0.00    +0.000 C 
ATOM     14  O   UNL     1       0.357   9.578  23.410  0.00  0.00    +0.000 OA
BRANCH  13  15
ATOM     15  O   UNL     1       0.706  11.251  21.978  0.00  0.00    +0.000 OA
ATOM     16  H   UNL     1       1.175  11.410  21.125  0.00  0.00    +0.000 HD
ENDBRANCH  13  15
ENDBRANCH  12  13
BRANCH   1  17
ATOM     17  C   UNL     1      -0.758  10.070  17.681  0.00  0.00    +0.000 C 
BRANCH  17  18
ATOM     18  C   UNL     1      -1.842  11.029  17.202  0.00  0.00    +0.000 C 
BRANCH  18  19
ATOM     19  C   UNL     1      -3.110  10.227  16.896  0.00  0.00    +0.000 C 
BRANCH  19  21
ATOM     20  C   UNL     1      -3.003  10.109  14.397  0.00  0.00    +0.000 C 
ATOM     21  C   UNL     1      -3.767  10.658  15.591  0.00  0.00    +0.000 C 
ENDBRANCH  19  21
ENDBRANCH  18  19
ENDBRANCH  17  18
ENDBRANCH   1  17
BRANCH   7  22
ATOM     22  O   UNL     1       2.670   4.163  17.333  0.00  0.00    +0.000 OA
BRANCH  22  23
ATOM     23  C   UNL     1       3.949   4.165  16.690  0.00  0.00    +0.000 C 
BRANCH  23  24
ATOM     24  C   UNL     1       5.054   4.202  17.738  0.00  0.00    +0.000 C 
BRANCH  24  25
ATOM     25  C   UNL     1       6.041   5.264  17.412  0.00  0.00    +0.000 A 
ATOM     26  N   UNL     1       6.301   6.269  18.314  0.00  0.00    +0.000 NA
ATOM     27  C   UNL     1       7.263   7.002  17.776  0.00  0.00    +0.000 A 
ATOM     28  O   UNL     1       7.636   6.516  16.531  0.00  0.00    +0.000 OA
ATOM     29  C   UNL     1       6.860   5.415  16.319  0.00  0.00    +0.000 A 
ATOM     30  C   UNL     1       7.077   4.664  15.072  0.00  0.00    +0.000 C 
BRANCH  27  31
ATOM     31  C   UNL     1       7.892   8.143  18.349  0.00  0.00    +0.000 C 
ATOM     32  C   UNL     1       8.213   9.213  17.604  0.00  0.00    +0.000 C 
BRANCH  32  33
ATOM     33  C   UNL     1       8.899  10.433  18.144  0.00  0.00    +0.000 C 
BRANCH  33  34
ATOM     34  C   UNL     1       9.445  10.196  19.555  0.00  0.00    +0.000 C 
BRANCH  34  35
ATOM     35  C   UNL     1       9.800  11.501  20.296  0.00  0.00    +0.000 C 
ATOM     36  C   UNL     1      11.292  11.828  20.224  0.00  0.00    +0.000 C 
ATOM     37  C   UNL     1       8.991  12.665  19.720  0.00  0.00    +0.000 C 
ENDBRANCH  34  35
ENDBRANCH  33  34
ENDBRANCH  32  33
ENDBRANCH  27  31
ENDBRANCH  24  25
ENDBRANCH  23  24
ENDBRANCH  22  23
ENDBRANCH   7  22
TORSDOF 14
ENDMDL
MODEL 2
REMARK VINA RESULT:      -7.7      3.850     10.465
REMARK  Name = 
REMARK  18 active torsions:
REMARK  status: ('A' for Active; 'I' for Inactive)
REMARK    1  A    between atoms: C_1  and  C_2
REMARK    2  A    between atoms: C_2  and  C_3
REMARK    3  A    between atoms: C_3  and  C_4
REMARK    4  A    between atoms: C_4  and  C_5
REMARK    5  A    between atoms: C_5  and  C_6
REMARK    6  A    between atoms: C_12  and  O_13
REMARK    7  A    between atoms: O_13  and  C_14
REMARK    8  A    between atoms: C_14  and  C_15
REMARK    9  A    between atoms: C_15  and  C_16
REMARK   10  A    between atoms: C_18  and  C_19
REMARK   11  A    between atoms: C_20  and  C_21
REMARK   12  A    between atoms: C_21  and  C_22
REMARK   13  A    between atoms: C_22  and  C_23
REMARK   14  A    between atoms: C_23  and  C_24
REMARK   15  A    between atoms: C_23  and  C_25
REMARK   16  A    between atoms: C_27  and  C_28
REMARK   17  A    between atoms: C_33  and  C_34
REMARK   18  A    between atoms: C_34  and  O_36
REMARK                            x       y       z     vdW  Elec       q    Type
REMARK                         _______ _______ _______ _____ _____    ______ ____
ROOT
ATOM      1  C   UNL     1       5.309   4.574  17.592  0.00  0.00    +0.000 C 
ATOM      2  O   UNL     1       6.065   3.696  18.010  0.00  0.00    +0.000 OA
ATOM      3  N   UNL     1       4.056   4.757  18.165  0.00  0.00    +0.000 N 
ATOM      4  C   UNL     1       3.083   5.698  17.584  0.00  0.00    +0.000 C 
ATOM      5  C   UNL     1       2.547   6.685  18.584  0.00  0.00    +0.000 A 
ATOM      6  C   UNL     1       2.344   8.032  18.264  0.00  0.00    +0.000 A 
ATOM      7  C   UNL     1       1.719   8.887  19.174  0.00  0.00    +0.000 A 
ATOM      8  C   UNL     1       1.313   8.387  20.414  0.00  0.00    +0.000 A 
ATOM      9  C   UNL     1       1.524   7.047  20.744  0.00  0.00    +0.000 A 
ATOM     10  C   UNL     1       2.162   6.201  19.836  0.00  0.00    +0.000 A 
ATOM     11  C   UNL     1       2.426   4.750  20.120  0.00  0.00    +0.000 C 
ATOM     12  C   UNL     1       3.820   4.310  19.585  0.00  0.00    +0.000 C 
ENDROOT
BRANCH  12  13
ATOM     13  C   UNL     1       3.944   2.818  19.996  0.00  0.00    +0.000 C 
ATOM     14  O   UNL     1       2.967   2.114  20.235  0.00  0.00    +0.000 OA
BRANCH  13  15
ATOM     15  O   UNL     1       5.186   2.326  20.166  0.00  0.00    +0.000 OA
ATOM     16  H   UNL     1       5.871   3.036  20.176  0.00  0.00    +0.000 HD
ENDBRANCH  13  15
ENDBRANCH  12  13
BRANCH   1  17
ATOM     17  C   UNL     1       5.689   5.473  16.429  0.00  0.00    +0.000 C 
BRANCH  17  18
ATOM     18  C   UNL     1       7.057   5.196  15.817  0.00  0.00    +0.000 C 
BRANCH  18  19
ATOM     19  C   UNL     1       6.888   4.966  14.313  0.00  0.00    +0.000 C 
BRANCH  19  21
ATOM     20  C   UNL     1       6.036   3.422  12.535  0.00  0.00    +0.000 C 
ATOM     21  C   UNL     1       5.962   3.797  14.007  0.00  0.00    +0.000 C 
ENDBRANCH  19  21
ENDBRANCH  18  19
ENDBRANCH  17  18
ENDBRANCH   1  17
BRANCH   7  22
ATOM     22  O   UNL     1       1.468  10.219  18.965  0.00  0.00    +0.000 OA
BRANCH  22  23
ATOM     23  C   UNL     1       0.258  10.706  19.553  0.00  0.00    +0.000 C 
BRANCH  23  24
ATOM     24  C   UNL     1       0.585  11.593  20.747  0.00  0.00    +0.000 C 
BRANCH  24  25
ATOM     25  C   UNL     1      -0.524  11.559  21.736  0.00  0.00    +0.000 A 
ATOM     26  N   UNL     1      -1.587  12.423  21.616  0.00  0.00    +0.000 NA
ATOM     27  C   UNL     1      -2.429  12.102  22.583  0.00  0.00    +0.000 A 
ATOM     28  O   UNL     1      -1.945  11.055  23.353  0.00  0.00    +0.000 OA
ATOM     29  C   UNL     1      -0.743  10.719  22.801  0.00  0.00    +0.000 A 
ATOM     30  C   UNL     1      -0.014   9.591  23.402  0.00  0.00    +0.000 C 
BRANCH  27  31
ATOM     31  C   UNL     1      -3.695  12.697  22.849  0.00  0.00    +0.000 C 
ATOM     32  C   UNL     1      -3.796  13.974  23.253  0.00  0.00    +0.000 C 
BRANCH  32  33
ATOM     33  C   UNL     1      -5.097  14.650  23.572  0.00  0.00    +0.000 C 
BRANCH  33  34
ATOM     34  C   UNL     1      -6.204  13.634  23.868  0.00  0.00    +0.000 C 
BRANCH  34  35
ATOM     35  C   UNL     1      -7.369  13.692  22.860  0.00  0.00    +0.000 C 
ATOM     36  C   UNL     1      -7.357  14.975  22.025  0.00  0.00    +0.000 C 
ATOM     37  C   UNL     1      -7.318  12.477  21.932  0.00  0.00    +0.000 C 
ENDBRANCH  34  35
ENDBRANCH  33  34
ENDBRANCH  32  33
ENDBRANCH  27  31
ENDBRANCH  24  25
ENDBRANCH  23  24
ENDBRANCH  22  23
ENDBRANCH   7  22
TORSDOF 14
ENDMDL
MODEL 3
REMARK VINA RESULT:      -7.4      3.612      9.961
REMARK  Name = 
REMARK  18 active torsions:
REMARK  status: ('A' for Active; 'I' for Inactive)
REMARK    1  A    between atoms: C_1  and  C_2
REMARK    2  A    between atoms: C_2  and  C_3
REMARK    3  A    between atoms: C_3  and  C_4
REMARK    4  A    between atoms: C_4  and  C_5
REMARK    5  A    between atoms: C_5  and  C_6
REMARK    6  A    between atoms: C_12  and  O_13
REMARK    7  A    between atoms: O_13  and  C_14
REMARK    8  A    between atoms: C_14  and  C_15
REMARK    9  A    between atoms: C_15  and  C_16
REMARK   10  A    between atoms: C_18  and  C_19
REMARK   11  A    between atoms: C_20  and  C_21
REMARK   12  A    between atoms: C_21  and  C_22
REMARK   13  A    between atoms: C_22  and  C_23
REMARK   14  A    between atoms: C_23  and  C_24
REMARK   15  A    between atoms: C_23  and  C_25
REMARK   16  A    between atoms: C_27  and  C_28
REMARK   17  A    between atoms: C_33  and  C_34
REMARK   18  A    between atoms: C_34  and  O_36
REMARK                            x       y       z     vdW  Elec       q    Type
REMARK                         _______ _______ _______ _____ _____    ______ ____
ROOT
ATOM      1  C   UNL     1       5.245   4.585  17.208  0.00  0.00    +0.000 C 
ATOM      2  O   UNL     1       6.089   3.716  17.429  0.00  0.00    +0.000 OA
ATOM      3  N   UNL     1       4.050   4.604  17.918  0.00  0.00    +0.000 N 
ATOM      4  C   UNL     1       2.970   5.542  17.566  0.00  0.00    +0.000 C 
ATOM      5  C   UNL     1       2.486   6.351  18.737  0.00  0.00    +0.000 A 
ATOM      6  C   UNL     1       2.174   7.711  18.623  0.00  0.00    +0.000 A 
ATOM      7  C   UNL     1       1.600   8.395  19.697  0.00  0.00    +0.000 A 
ATOM      8  C   UNL     1       1.355   7.713  20.890  0.00  0.00    +0.000 A 
ATOM      9  C   UNL     1       1.676   6.360  21.014  0.00  0.00    +0.000 A 
ATOM     10  C   UNL     1       2.262   5.684  19.943  0.00  0.00    +0.000 A 
ATOM     11  C   UNL     1       2.637   4.231  20.001  0.00  0.00    +0.000 C 
ATOM     12  C   UNL     1       3.990   3.962  19.280  0.00  0.00    +0.000 C 
ENDROOT
BRANCH  12  13
ATOM     13  C   UNL     1       4.241   2.443  19.472  0.00  0.00    +0.000 C 
ATOM     14  O   UNL     1       3.576   1.584  18.898  0.00  0.00    +0.000 OA
BRANCH  13  15
ATOM     15  O   UNL     1       5.175   2.080  20.370  0.00  0.00    +0.000 OA
ATOM     16  H   UNL     1       4.810   2.010  21.283  0.00  0.00    +0.000 HD
ENDBRANCH  13  15
ENDBRANCH  12  13
BRANCH   1  17
ATOM     17  C   UNL     1       5.449   5.651  16.147  0.00  0.00    +0.000 C 
BRANCH  17  18
ATOM     18  C   UNL     1       6.353   5.245  14.988  0.00  0.00    +0.000 C 
BRANCH  18  19
ATOM     19  C   UNL     1       5.772   3.995  14.322  0.00  0.00    +0.000 C 
BRANCH  19  21
ATOM     20  C   UNL     1       5.177   3.220  12.017  0.00  0.00    +0.000 C 
ATOM     21  C   UNL     1       6.266   3.817  12.893  0.00  0.00    +0.000 C 
ENDBRANCH  19  21
ENDBRANCH  18  19
ENDBRANCH  17  18
ENDBRANCH   1  17
BRANCH   7  22
ATOM     22  O   UNL     1       1.253   9.722  19.694  0.00  0.00    +0.000 OA
BRANCH  22  23
ATOM     23  C   UNL     1       1.530  10.417  18.475  0.00  0.00    +0.000 C 
BRANCH  23  24
ATOM     24  C   UNL     1       1.055  11.860  18.584  0.00  0.00    +0.000 C 
BRANCH  24  25
ATOM     25  C   UNL     1      -0.294  11.915  19.205  0.00  0.00    +0.000 A 
ATOM     26  N   UNL     1      -0.479  12.561  20.405  0.00  0.00    +0.000 NA
ATOM     27  C   UNL     1      -1.777  12.505  20.654  0.00  0.00    +0.000 A 
ATOM     28  O   UNL     1      -2.457  11.823  19.656  0.00  0.00    +0.000 OA
ATOM     29  C   UNL     1      -1.508  11.462  18.745  0.00  0.00    +0.000 A 
ATOM     30  C   UNL     1      -1.961  10.750  17.540  0.00  0.00    +0.000 C 
BRANCH  27  31
ATOM     31  C   UNL     1      -2.460  13.064  21.771  0.00  0.00    +0.000 C 
ATOM     32  C   UNL     1      -2.911  12.291  22.773  0.00  0.00    +0.000 C 
BRANCH  32  33
ATOM     33  C   UNL     1      -3.657  12.817  23.964  0.00  0.00    +0.000 C 
BRANCH  33  34
ATOM     34  C   UNL     1      -5.161  12.914  23.689  0.00  0.00    +0.000 C 
BRANCH  34  35
ATOM     35  C   UNL     1      -5.723  14.338  23.877  0.00  0.00    +0.000 C 
ATOM     36  C   UNL     1      -5.224  15.310  22.805  0.00  0.00    +0.000 C 
ATOM     37  C   UNL     1      -7.252  14.301  23.864  0.00  0.00    +0.000 C 
ENDBRANCH  34  35
ENDBRANCH  33  34
ENDBRANCH  32  33
ENDBRANCH  27  31
ENDBRANCH  24  25
ENDBRANCH  23  24
ENDBRANCH  22  23
ENDBRANCH   7  22
TORSDOF 14
ENDMDL
MODEL 4
REMARK VINA RESULT:      -7.4      3.828      8.605
REMARK  Name = 
REMARK  18 active torsions:
REMARK  status: ('A' for Active; 'I' for Inactive)
REMARK    1  A    between atoms: C_1  and  C_2
REMARK    2  A    between atoms: C_2  and  C_3
REMARK    3  A    between atoms: C_3  and  C_4
REMARK    4  A    between atoms: C_4  and  C_5
REMARK    5  A    between atoms: C_5  and  C_6
REMARK    6  A    between atoms: C_12  and  O_13
REMARK    7  A    between atoms: O_13  and  C_14
REMARK    8  A    between atoms: C_14  and  C_15
REMARK    9  A    between atoms: C_15  and  C_16
REMARK   10  A    between atoms: C_18  and  C_19
REMARK   11  A    between atoms: C_20  and  C_21
REMARK   12  A    between atoms: C_21  and  C_22
REMARK   13  A    between atoms: C_22  and  C_23
REMARK   14  A    between atoms: C_23  and  C_24
REMARK   15  A    between atoms: C_23  and  C_25
REMARK   16  A    between atoms: C_27  and  C_28
REMARK   17  A    between atoms: C_33  and  C_34
REMARK   18  A    between atoms: C_34  and  O_36
REMARK                            x       y       z     vdW  Elec       q    Type
REMARK                         _______ _______ _______ _____ _____    ______ ____
ROOT
ATOM      1  C   UNL     1       3.933   2.834  17.956  0.00  0.00    +0.000 C 
ATOM      2  O   UNL     1       4.221   2.172  16.957  0.00  0.00    +0.000 OA
ATOM      3  N   UNL     1       4.252   4.185  18.021  0.00  0.00    +0.000 N 
ATOM      4  C   UNL     1       4.052   4.956  19.260  0.00  0.00    +0.000 C 
ATOM      5  C   UNL     1       3.248   6.210  19.052  0.00  0.00    +0.000 A 
ATOM      6  C   UNL     1       2.276   6.631  19.966  0.00  0.00    +0.000 A 
ATOM      7  C   UNL     1       1.647   7.868  19.808  0.00  0.00    +0.000 A 
ATOM      8  C   UNL     1       1.988   8.674  18.720  0.00  0.00    +0.000 A 
ATOM      9  C   UNL     1       2.949   8.255  17.798  0.00  0.00    +0.000 A 
ATOM     10  C   UNL     1       3.564   7.011  17.952  0.00  0.00    +0.000 A 
ATOM     11  C   UNL     1       4.603   6.491  17.002  0.00  0.00    +0.000 C 
ATOM     12  C   UNL     1       4.427   4.966  16.743  0.00  0.00    +0.000 C 
ENDROOT
BRANCH  12  13
ATOM     13  C   UNL     1       5.539   4.610  15.722  0.00  0.00    +0.000 C 
ATOM     14  O   UNL     1       5.438   4.849  14.522  0.00  0.00    +0.000 OA
BRANCH  13  15
ATOM     15  O   UNL     1       6.611   3.940  16.185  0.00  0.00    +0.000 OA
ATOM     16  H   UNL     1       6.591   3.834  17.166  0.00  0.00    +0.000 HD
ENDBRANCH  13  15
ENDBRANCH  12  13
BRANCH   1  17
ATOM     17  C   UNL     1       3.249   2.214  19.160  0.00  0.00    +0.000 C 
BRANCH  17  18
ATOM     18  C   UNL     1       1.749   1.988  19.008  0.00  0.00    +0.000 C 
BRANCH  18  19
ATOM     19  C   UNL     1       1.007   2.988  19.900  0.00  0.00    +0.000 C 
BRANCH  19  21
ATOM     20  C   UNL     1       2.267   3.607  21.973  0.00  0.00    +0.000 C 
ATOM     21  C   UNL     1       1.202   2.698  21.382  0.00  0.00    +0.000 C 
ENDBRANCH  19  21
ENDBRANCH  18  19
ENDBRANCH  17  18
ENDBRANCH   1  17
BRANCH   7  22
ATOM     22  O   UNL     1       0.686   8.378  20.642  0.00  0.00    +0.000 OA
BRANCH  22  23
ATOM     23  C   UNL     1       1.185   9.015  21.822  0.00  0.00    +0.000 C 
BRANCH  23  24
ATOM     24  C   UNL     1       0.029   9.617  22.611  0.00  0.00    +0.000 C 
BRANCH  24  25
ATOM     25  C   UNL     1      -0.153  11.048  22.251  0.00  0.00    +0.000 A 
ATOM     26  N   UNL     1       0.773  11.687  21.460  0.00  0.00    +0.000 NA
ATOM     27  C   UNL     1       0.300  12.906  21.257  0.00  0.00    +0.000 A 
ATOM     28  O   UNL     1      -0.910  13.097  21.908  0.00  0.00    +0.000 OA
ATOM     29  C   UNL     1      -1.186  11.912  22.525  0.00  0.00    +0.000 A 
ATOM     30  C   UNL     1      -2.453  11.814  23.268  0.00  0.00    +0.000 C 
BRANCH  27  31
ATOM     31  C   UNL     1       0.892  13.935  20.472  0.00  0.00    +0.000 C 
ATOM     32  C   UNL     1       1.970  13.697  19.706  0.00  0.00    +0.000 C 
BRANCH  32  33
ATOM     33  C   UNL     1       2.653  14.743  18.875  0.00  0.00    +0.000 C 
BRANCH  33  34
ATOM     34  C   UNL     1       2.265  16.157  19.318  0.00  0.00    +0.000 C 
BRANCH  34  35
ATOM     35  C   UNL     1       3.281  16.791  20.289  0.00  0.00    +0.000 C 
ATOM     36  C   UNL     1       4.702  16.808  19.721  0.00  0.00    +0.000 C 
ATOM     37  C   UNL     1       2.851  18.218  20.636  0.00  0.00    +0.000 C 
ENDBRANCH  34  35
ENDBRANCH  33  34
ENDBRANCH  32  33
ENDBRANCH  27  31
ENDBRANCH  24  25
ENDBRANCH  23  24
ENDBRANCH  22  23
ENDBRANCH   7  22
TORSDOF 14
ENDMDL
MODEL 5
REMARK VINA RESULT:      -7.4      2.917      7.577
REMARK  Name = 
REMARK  18 active torsions:
REMARK  status: ('A' for Active; 'I' for Inactive)
REMARK    1  A    between atoms: C_1  and  C_2
REMARK    2  A    between atoms: C_2  and  C_3
REMARK    3  A    between atoms: C_3  and  C_4
REMARK    4  A    between atoms: C_4  and  C_5
REMARK    5  A    between atoms: C_5  and  C_6
REMARK    6  A    between atoms: C_12  and  O_13
REMARK    7  A    between atoms: O_13  and  C_14
REMARK    8  A    between atoms: C_14  and  C_15
REMARK    9  A    between atoms: C_15  and  C_16
REMARK   10  A    between atoms: C_18  and  C_19
REMARK   11  A    between atoms: C_20  and  C_21
REMARK   12  A    between atoms: C_21  and  C_22
REMARK   13  A    between atoms: C_22  and  C_23
REMARK   14  A    between atoms: C_23  and  C_24
REMARK   15  A    between atoms: C_23  and  C_25
REMARK   16  A    between atoms: C_27  and  C_28
REMARK   17  A    between atoms: C_33  and  C_34
REMARK   18  A    between atoms: C_34  and  O_36
REMARK                            x       y       z     vdW  Elec       q    Type
REMARK                         _______ _______ _______ _____ _____    ______ ____
ROOT
ATOM      1  C   UNL     1       5.189   4.936  18.125  0.00  0.00    +0.000 C 
ATOM      2  O   UNL     1       5.899   4.017  18.536  0.00  0.00    +0.000 OA
ATOM      3  N   UNL     1       3.883   5.076  18.580  0.00  0.00    +0.000 N 
ATOM      4  C   UNL     1       2.974   6.073  17.991  0.00  0.00    +0.000 C 
ATOM      5  C   UNL     1       2.336   6.970  19.016  0.00  0.00    +0.000 A 
ATOM      6  C   UNL     1       2.165   8.342  18.801  0.00  0.00    +0.000 A 
ATOM      7  C   UNL     1       1.448   9.115  19.716  0.00  0.00    +0.000 A 
ATOM      8  C   UNL     1       0.918   8.509  20.857  0.00  0.00    +0.000 A 
ATOM      9  C   UNL     1       1.096   7.143  21.084  0.00  0.00    +0.000 A 
ATOM     10  C   UNL     1       1.825   6.377  20.173  0.00  0.00    +0.000 A 
ATOM     11  C   UNL     1       2.061   4.904  20.349  0.00  0.00    +0.000 C 
ATOM     12  C   UNL     1       3.503   4.503  19.922  0.00  0.00    +0.000 C 
ENDROOT
BRANCH  12  13
ATOM     13  C   UNL     1       3.586   2.980  20.206  0.00  0.00    +0.000 C 
ATOM     14  O   UNL     1       2.592   2.260  20.257  0.00  0.00    +0.000 OA
BRANCH  13  15
ATOM     15  O   UNL     1       4.800   2.469  20.483  0.00  0.00    +0.000 OA
ATOM     16  H   UNL     1       4.755   1.729  21.134  0.00  0.00    +0.000 HD
ENDBRANCH  13  15
ENDBRANCH  12  13
BRANCH   1  17
ATOM     17  C   UNL     1       5.685   5.933  17.094  0.00  0.00    +0.000 C 
BRANCH  17  18
ATOM     18  C   UNL     1       7.201   6.040  16.973  0.00  0.00    +0.000 C 
BRANCH  18  19
ATOM     19  C   UNL     1       7.715   7.000  18.049  0.00  0.00    +0.000 C 
BRANCH  19  21
ATOM     20  C   UNL     1       8.619   9.284  18.536  0.00  0.00    +0.000 C 
ATOM     21  C   UNL     1       7.874   8.422  17.528  0.00  0.00    +0.000 C 
ENDBRANCH  19  21
ENDBRANCH  18  19
ENDBRANCH  17  18
ENDBRANCH   1  17
BRANCH   7  22
ATOM     22  O   UNL     1       1.218  10.462  19.604  0.00  0.00    +0.000 OA
BRANCH  22  23
ATOM     23  C   UNL     1       0.596  11.067  20.743  0.00  0.00    +0.000 C 
BRANCH  23  24
ATOM     24  C   UNL     1       0.410  12.559  20.498  0.00  0.00    +0.000 C 
BRANCH  24  25
ATOM     25  C   UNL     1       1.729  13.241  20.434  0.00  0.00    +0.000 A 
ATOM     26  N   UNL     1       2.378  13.605  21.591  0.00  0.00    +0.000 NA
ATOM     27  C   UNL     1       3.540  14.111  21.213  0.00  0.00    +0.000 A 
ATOM     28  O   UNL     1       3.672  14.107  19.832  0.00  0.00    +0.000 OA
ATOM     29  C   UNL     1       2.523  13.548  19.355  0.00  0.00    +0.000 A 
ATOM     30  C   UNL     1       2.407  13.378  17.898  0.00  0.00    +0.000 C 
BRANCH  27  31
ATOM     31  C   UNL     1       4.576  14.600  22.058  0.00  0.00    +0.000 C 
ATOM     32  C   UNL     1       5.855  14.633  21.649  0.00  0.00    +0.000 C 
BRANCH  32  33
ATOM     33  C   UNL     1       6.994  15.114  22.500  0.00  0.00    +0.000 C 
BRANCH  33  34
ATOM     34  C   UNL     1       7.891  13.956  22.949  0.00  0.00    +0.000 C 
BRANCH  34  35
ATOM     35  C   UNL     1       8.633  13.274  21.783  0.00  0.00    +0.000 C 
ATOM     36  C   UNL     1      10.037  13.843  21.570  0.00  0.00    +0.000 C 
ATOM     37  C   UNL     1       8.723  11.767  22.033  0.00  0.00    +0.000 C 
ENDBRANCH  34  35
ENDBRANCH  33  34
ENDBRANCH  32  33
ENDBRANCH  27  31
ENDBRANCH  24  25
ENDBRANCH  23  24
ENDBRANCH  22  23
ENDBRANCH   7  22
TORSDOF 14
ENDMDL
MODEL 6
REMARK VINA RESULT:      -7.3      3.329      8.485
REMARK  Name = 
REMARK  18 active torsions:
REMARK  status: ('A' for Active; 'I' for Inactive)
REMARK    1  A    between atoms: C_1  and  C_2
REMARK    2  A    between atoms: C_2  and  C_3
REMARK    3  A    between atoms: C_3  and  C_4
REMARK    4  A    between atoms: C_4  and  C_5
REMARK    5  A    between atoms: C_5  and  C_6
REMARK    6  A    between atoms: C_12  and  O_13
REMARK    7  A    between atoms: O_13  and  C_14
REMARK    8  A    between atoms: C_14  and  C_15
REMARK    9  A    between atoms: C_15  and  C_16
REMARK   10  A    between atoms: C_18  and  C_19
REMARK   11  A    between atoms: C_20  and  C_21
REMARK   12  A    between atoms: C_21  and  C_22
REMARK   13  A    between atoms: C_22  and  C_23
REMARK   14  A    between atoms: C_23  and  C_24
REMARK   15  A    between atoms: C_23  and  C_25
REMARK   16  A    between atoms: C_27  and  C_28
REMARK   17  A    between atoms: C_33  and  C_34
REMARK   18  A    between atoms: C_34  and  O_36
REMARK                            x       y       z     vdW  Elec       q    Type
REMARK                         _______ _______ _______ _____ _____    ______ ____
ROOT
ATOM      1  C   UNL     1       5.682   4.969  17.803  0.00  0.00    +0.000 C 
ATOM      2  O   UNL     1       6.466   4.061  18.082  0.00  0.00    +0.000 OA
ATOM      3  N   UNL     1       4.359   4.913  18.228  0.00  0.00    +0.000 N 
ATOM      4  C   UNL     1       3.373   5.909  17.779  0.00  0.00    +0.000 C 
ATOM      5  C   UNL     1       2.633   6.560  18.915  0.00  0.00    +0.000 A 
ATOM      6  C   UNL     1       2.337   7.928  18.923  0.00  0.00    +0.000 A 
ATOM      7  C   UNL     1       1.532   8.470  19.928  0.00  0.00    +0.000 A 
ATOM      8  C   UNL     1       1.039   7.635  20.933  0.00  0.00    +0.000 A 
ATOM      9  C   UNL     1       1.340   6.272  20.937  0.00  0.00    +0.000 A 
ATOM     10  C   UNL     1       2.156   5.738  19.939  0.00  0.00    +0.000 A 
ATOM     11  C   UNL     1       2.526   4.284  19.877  0.00  0.00    +0.000 C 
ATOM     12  C   UNL     1       4.008   4.091  19.442  0.00  0.00    +0.000 C 
ENDROOT
BRANCH  12  13
ATOM     13  C   UNL     1       4.229   2.555  19.473  0.00  0.00    +0.000 C 
ATOM     14  O   UNL     1       3.511   1.771  18.857  0.00  0.00    +0.000 OA
BRANCH  13  15
ATOM     15  O   UNL     1       5.201   2.087  20.277  0.00  0.00    +0.000 OA
ATOM     16  H   UNL     1       5.955   2.717  20.358  0.00  0.00    +0.000 HD
ENDBRANCH  13  15
ENDBRANCH  12  13
BRANCH   1  17
ATOM     17  C   UNL     1       6.103   6.165  16.969  0.00  0.00    +0.000 C 
BRANCH  17  18
ATOM     18  C   UNL     1       7.498   6.702  17.265  0.00  0.00    +0.000 C 
BRANCH  18  19
ATOM     19  C   UNL     1       7.395   8.194  17.591  0.00  0.00    +0.000 C 
BRANCH  19  21
ATOM     20  C   UNL     1       8.830  10.136  18.254  0.00  0.00    +0.000 C 
ATOM     21  C   UNL     1       8.521   8.667  18.500  0.00  0.00    +0.000 C 
ENDBRANCH  19  21
ENDBRANCH  18  19
ENDBRANCH  17  18
ENDBRANCH   1  17
BRANCH   7  22
ATOM     22  O   UNL     1       1.179   9.791  20.032  0.00  0.00    +0.000 OA
BRANCH  22  23
ATOM     23  C   UNL     1      -0.229  10.037  20.100  0.00  0.00    +0.000 C 
BRANCH  23  24
ATOM     24  C   UNL     1      -0.671  10.842  18.885  0.00  0.00    +0.000 C 
BRANCH  24  25
ATOM     25  C   UNL     1      -0.623  12.297  19.184  0.00  0.00    +0.000 A 
ATOM     26  N   UNL     1       0.426  13.064  18.731  0.00  0.00    +0.000 NA
ATOM     27  C   UNL     1       0.147  14.308  19.085  0.00  0.00    +0.000 A 
ATOM     28  O   UNL     1      -1.053  14.384  19.776  0.00  0.00    +0.000 OA
ATOM     29  C   UNL     1      -1.530  13.107  19.824  0.00  0.00    +0.000 A 
ATOM     30  C   UNL     1      -2.833  12.895  20.473  0.00  0.00    +0.000 C 
BRANCH  27  31
ATOM     31  C   UNL     1       0.924  15.469  18.812  0.00  0.00    +0.000 C 
ATOM     32  C   UNL     1       2.232  15.384  18.519  0.00  0.00    +0.000 C 
BRANCH  32  33
ATOM     33  C   UNL     1       3.107  16.571  18.246  0.00  0.00    +0.000 C 
BRANCH  33  34
ATOM     34  C   UNL     1       4.123  16.794  19.371  0.00  0.00    +0.000 C 
BRANCH  34  35
ATOM     35  C   UNL     1       4.236  15.596  20.334  0.00  0.00    +0.000 C 
ATOM     36  C   UNL     1       5.660  15.042  20.414  0.00  0.00    +0.000 C 
ATOM     37  C   UNL     1       3.766  16.005  21.732  0.00  0.00    +0.000 C 
ENDBRANCH  34  35
ENDBRANCH  33  34
ENDBRANCH  32  33
ENDBRANCH  27  31
ENDBRANCH  24  25
ENDBRANCH  23  24
ENDBRANCH  22  23
ENDBRANCH   7  22
TORSDOF 14
ENDMDL
MODEL 7
REMARK VINA RESULT:      -7.3      3.660     10.615
REMARK  Name = 
REMARK  18 active torsions:
REMARK  status: ('A' for Active; 'I' for Inactive)
REMARK    1  A    between atoms: C_1  and  C_2
REMARK    2  A    between atoms: C_2  and  C_3
REMARK    3  A    between atoms: C_3  and  C_4
REMARK    4  A    between atoms: C_4  and  C_5
REMARK    5  A    between atoms: C_5  and  C_6
REMARK    6  A    between atoms: C_12  and  O_13
REMARK    7  A    between atoms: O_13  and  C_14
REMARK    8  A    between atoms: C_14  and  C_15
REMARK    9  A    between atoms: C_15  and  C_16
REMARK   10  A    between atoms: C_18  and  C_19
REMARK   11  A    between atoms: C_20  and  C_21
REMARK   12  A    between atoms: C_21  and  C_22
REMARK   13  A    between atoms: C_22  and  C_23
REMARK   14  A    between atoms: C_23  and  C_24
REMARK   15  A    between atoms: C_23  and  C_25
REMARK   16  A    between atoms: C_27  and  C_28
REMARK   17  A    between atoms: C_33  and  C_34
REMARK   18  A    between atoms: C_34  and  O_36
REMARK                            x       y       z     vdW  Elec       q    Type
REMARK                         _______ _______ _______ _____ _____    ______ ____
ROOT
ATOM      1  C   UNL     1       5.344   4.984  17.699  0.00  0.00    +0.000 C 
ATOM      2  O   UNL     1       6.150   4.114  18.031  0.00  0.00    +0.000 OA
ATOM      3  N   UNL     1       4.074   5.020  18.264  0.00  0.00    +0.000 N 
ATOM      4  C   UNL     1       3.049   5.956  17.774  0.00  0.00    +0.000 C 
ATOM      5  C   UNL     1       2.436   6.787  18.867  0.00  0.00    +0.000 A 
ATOM      6  C   UNL     1       2.148   8.146  18.696  0.00  0.00    +0.000 A 
ATOM      7  C   UNL     1       1.457   8.850  19.685  0.00  0.00    +0.000 A 
ATOM      8  C   UNL     1       1.070   8.188  20.851  0.00  0.00    +0.000 A 
ATOM      9  C   UNL     1       1.365   6.836  21.033  0.00  0.00    +0.000 A 
ATOM     10  C   UNL     1       2.068   6.140  20.049  0.00  0.00    +0.000 A 
ATOM     11  C   UNL     1       2.424   4.687  20.173  0.00  0.00    +0.000 C 
ATOM     12  C   UNL     1       3.850   4.400  19.620  0.00  0.00    +0.000 C 
ENDROOT
BRANCH  12  13
ATOM     13  C   UNL     1       4.067   2.883  19.863  0.00  0.00    +0.000 C 
ATOM     14  O   UNL     1       5.158   2.411  20.172  0.00  0.00    +0.000 OA
BRANCH  13  15
ATOM     15  O   UNL     1       3.021   2.066  19.639  0.00  0.00    +0.000 OA
ATOM     16  H   UNL     1       2.158   2.500  19.841  0.00  0.00    +0.000 HD
ENDBRANCH  13  15
ENDBRANCH  12  13
BRANCH   1  17
ATOM     17  C   UNL     1       5.678   6.031  16.653  0.00  0.00    +0.000 C 
BRANCH  17  18
ATOM     18  C   UNL     1       5.499   5.581  15.207  0.00  0.00    +0.000 C 
BRANCH  18  19
ATOM     19  C   UNL     1       6.447   4.410  14.934  0.00  0.00    +0.000 C 
BRANCH  19  21
ATOM     20  C   UNL     1       5.297   3.546  12.885  0.00  0.00    +0.000 C 
ATOM     21  C   UNL     1       6.590   4.116  13.447  0.00  0.00    +0.000 C 
ENDBRANCH  19  21
ENDBRANCH  18  19
ENDBRANCH  17  18
ENDBRANCH   1  17
BRANCH   7  22
ATOM     22  O   UNL     1       1.122  10.178  19.621  0.00  0.00    +0.000 OA
BRANCH  22  23
ATOM     23  C   UNL     1       0.165  10.608  20.594  0.00  0.00    +0.000 C 
BRANCH  23  24
ATOM     24  C   UNL     1       0.263  12.116  20.784  0.00  0.00    +0.000 C 
BRANCH  24  25
ATOM     25  C   UNL     1      -1.087  12.699  21.001  0.00  0.00    +0.000 A 
ATOM     26  N   UNL     1      -2.112  12.417  20.129  0.00  0.00    +0.000 NA
ATOM     27  C   UNL     1      -3.186  13.009  20.625  0.00  0.00    +0.000 A 
ATOM     28  O   UNL     1      -2.895  13.692  21.797  0.00  0.00    +0.000 OA
ATOM     29  C   UNL     1      -1.567  13.480  22.025  0.00  0.00    +0.000 A 
ATOM     30  C   UNL     1      -0.988  14.064  23.245  0.00  0.00    +0.000 C 
BRANCH  27  31
ATOM     31  C   UNL     1      -4.504  12.980  20.089  0.00  0.00    +0.000 C 
ATOM     32  C   UNL     1      -4.856  12.090  19.146  0.00  0.00    +0.000 C 
BRANCH  32  33
ATOM     33  C   UNL     1      -6.221  12.025  18.526  0.00  0.00    +0.000 C 
BRANCH  33  34
ATOM     34  C   UNL     1      -6.825  10.622  18.636  0.00  0.00    +0.000 C 
BRANCH  34  35
ATOM     35  C   UNL     1      -6.958  10.130  20.091  0.00  0.00    +0.000 C 
ATOM     36  C   UNL     1      -7.916  10.992  20.916  0.00  0.00    +0.000 C 
ATOM     37  C   UNL     1      -7.433   8.675  20.109  0.00  0.00    +0.000 C 
ENDBRANCH  34  35
ENDBRANCH  33  34
ENDBRANCH  32  33
ENDBRANCH  27  31
ENDBRANCH  24  25
ENDBRANCH  23  24
ENDBRANCH  22  23
ENDBRANCH   7  22
TORSDOF 14
ENDMDL
MODEL 8
REMARK VINA RESULT:      -7.3      2.906      7.983
REMARK  Name = 
REMARK  18 active torsions:
REMARK  status: ('A' for Active; 'I' for Inactive)
REMARK    1  A    between atoms: C_1  and  C_2
REMARK    2  A    between atoms: C_2  and  C_3
REMARK    3  A    between atoms: C_3  and  C_4
REMARK    4  A    between atoms: C_4  and  C_5
REMARK    5  A    between atoms: C_5  and  C_6
REMARK    6  A    between atoms: C_12  and  O_13
REMARK    7  A    between atoms: O_13  and  C_14
REMARK    8  A    between atoms: C_14  and  C_15
REMARK    9  A    between atoms: C_15  and  C_16
REMARK   10  A    between atoms: C_18  and  C_19
REMARK   11  A    between atoms: C_20  and  C_21
REMARK   12  A    between atoms: C_21  and  C_22
REMARK   13  A    between atoms: C_22  and  C_23
REMARK   14  A    between atoms: C_23  and  C_24
REMARK   15  A    between atoms: C_23  and  C_25
REMARK   16  A    between atoms: C_27  and  C_28
REMARK   17  A    between atoms: C_33  and  C_34
REMARK   18  A    between atoms: C_34  and  O_36
REMARK                            x       y       z     vdW  Elec       q    Type
REMARK                         _______ _______ _______ _____ _____    ______ ____
ROOT
ATOM      1  C   UNL     1       5.706   4.929  17.730  0.00  0.00    +0.000 C 
ATOM      2  O   UNL     1       6.532   4.058  18.007  0.00  0.00    +0.000 OA
ATOM      3  N   UNL     1       4.403   4.842  18.207  0.00  0.00    +0.000 N 
ATOM      4  C   UNL     1       3.366   5.790  17.767  0.00  0.00    +0.000 C 
ATOM      5  C   UNL     1       2.647   6.451  18.910  0.00  0.00    +0.000 A 
ATOM      6  C   UNL     1       2.304   7.808  18.888  0.00  0.00    +0.000 A 
ATOM      7  C   UNL     1       1.519   8.354  19.906  0.00  0.00    +0.000 A 
ATOM      8  C   UNL     1       1.092   7.535  20.954  0.00  0.00    +0.000 A 
ATOM      9  C   UNL     1       1.441   6.184  20.988  0.00  0.00    +0.000 A 
ATOM     10  C   UNL     1       2.237   5.647  19.976  0.00  0.00    +0.000 A 
ATOM     11  C   UNL     1       2.656   4.205  19.944  0.00  0.00    +0.000 C 
ATOM     12  C   UNL     1       4.126   4.048  19.458  0.00  0.00    +0.000 C 
ENDROOT
BRANCH  12  13
ATOM     13  C   UNL     1       4.401   2.522  19.527  0.00  0.00    +0.000 C 
ATOM     14  O   UNL     1       5.004   2.000  20.461  0.00  0.00    +0.000 OA
BRANCH  13  15
ATOM     15  O   UNL     1       4.025   1.779  18.471  0.00  0.00    +0.000 OA
ATOM     16  H   UNL     1       4.687   1.083  18.248  0.00  0.00    +0.000 HD
ENDBRANCH  13  15
ENDBRANCH  12  13
BRANCH   1  17
ATOM     17  C   UNL     1       6.053   6.112  16.845  0.00  0.00    +0.000 C 
BRANCH  17  18
ATOM     18  C   UNL     1       6.353   7.409  17.587  0.00  0.00    +0.000 C 
BRANCH  18  19
ATOM     19  C   UNL     1       7.818   7.786  17.350  0.00  0.00    +0.000 C 
BRANCH  19  21
ATOM     20  C   UNL     1       8.737   9.903  18.322  0.00  0.00    +0.000 C 
ATOM     21  C   UNL     1       8.456   8.430  18.574  0.00  0.00    +0.000 C 
ENDBRANCH  19  21
ENDBRANCH  18  19
ENDBRANCH  17  18
ENDBRANCH   1  17
BRANCH   7  22
ATOM     22  O   UNL     1       1.124   9.664  19.983  0.00  0.00    +0.000 OA
BRANCH  22  23
ATOM     23  C   UNL     1      -0.144   9.878  20.612  0.00  0.00    +0.000 C 
BRANCH  23  24
ATOM     24  C   UNL     1      -0.029  10.997  21.639  0.00  0.00    +0.000 C 
BRANCH  24  25
ATOM     25  C   UNL     1       0.518  12.226  21.006  0.00  0.00    +0.000 A 
ATOM     26  N   UNL     1       1.874  12.456  20.998  0.00  0.00    +0.000 NA
ATOM     27  C   UNL     1       2.050  13.571  20.307  0.00  0.00    +0.000 A 
ATOM     28  O   UNL     1       0.843  14.095  19.870  0.00  0.00    +0.000 OA
ATOM     29  C   UNL     1      -0.115  13.230  20.314  0.00  0.00    +0.000 A 
ATOM     30  C   UNL     1      -1.511  13.522  19.952  0.00  0.00    +0.000 C 
BRANCH  27  31
ATOM     31  C   UNL     1       3.290  14.200  19.998  0.00  0.00    +0.000 C 
ATOM     32  C   UNL     1       3.418  15.007  18.932  0.00  0.00    +0.000 C 
BRANCH  32  33
ATOM     33  C   UNL     1       4.701  15.678  18.541  0.00  0.00    +0.000 C 
BRANCH  33  34
ATOM     34  C   UNL     1       5.670  14.699  17.871  0.00  0.00    +0.000 C 
BRANCH  34  35
ATOM     35  C   UNL     1       7.134  15.180  17.894  0.00  0.00    +0.000 C 
ATOM     36  C   UNL     1       7.284  16.570  18.515  0.00  0.00    +0.000 C 
ATOM     37  C   UNL     1       8.000  14.179  18.662  0.00  0.00    +0.000 C 
ENDBRANCH  34  35
ENDBRANCH  33  34
ENDBRANCH  32  33
ENDBRANCH  27  31
ENDBRANCH  24  25
ENDBRANCH  23  24
ENDBRANCH  22  23
ENDBRANCH   7  22
TORSDOF 14
ENDMDL
MODEL 9
REMARK VINA RESULT:      -7.3      3.940     10.495
REMARK  Name = 
REMARK  18 active torsions:
REMARK  status: ('A' for Active; 'I' for Inactive)
REMARK    1  A    between atoms: C_1  and  C_2
REMARK    2  A    between atoms: C_2  and  C_3
REMARK    3  A    between atoms: C_3  and  C_4
REMARK    4  A    between atoms: C_4  and  C_5
REMARK    5  A    between atoms: C_5  and  C_6
REMARK    6  A    between atoms: C_12  and  O_13
REMARK    7  A    between atoms: O_13  and  C_14
REMARK    8  A    between atoms: C_14  and  C_15
REMARK    9  A    between atoms: C_15  and  C_16
REMARK   10  A    between atoms: C_18  and  C_19
REMARK   11  A    between atoms: C_20  and  C_21
REMARK   12  A    between atoms: C_21  and  C_22
REMARK   13  A    between atoms: C_22  and  C_23
REMARK   14  A    between atoms: C_23  and  C_24
REMARK   15  A    between atoms: C_23  and  C_25
REMARK   16  A    between atoms: C_27  and  C_28
REMARK   17  A    between atoms: C_33  and  C_34
REMARK   18  A    between atoms: C_34  and  O_36
REMARK                            x       y       z     vdW  Elec       q    Type
REMARK                         _______ _______ _______ _____ _____    ______ ____
ROOT
ATOM      1  C   UNL     1       5.812   4.902  17.840  0.00  0.00    +0.000 C 
ATOM      2  O   UNL     1       6.618   4.035  18.177  0.00  0.00    +0.000 OA
ATOM      3  N   UNL     1       4.492   4.844  18.273  0.00  0.00    +0.000 N 
ATOM      4  C   UNL     1       3.481   5.785  17.762  0.00  0.00    +0.000 C 
ATOM      5  C   UNL     1       2.728   6.494  18.854  0.00  0.00    +0.000 A 
ATOM      6  C   UNL     1       2.401   7.852  18.769  0.00  0.00    +0.000 A 
ATOM      7  C   UNL     1       1.586   8.442  19.738  0.00  0.00    +0.000 A 
ATOM      8  C   UNL     1       1.114   7.667  20.800  0.00  0.00    +0.000 A 
ATOM      9  C   UNL     1       1.448   6.315  20.896  0.00  0.00    +0.000 A 
ATOM     10  C   UNL     1       2.274   5.733  19.933  0.00  0.00    +0.000 A 
ATOM     11  C   UNL     1       2.678   4.288  19.969  0.00  0.00    +0.000 C 
ATOM     12  C   UNL     1       4.163   4.100  19.542  0.00  0.00    +0.000 C 
ENDROOT
BRANCH  12  13
ATOM     13  C   UNL     1       4.421   2.576  19.677  0.00  0.00    +0.000 C 
ATOM     14  O   UNL     1       4.975   2.082  20.655  0.00  0.00    +0.000 OA
BRANCH  13  15
ATOM     15  O   UNL     1       4.086   1.798  18.631  0.00  0.00    +0.000 OA
ATOM     16  H   UNL     1       4.385   0.865  18.746  0.00  0.00    +0.000 HD
ENDBRANCH  13  15
ENDBRANCH  12  13
BRANCH   1  17
ATOM     17  C   UNL     1       6.202   6.048  16.924  0.00  0.00    +0.000 C 
BRANCH  17  18
ATOM     18  C   UNL     1       6.745   5.633  15.562  0.00  0.00    +0.000 C 
BRANCH  18  19
ATOM     19  C   UNL     1       5.614   4.988  14.756  0.00  0.00    +0.000 C 
BRANCH  19  21
ATOM     20  C   UNL     1       6.534   3.904  12.694  0.00  0.00    +0.000 C 
ATOM     21  C   UNL     1       6.038   3.674  14.113  0.00  0.00    +0.000 C 
ENDBRANCH  19  21
ENDBRANCH  18  19
ENDBRANCH  17  18
ENDBRANCH   1  17
BRANCH   7  22
ATOM     22  O   UNL     1       1.201   9.758  19.753  0.00  0.00    +0.000 OA
BRANCH  22  23
ATOM     23  C   UNL     1       0.003  10.047  19.027  0.00  0.00    +0.000 C 
BRANCH  23  24
ATOM     24  C   UNL     1      -0.071  11.538  18.724  0.00  0.00    +0.000 C 
BRANCH  24  25
ATOM     25  C   UNL     1      -1.030  12.205  19.643  0.00  0.00    +0.000 A 
ATOM     26  N   UNL     1      -2.385  12.053  19.462  0.00  0.00    +0.000 NA
ATOM     27  C   UNL     1      -2.961  12.692  20.466  0.00  0.00    +0.000 A 
ATOM     28  O   UNL     1      -2.022  13.280  21.301  0.00  0.00    +0.000 OA
ATOM     29  C   UNL     1      -0.807  12.957  20.771  0.00  0.00    +0.000 A 
ATOM     30  C   UNL     1       0.389  13.422  21.490  0.00  0.00    +0.000 C 
BRANCH  27  31
ATOM     31  C   UNL     1      -4.357  12.793  20.728  0.00  0.00    +0.000 C 
ATOM     32  C   UNL     1      -4.831  12.841  21.984  0.00  0.00    +0.000 C 
BRANCH  32  33
ATOM     33  C   UNL     1      -6.289  12.922  22.325  0.00  0.00    +0.000 C 
BRANCH  33  34
ATOM     34  C   UNL     1      -6.508  13.448  23.747  0.00  0.00    +0.000 C 
BRANCH  34  35
ATOM     35  C   UNL     1      -6.837  14.953  23.795  0.00  0.00    +0.000 C 
ATOM     36  C   UNL     1      -5.585  15.822  23.930  0.00  0.00    +0.000 C 
ATOM     37  C   UNL     1      -7.610  15.358  22.538  0.00  0.00    +0.000 C 
ENDBRANCH  34  35
ENDBRANCH  33  34
ENDBRANCH  32  33
ENDBRANCH  27  31
ENDBRANCH  24  25
ENDBRANCH  23  24
ENDBRANCH  22  23
ENDBRANCH   7  22
TORSDOF 14
ENDMDL
