MODEL 1
REMARK VINA RESULT:      -7.3      0.000      0.000
REMARK  Name = 
REMARK  4 active torsions:
REMARK  status: ('A' for Active; 'I' for Inactive)
REMARK    1  A    between atoms: C_1  and  C_2
REMARK    2  A    between atoms: C_8  and  C_9
REMARK    3  A    between atoms: C_21  and  N_22
REMARK    4  A    between atoms: N_22  and  C_23
REMARK                            x       y       z     vdW  Elec       q    Type
REMARK                         _______ _______ _______ _____ _____    ______ ____
ROOT
ATOM      1  C   UNL     1      -2.671  10.165  15.618  0.00  0.00    +0.000 C 
ATOM      2  C   UNL     1      -2.410  10.680  16.999  0.00  0.00    +0.000 A 
ATOM      3  N   UNL     1      -1.301  10.159  17.580  0.00  0.00    +0.000 NA
ATOM      4  C   UNL     1      -1.060  10.495  18.850  0.00  0.00    +0.000 A 
ATOM      5  C   UNL     1       0.049   9.917  19.448  0.00  0.00    +0.000 A 
ATOM      6  C   UNL     1       0.380  10.198  20.765  0.00  0.00    +0.000 A 
ATOM      7  C   UNL     1      -0.430  11.058  21.490  0.00  0.00    +0.000 A 
ATOM      8  C   UNL     1      -1.573  11.638  20.909  0.00  0.00    +0.000 A 
ATOM      9  C   UNL     1      -1.902  11.378  19.562  0.00  0.00    +0.000 A 
ATOM     10  N   UNL     1      -2.994  11.928  18.944  0.00  0.00    +0.000 NA
ATOM     11  C   UNL     1      -3.262  11.578  17.667  0.00  0.00    +0.000 A 
ENDROOT
BRANCH   8  12
ATOM     12  C   UNL     1      -2.404  12.510  21.758  0.00  0.00    +0.000 A 
ATOM     13  C   UNL     1      -2.129  13.098  22.984  0.00  0.00    +0.000 A 
ATOM     14  C   UNL     1      -3.244  13.886  23.355  0.00  0.00    +0.000 A 
ATOM     15  C   UNL     1      -4.180  13.742  22.362  0.00  0.00    +0.000 A 
ATOM     16  N   UNL     1      -3.690  12.897  21.408  0.00  0.00    +0.000 N 
ATOM     17  C   UNL     1      -5.499  14.427  22.333  0.00  0.00    +0.000 C 
ATOM     18  C   UNL     1      -5.825  14.938  23.755  0.00  0.00    +0.000 C 
ATOM     19  N   UNL     1      -4.670  15.398  24.524  0.00  0.00    +0.000 N 
ATOM     20  C   UNL     1      -3.455  14.740  24.511  0.00  0.00    +0.000 C 
ATOM     21  O   UNL     1      -2.631  14.898  25.404  0.00  0.00    +0.000 OA
ATOM     22  H   UNL     1      -4.156  12.583  20.567  0.00  0.00    +0.000 HD
ATOM     23  H   UNL     1      -4.828  15.910  25.382  0.00  0.00    +0.000 HD
ENDBRANCH   8  12
BRANCH  11  24
ATOM     24  N   UNL     1      -4.420  12.050  17.064  0.00  0.00    +0.000 N 
ATOM     25  H   UNL     1      -4.321  12.973  16.657  0.00  0.00    +0.000 HD
BRANCH  24  26
ATOM     26  C   UNL     1      -5.762  11.711  17.564  0.00  0.00    +0.000 C 
ATOM     27  C   UNL     1      -6.264  12.969  18.300  0.00  0.00    +0.000 C 
ATOM     28  C   UNL     1      -7.278  12.733  19.409  0.00  0.00    +0.000 C 
ATOM     29  C   UNL     1      -6.960  11.491  20.217  0.00  0.00    +0.000 C 
ATOM     30  O   UNL     1      -6.881  10.369  19.343  0.00  0.00    +0.000 OA
ATOM     31  C   UNL     1      -5.760  10.450  18.457  0.00  0.00    +0.000 C 
ENDBRANCH  24  26
ENDBRANCH  11  24
TORSDOF 3
ENDMDL
MODEL 2
REMARK VINA RESULT:      -7.3      1.123      1.176
REMARK  Name = 
REMARK  4 active torsions:
REMARK  status: ('A' for Active; 'I' for Inactive)
REMARK    1  A    between atoms: C_1  and  C_2
REMARK    2  A    between atoms: C_8  and  C_9
REMARK    3  A    between atoms: C_21  and  N_22
REMARK    4  A    between atoms: N_22  and  C_23
REMARK                            x       y       z     vdW  Elec       q    Type
REMARK                         _______ _______ _______ _____ _____    ______ ____
ROOT
ATOM      1  C   UNL     1      -3.798  10.159  15.095  0.00  0.00    +0.000 C 
ATOM      2  C   UNL     1      -3.295  10.702  16.396  0.00  0.00    +0.000 A 
ATOM      3  N   UNL     1      -2.048  10.281  16.722  0.00  0.00    +0.000 NA
ATOM      4  C   UNL     1      -1.572  10.644  17.916  0.00  0.00    +0.000 A 
ATOM      5  C   UNL     1      -0.315  10.166  18.257  0.00  0.00    +0.000 A 
ATOM      6  C   UNL     1       0.262  10.481  19.477  0.00  0.00    +0.000 A 
ATOM      7  C   UNL     1      -0.445  11.273  20.369  0.00  0.00    +0.000 A 
ATOM      8  C   UNL     1      -1.731  11.749  20.052  0.00  0.00    +0.000 A 
ATOM      9  C   UNL     1      -2.315  11.454  18.801  0.00  0.00    +0.000 A 
ATOM     10  N   UNL     1      -3.556  11.905  18.436  0.00  0.00    +0.000 NA
ATOM     11  C   UNL     1      -4.059  11.526  17.241  0.00  0.00    +0.000 A 
ENDROOT
BRANCH   8  12
ATOM     12  C   UNL     1      -2.433  12.551  21.069  0.00  0.00    +0.000 A 
ATOM     13  C   UNL     1      -2.913  12.195  22.321  0.00  0.00    +0.000 A 
ATOM     14  C   UNL     1      -3.465  13.348  22.926  0.00  0.00    +0.000 A 
ATOM     15  C   UNL     1      -3.331  14.373  22.023  0.00  0.00    +0.000 A 
ATOM     16  N   UNL     1      -2.731  13.895  20.894  0.00  0.00    +0.000 N 
ATOM     17  C   UNL     1      -3.752  15.778  22.265  0.00  0.00    +0.000 C 
ATOM     18  C   UNL     1      -4.738  15.804  23.455  0.00  0.00    +0.000 C 
ATOM     19  N   UNL     1      -4.457  14.830  24.509  0.00  0.00    +0.000 N 
ATOM     20  C   UNL     1      -4.052  13.536  24.241  0.00  0.00    +0.000 C 
ATOM     21  O   UNL     1      -4.170  12.643  25.072  0.00  0.00    +0.000 OA
ATOM     22  H   UNL     1      -2.517  14.406  20.047  0.00  0.00    +0.000 HD
ATOM     23  H   UNL     1      -4.945  14.912  25.391  0.00  0.00    +0.000 HD
ENDBRANCH   8  12
BRANCH  11  24
ATOM     24  N   UNL     1      -5.354  11.895  16.904  0.00  0.00    +0.000 N 
ATOM     25  H   UNL     1      -5.409  12.755  16.373  0.00  0.00    +0.000 HD
BRANCH  24  26
ATOM     26  C   UNL     1      -6.506  11.603  17.773  0.00  0.00    +0.000 C 
ATOM     27  C   UNL     1      -6.771  12.901  18.563  0.00  0.00    +0.000 C 
ATOM     28  C   UNL     1      -7.437  12.729  19.920  0.00  0.00    +0.000 C 
ATOM     29  C   UNL     1      -6.917  11.515  20.662  0.00  0.00    +0.000 C 
ATOM     30  O   UNL     1      -7.095  10.357  19.851  0.00  0.00    +0.000 OA
ATOM     31  C   UNL     1      -6.266  10.379  18.685  0.00  0.00    +0.000 C 
ENDBRANCH  24  26
ENDBRANCH  11  24
TORSDOF 3
ENDMDL
MODEL 3
REMARK VINA RESULT:      -7.2      6.822     10.782
REMARK  Name = 
REMARK  4 active torsions:
REMARK  status: ('A' for Active; 'I' for Inactive)
REMARK    1  A    between atoms: C_1  and  C_2
REMARK    2  A    between atoms: C_8  and  C_9
REMARK    3  A    between atoms: C_21  and  N_22
REMARK    4  A    between atoms: N_22  and  C_23
REMARK                            x       y       z     vdW  Elec       q    Type
REMARK                         _______ _______ _______ _____ _____    ______ ____
ROOT
ATOM      1  C   UNL     1       0.470   8.703  21.481  0.00  0.00    +0.000 C 
ATOM      2  C   UNL     1       1.196   7.663  20.687  0.00  0.00    +0.000 A 
ATOM      3  N   UNL     1       1.001   6.397  21.131  0.00  0.00    +0.000 NA
ATOM      4  C   UNL     1       1.697   5.425  20.534  0.00  0.00    +0.000 A 
ATOM      5  C   UNL     1       1.525   4.141  21.030  0.00  0.00    +0.000 A 
ATOM      6  C   UNL     1       2.208   3.066  20.483  0.00  0.00    +0.000 A 
ATOM      7  C   UNL     1       3.088   3.294  19.436  0.00  0.00    +0.000 A 
ATOM      8  C   UNL     1       3.294   4.592  18.933  0.00  0.00    +0.000 A 
ATOM      9  C   UNL     1       2.583   5.688  19.467  0.00  0.00    +0.000 A 
ATOM     10  N   UNL     1       2.735   6.969  19.005  0.00  0.00    +0.000 NA
ATOM     11  C   UNL     1       2.055   7.964  19.614  0.00  0.00    +0.000 A 
ENDROOT
BRANCH   8  12
ATOM     12  C   UNL     1       4.276   4.756  17.846  0.00  0.00    +0.000 A 
ATOM     13  C   UNL     1       5.329   5.649  17.713  0.00  0.00    +0.000 A 
ATOM     14  C   UNL     1       6.002   5.359  16.503  0.00  0.00    +0.000 A 
ATOM     15  C   UNL     1       5.332   4.316  15.916  0.00  0.00    +0.000 A 
ATOM     16  N   UNL     1       4.278   3.962  16.708  0.00  0.00    +0.000 N 
ATOM     17  C   UNL     1       5.724   3.668  14.636  0.00  0.00    +0.000 C 
ATOM     18  C   UNL     1       6.683   4.610  13.875  0.00  0.00    +0.000 C 
ATOM     19  N   UNL     1       7.589   5.383  14.723  0.00  0.00    +0.000 N 
ATOM     20  C   UNL     1       7.188   5.956  15.916  0.00  0.00    +0.000 C 
ATOM     21  O   UNL     1       7.814   6.879  16.425  0.00  0.00    +0.000 OA
ATOM     22  H   UNL     1       3.590   3.241  16.532  0.00  0.00    +0.000 HD
ATOM     23  H   UNL     1       8.359   5.877  14.292  0.00  0.00    +0.000 HD
ENDBRANCH   8  12
BRANCH  11  24
ATOM     24  N   UNL     1       2.277   9.276  19.220  0.00  0.00    +0.000 N 
ATOM     25  H   UNL     1       2.723   9.846  19.929  0.00  0.00    +0.000 HD
BRANCH  24  26
ATOM     26  C   UNL     1       1.371   9.986  18.303  0.00  0.00    +0.000 C 
ATOM     27  C   UNL     1       0.956  11.275  19.041  0.00  0.00    +0.000 C 
ATOM     28  C   UNL     1      -0.392  11.861  18.650  0.00  0.00    +0.000 C 
ATOM     29  C   UNL     1      -1.434  10.787  18.412  0.00  0.00    +0.000 C 
ATOM     30  O   UNL     1      -0.958   9.882  17.419  0.00  0.00    +0.000 OA
ATOM     31  C   UNL     1       0.165   9.121  17.873  0.00  0.00    +0.000 C 
ENDBRANCH  24  26
ENDBRANCH  11  24
TORSDOF 3
ENDMDL
MODEL 4
REMARK VINA RESULT:      -7.2      0.933      1.065
REMARK  Name = 
REMARK  4 active torsions:
REMARK  status: ('A' for Active; 'I' for Inactive)
REMARK    1  A    between atoms: C_1  and  C_2
REMARK    2  A    between atoms: C_8  and  C_9
REMARK    3  A    between atoms: C_21  and  N_22
REMARK    4  A    between atoms: N_22  and  C_23
REMARK                            x       y       z     vdW  Elec       q    Type
REMARK                         _______ _______ _______ _____ _____    ______ ____
ROOT
ATOM      1  C   UNL     1      -3.632  10.304  15.089  0.00  0.00    +0.000 C 
ATOM      2  C   UNL     1      -3.013  10.716  16.387  0.00  0.00    +0.000 A 
ATOM      3  N   UNL     1      -1.850  10.078  16.668  0.00  0.00    +0.000 NA
ATOM      4  C   UNL     1      -1.291  10.320  17.857  0.00  0.00    +0.000 A 
ATOM      5  C   UNL     1      -0.128   9.625  18.152  0.00  0.00    +0.000 A 
ATOM      6  C   UNL     1       0.523   9.802  19.363  0.00  0.00    +0.000 A 
ATOM      7  C   UNL     1      -0.016  10.677  20.292  0.00  0.00    +0.000 A 
ATOM      8  C   UNL     1      -1.208  11.376  20.022  0.00  0.00    +0.000 A 
ATOM      9  C   UNL     1      -1.863  11.221  18.782  0.00  0.00    +0.000 A 
ATOM     10  N   UNL     1      -3.016  11.888  18.462  0.00  0.00    +0.000 NA
ATOM     11  C   UNL     1      -3.604  11.635  17.272  0.00  0.00    +0.000 A 
ENDROOT
BRANCH   8  12
ATOM     12  C   UNL     1      -1.738  12.258  21.077  0.00  0.00    +0.000 A 
ATOM     13  C   UNL     1      -1.088  12.910  22.115  0.00  0.00    +0.000 A 
ATOM     14  C   UNL     1      -2.045  13.676  22.821  0.00  0.00    +0.000 A 
ATOM     15  C   UNL     1      -3.256  13.455  22.216  0.00  0.00    +0.000 A 
ATOM     16  N   UNL     1      -3.083  12.584  21.179  0.00  0.00    +0.000 N 
ATOM     17  C   UNL     1      -4.536  14.093  22.621  0.00  0.00    +0.000 C 
ATOM     18  C   UNL     1      -4.380  14.658  24.051  0.00  0.00    +0.000 C 
ATOM     19  N   UNL     1      -3.054  15.191  24.362  0.00  0.00    +0.000 N 
ATOM     20  C   UNL     1      -1.887  14.574  23.952  0.00  0.00    +0.000 C 
ATOM     21  O   UNL     1      -0.816  14.801  24.502  0.00  0.00    +0.000 OA
ATOM     22  H   UNL     1      -3.793  12.217  20.559  0.00  0.00    +0.000 HD
ATOM     23  H   UNL     1      -2.933  15.736  25.205  0.00  0.00    +0.000 HD
ENDBRANCH   8  12
BRANCH  11  24
ATOM     24  N   UNL     1      -4.824  12.230  16.980  0.00  0.00    +0.000 N 
ATOM     25  H   UNL     1      -4.751  13.206  16.721  0.00  0.00    +0.000 HD
BRANCH  24  26
ATOM     26  C   UNL     1      -6.071  11.837  17.654  0.00  0.00    +0.000 C 
ATOM     27  C   UNL     1      -6.457  13.033  18.548  0.00  0.00    +0.000 C 
ATOM     28  C   UNL     1      -7.288  12.703  19.780  0.00  0.00    +0.000 C 
ATOM     29  C   UNL     1      -6.846  11.411  20.437  0.00  0.00    +0.000 C 
ATOM     30  O   UNL     1      -6.899  10.355  19.482  0.00  0.00    +0.000 OA
ATOM     31  C   UNL     1      -5.929  10.515  18.442  0.00  0.00    +0.000 C 
ENDBRANCH  24  26
ENDBRANCH  11  24
TORSDOF 3
ENDMDL
MODEL 5
REMARK VINA RESULT:      -7.2      1.593      1.944
REMARK  Name = 
REMARK  4 active torsions:
REMARK  status: ('A' for Active; 'I' for Inactive)
REMARK    1  A    between atoms: C_1  and  C_2
REMARK    2  A    between atoms: C_8  and  C_9
REMARK    3  A    between atoms: C_21  and  N_22
REMARK    4  A    between atoms: N_22  and  C_23
REMARK                            x       y       z     vdW  Elec       q    Type
REMARK                         _______ _______ _______ _____ _____    ______ ____
ROOT
ATOM      1  C   UNL     1      -2.626  10.305  15.835  0.00  0.00    +0.000 C 
ATOM      2  C   UNL     1      -2.139  10.684  17.199  0.00  0.00    +0.000 A 
ATOM      3  N   UNL     1      -1.008  10.038  17.578  0.00  0.00    +0.000 NA
ATOM      4  C   UNL     1      -0.570  10.249  18.822  0.00  0.00    +0.000 A 
ATOM      5  C   UNL     1       0.558   9.545  19.214  0.00  0.00    +0.000 A 
ATOM      6  C   UNL     1       1.086   9.691  20.487  0.00  0.00    +0.000 A 
ATOM      7  C   UNL     1       0.456  10.543  21.380  0.00  0.00    +0.000 A 
ATOM      8  C   UNL     1      -0.704  11.250  21.011  0.00  0.00    +0.000 A 
ATOM      9  C   UNL     1      -1.233  11.127  19.708  0.00  0.00    +0.000 A 
ATOM     10  N   UNL     1      -2.349  11.803  19.292  0.00  0.00    +0.000 NA
ATOM     11  C   UNL     1      -2.816  11.581  18.044  0.00  0.00    +0.000 A 
ENDROOT
BRANCH   8  12
ATOM     12  C   UNL     1      -1.338  12.105  22.030  0.00  0.00    +0.000 A 
ATOM     13  C   UNL     1      -2.558  11.979  22.678  0.00  0.00    +0.000 A 
ATOM     14  C   UNL     1      -2.675  13.039  23.608  0.00  0.00    +0.000 A 
ATOM     15  C   UNL     1      -1.539  13.799  23.489  0.00  0.00    +0.000 A 
ATOM     16  N   UNL     1      -0.739  13.256  22.525  0.00  0.00    +0.000 N 
ATOM     17  C   UNL     1      -1.232  15.001  24.308  0.00  0.00    +0.000 C 
ATOM     18  C   UNL     1      -2.539  15.505  24.960  0.00  0.00    +0.000 C 
ATOM     19  N   UNL     1      -3.479  14.455  25.350  0.00  0.00    +0.000 N 
ATOM     20  C   UNL     1      -3.723  13.343  24.565  0.00  0.00    +0.000 C 
ATOM     21  O   UNL     1      -4.741  12.674  24.703  0.00  0.00    +0.000 OA
ATOM     22  H   UNL     1       0.154  13.602  22.199  0.00  0.00    +0.000 HD
ATOM     23  H   UNL     1      -4.263  14.696  25.940  0.00  0.00    +0.000 HD
ENDBRANCH   8  12
BRANCH  11  24
ATOM     24  N   UNL     1      -4.002  12.184  17.647  0.00  0.00    +0.000 N 
ATOM     25  H   UNL     1      -3.871  13.070  17.174  0.00  0.00    +0.000 HD
BRANCH  24  26
ATOM     26  C   UNL     1      -5.250  12.045  18.415  0.00  0.00    +0.000 C 
ATOM     27  C   UNL     1      -6.385  12.405  17.435  0.00  0.00    +0.000 C 
ATOM     28  C   UNL     1      -7.659  12.950  18.062  0.00  0.00    +0.000 C 
ATOM     29  C   UNL     1      -7.370  13.882  19.221  0.00  0.00    +0.000 C 
ATOM     30  O   UNL     1      -6.572  13.201  20.185  0.00  0.00    +0.000 OA
ATOM     31  C   UNL     1      -5.259  12.911  19.694  0.00  0.00    +0.000 C 
ENDBRANCH  24  26
ENDBRANCH  11  24
TORSDOF 3
ENDMDL
MODEL 6
REMARK VINA RESULT:      -7.0      2.111      4.526
REMARK  Name = 
REMARK  4 active torsions:
REMARK  status: ('A' for Active; 'I' for Inactive)
REMARK    1  A    between atoms: C_1  and  C_2
REMARK    2  A    between atoms: C_8  and  C_9
REMARK    3  A    between atoms: C_21  and  N_22
REMARK    4  A    between atoms: N_22  and  C_23
REMARK                            x       y       z     vdW  Elec       q    Type
REMARK                         _______ _______ _______ _____ _____    ______ ____
ROOT
ATOM      1  C   UNL     1      -2.886  10.802  15.878  0.00  0.00    +0.000 C 
ATOM      2  C   UNL     1      -3.518  11.140  17.192  0.00  0.00    +0.000 A 
ATOM      3  N   UNL     1      -4.778  10.659  17.337  0.00  0.00    +0.000 NA
ATOM      4  C   UNL     1      -5.442  11.006  18.443  0.00  0.00    +0.000 A 
ATOM      5  C   UNL     1      -6.746  10.548  18.556  0.00  0.00    +0.000 A 
ATOM      6  C   UNL     1      -7.520  10.860  19.662  0.00  0.00    +0.000 A 
ATOM      7  C   UNL     1      -6.976  11.658  20.657  0.00  0.00    +0.000 A 
ATOM      8  C   UNL     1      -5.662  12.152  20.552  0.00  0.00    +0.000 A 
ATOM      9  C   UNL     1      -4.859  11.818  19.440  0.00  0.00    +0.000 A 
ATOM     10  N   UNL     1      -3.570  12.259  19.296  0.00  0.00    +0.000 NA
ATOM     11  C   UNL     1      -2.895  11.934  18.172  0.00  0.00    +0.000 A 
ENDROOT
BRANCH   8  12
ATOM     12  C   UNL     1      -5.172  13.026  21.632  0.00  0.00    +0.000 A 
ATOM     13  C   UNL     1      -5.337  14.389  21.831  0.00  0.00    +0.000 A 
ATOM     14  C   UNL     1      -4.709  14.735  23.051  0.00  0.00    +0.000 A 
ATOM     15  C   UNL     1      -4.156  13.585  23.553  0.00  0.00    +0.000 A 
ATOM     16  N   UNL     1      -4.411  12.555  22.694  0.00  0.00    +0.000 N 
ATOM     17  C   UNL     1      -3.425  13.488  24.845  0.00  0.00    +0.000 C 
ATOM     18  C   UNL     1      -3.004  14.909  25.285  0.00  0.00    +0.000 C 
ATOM     19  N   UNL     1      -3.957  15.966  24.950  0.00  0.00    +0.000 N 
ATOM     20  C   UNL     1      -4.629  16.010  23.742  0.00  0.00    +0.000 C 
ATOM     21  O   UNL     1      -5.126  17.049  23.323  0.00  0.00    +0.000 OA
ATOM     22  H   UNL     1      -4.115  11.592  22.782  0.00  0.00    +0.000 HD
ATOM     23  H   UNL     1      -3.836  16.880  25.363  0.00  0.00    +0.000 HD
ENDBRANCH   8  12
BRANCH  11  24
ATOM     24  N   UNL     1      -1.625  12.458  17.970  0.00  0.00    +0.000 N 
ATOM     25  H   UNL     1      -1.461  12.778  17.022  0.00  0.00    +0.000 HD
BRANCH  24  26
ATOM     26  C   UNL     1      -0.444  11.958  18.691  0.00  0.00    +0.000 C 
ATOM     27  C   UNL     1      -0.687  10.448  18.893  0.00  0.00    +0.000 C 
ATOM     28  C   UNL     1       0.002   9.818  20.094  0.00  0.00    +0.000 C 
ATOM     29  C   UNL     1      -0.013  10.729  21.304  0.00  0.00    +0.000 C 
ATOM     30  O   UNL     1       0.587  11.975  20.961  0.00  0.00    +0.000 OA
ATOM     31  C   UNL     1      -0.195  12.712  20.016  0.00  0.00    +0.000 C 
ENDBRANCH  24  26
ENDBRANCH  11  24
TORSDOF 3
ENDMDL
MODEL 7
REMARK VINA RESULT:      -7.0      2.363      4.803
REMARK  Name = 
REMARK  4 active torsions:
REMARK  status: ('A' for Active; 'I' for Inactive)
REMARK    1  A    between atoms: C_1  and  C_2
REMARK    2  A    between atoms: C_8  and  C_9
REMARK    3  A    between atoms: C_21  and  N_22
REMARK    4  A    between atoms: N_22  and  C_23
REMARK                            x       y       z     vdW  Elec       q    Type
REMARK                         _______ _______ _______ _____ _____    ______ ____
ROOT
ATOM      1  C   UNL     1      -3.739  10.773  15.898  0.00  0.00    +0.000 C 
ATOM      2  C   UNL     1      -4.085  11.197  17.291  0.00  0.00    +0.000 A 
ATOM      3  N   UNL     1      -5.372  10.948  17.639  0.00  0.00    +0.000 NA
ATOM      4  C   UNL     1      -5.780  11.390  18.831  0.00  0.00    +0.000 A 
ATOM      5  C   UNL     1      -7.111  11.173  19.154  0.00  0.00    +0.000 A 
ATOM      6  C   UNL     1      -7.633  11.600  20.364  0.00  0.00    +0.000 A 
ATOM      7  C   UNL     1      -6.805  12.270  21.251  0.00  0.00    +0.000 A 
ATOM      8  C   UNL     1      -5.457  12.522  20.934  0.00  0.00    +0.000 A 
ATOM      9  C   UNL     1      -4.911  12.067  19.714  0.00  0.00    +0.000 A 
ATOM     10  N   UNL     1      -3.604  12.272  19.363  0.00  0.00    +0.000 NA
ATOM     11  C   UNL     1      -3.183  11.850  18.150  0.00  0.00    +0.000 A 
ENDROOT
BRANCH   8  12
ATOM     12  C   UNL     1      -4.653  13.276  21.912  0.00  0.00    +0.000 A 
ATOM     13  C   UNL     1      -5.007  14.324  22.750  0.00  0.00    +0.000 A 
ATOM     14  C   UNL     1      -3.879  14.661  23.534  0.00  0.00    +0.000 A 
ATOM     15  C   UNL     1      -2.859  13.831  23.141  0.00  0.00    +0.000 A 
ATOM     16  N   UNL     1      -3.312  13.009  22.149  0.00  0.00    +0.000 N 
ATOM     17  C   UNL     1      -1.495  13.823  23.733  0.00  0.00    +0.000 C 
ATOM     18  C   UNL     1      -1.279  15.146  24.502  0.00  0.00    +0.000 C 
ATOM     19  N   UNL     1      -2.468  15.672  25.171  0.00  0.00    +0.000 N 
ATOM     20  C   UNL     1      -3.723  15.645  24.591  0.00  0.00    +0.000 C 
ATOM     21  O   UNL     1      -4.620  16.389  24.971  0.00  0.00    +0.000 OA
ATOM     22  H   UNL     1      -2.788  12.305  21.647  0.00  0.00    +0.000 HD
ATOM     23  H   UNL     1      -2.361  16.426  25.835  0.00  0.00    +0.000 HD
ENDBRANCH   8  12
BRANCH  11  24
ATOM     24  N   UNL     1      -1.888  12.141  17.744  0.00  0.00    +0.000 N 
ATOM     25  H   UNL     1      -1.626  11.702  16.869  0.00  0.00    +0.000 HD
BRANCH  24  26
ATOM     26  C   UNL     1      -0.794  12.362  18.703  0.00  0.00    +0.000 C 
ATOM     27  C   UNL     1      -0.224  13.756  18.372  0.00  0.00    +0.000 C 
ATOM     28  C   UNL     1       1.236  13.982  18.736  0.00  0.00    +0.000 C 
ATOM     29  C   UNL     1       2.088  12.760  18.462  0.00  0.00    +0.000 C 
ATOM     30  O   UNL     1       1.549  11.644  19.165  0.00  0.00    +0.000 OA
ATOM     31  C   UNL     1       0.273  11.246  18.654  0.00  0.00    +0.000 C 
ENDBRANCH  24  26
ENDBRANCH  11  24
TORSDOF 3
ENDMDL
MODEL 8
REMARK VINA RESULT:      -7.0      2.153      4.880
REMARK  Name = 
REMARK  4 active torsions:
REMARK  status: ('A' for Active; 'I' for Inactive)
REMARK    1  A    between atoms: C_1  and  C_2
REMARK    2  A    between atoms: C_8  and  C_9
REMARK    3  A    between atoms: C_21  and  N_22
REMARK    4  A    between atoms: N_22  and  C_23
REMARK                            x       y       z     vdW  Elec       q    Type
REMARK                         _______ _______ _______ _____ _____    ______ ____
ROOT
ATOM      1  C   UNL     1      -2.690  10.401  15.823  0.00  0.00    +0.000 C 
ATOM      2  C   UNL     1      -3.449  11.023  16.952  0.00  0.00    +0.000 A 
ATOM      3  N   UNL     1      -4.744  11.298  16.660  0.00  0.00    +0.000 NA
ATOM      4  C   UNL     1      -5.456  11.946  17.585  0.00  0.00    +0.000 A 
ATOM      5  C   UNL     1      -6.765  12.265  17.255  0.00  0.00    +0.000 A 
ATOM      6  C   UNL     1      -7.583  12.942  18.145  0.00  0.00    +0.000 A 
ATOM      7  C   UNL     1      -7.067  13.318  19.375  0.00  0.00    +0.000 A 
ATOM      8  C   UNL     1      -5.735  13.025  19.723  0.00  0.00    +0.000 A 
ATOM      9  C   UNL     1      -4.903  12.313  18.832  0.00  0.00    +0.000 A 
ATOM     10  N   UNL     1      -3.605  11.989  19.126  0.00  0.00    +0.000 NA
ATOM     11  C   UNL     1      -2.867  11.354  18.190  0.00  0.00    +0.000 A 
ENDROOT
BRANCH   8  12
ATOM     12  C   UNL     1      -5.251  13.494  21.033  0.00  0.00    +0.000 A 
ATOM     13  C   UNL     1      -5.138  14.779  21.543  0.00  0.00    +0.000 A 
ATOM     14  C   UNL     1      -4.664  14.686  22.872  0.00  0.00    +0.000 A 
ATOM     15  C   UNL     1      -4.475  13.352  23.134  0.00  0.00    +0.000 A 
ATOM     16  N   UNL     1      -4.805  12.630  22.023  0.00  0.00    +0.000 N 
ATOM     17  C   UNL     1      -4.013  12.799  24.434  0.00  0.00    +0.000 C 
ATOM     18  C   UNL     1      -3.365  13.937  25.256  0.00  0.00    +0.000 C 
ATOM     19  N   UNL     1      -3.987  15.249  25.089  0.00  0.00    +0.000 N 
ATOM     20  C   UNL     1      -4.419  15.719  23.862  0.00  0.00    +0.000 C 
ATOM     21  O   UNL     1      -4.592  16.916  23.661  0.00  0.00    +0.000 OA
ATOM     22  H   UNL     1      -4.752  11.627  21.903  0.00  0.00    +0.000 HD
ATOM     23  H   UNL     1      -3.736  15.993  25.726  0.00  0.00    +0.000 HD
ENDBRANCH   8  12
BRANCH  11  24
ATOM     24  N   UNL     1      -1.523  11.110  18.438  0.00  0.00    +0.000 N 
ATOM     25  H   UNL     1      -1.287  10.125  18.477  0.00  0.00    +0.000 HD
BRANCH  24  26
ATOM     26  C   UNL     1      -0.705  11.999  19.279  0.00  0.00    +0.000 C 
ATOM     27  C   UNL     1      -0.347  13.204  18.386  0.00  0.00    +0.000 C 
ATOM     28  C   UNL     1       0.942  13.932  18.735  0.00  0.00    +0.000 C 
ATOM     29  C   UNL     1       2.042  12.977  19.150  0.00  0.00    +0.000 C 
ATOM     30  O   UNL     1       1.588  12.181  20.241  0.00  0.00    +0.000 OA
ATOM     31  C   UNL     1       0.537  11.288  19.860  0.00  0.00    +0.000 C 
ENDBRANCH  24  26
ENDBRANCH  11  24
TORSDOF 3
ENDMDL
MODEL 9
REMARK VINA RESULT:      -6.9      6.933     10.249
REMARK  Name = 
REMARK  4 active torsions:
REMARK  status: ('A' for Active; 'I' for Inactive)
REMARK    1  A    between atoms: C_1  and  C_2
REMARK    2  A    between atoms: C_8  and  C_9
REMARK    3  A    between atoms: C_21  and  N_22
REMARK    4  A    between atoms: N_22  and  C_23
REMARK                            x       y       z     vdW  Elec       q    Type
REMARK                         _______ _______ _______ _____ _____    ______ ____
ROOT
ATOM      1  C   UNL     1       5.404   3.017  15.937  0.00  0.00    +0.000 C 
ATOM      2  C   UNL     1       4.543   3.673  16.970  0.00  0.00    +0.000 A 
ATOM      3  N   UNL     1       3.763   2.808  17.666  0.00  0.00    +0.000 NA
ATOM      4  C   UNL     1       2.896   3.331  18.536  0.00  0.00    +0.000 A 
ATOM      5  C   UNL     1       2.070   2.440  19.205  0.00  0.00    +0.000 A 
ATOM      6  C   UNL     1       1.132   2.885  20.122  0.00  0.00    +0.000 A 
ATOM      7  C   UNL     1       1.014   4.247  20.354  0.00  0.00    +0.000 A 
ATOM      8  C   UNL     1       1.827   5.170  19.670  0.00  0.00    +0.000 A 
ATOM      9  C   UNL     1       2.802   4.724  18.752  0.00  0.00    +0.000 A 
ATOM     10  N   UNL     1       3.628   5.578  18.072  0.00  0.00    +0.000 NA
ATOM     11  C   UNL     1       4.495   5.064  17.172  0.00  0.00    +0.000 A 
ENDROOT
BRANCH   8  12
ATOM     12  C   UNL     1       1.613   6.603  19.942  0.00  0.00    +0.000 A 
ATOM     13  C   UNL     1       1.299   7.256  21.125  0.00  0.00    +0.000 A 
ATOM     14  C   UNL     1       1.253   8.646  20.862  0.00  0.00    +0.000 A 
ATOM     15  C   UNL     1       1.516   8.805  19.524  0.00  0.00    +0.000 A 
ATOM     16  N   UNL     1       1.711   7.578  18.959  0.00  0.00    +0.000 N 
ATOM     17  C   UNL     1       1.599  10.115  18.826  0.00  0.00    +0.000 C 
ATOM     18  C   UNL     1       0.918  11.190  19.703  0.00  0.00    +0.000 C 
ATOM     19  N   UNL     1       1.086  11.008  21.144  0.00  0.00    +0.000 N 
ATOM     20  C   UNL     1       1.017   9.768  21.752  0.00  0.00    +0.000 C 
ATOM     21  O   UNL     1       0.795   9.655  22.952  0.00  0.00    +0.000 OA
ATOM     22  H   UNL     1       1.903   7.371  17.988  0.00  0.00    +0.000 HD
ATOM     23  H   UNL     1       0.827  11.762  21.765  0.00  0.00    +0.000 HD
ENDBRANCH   8  12
BRANCH  11  24
ATOM     24  N   UNL     1       5.266   5.927  16.405  0.00  0.00    +0.000 N 
ATOM     25  H   UNL     1       5.013   5.938  15.423  0.00  0.00    +0.000 HD
BRANCH  24  26
ATOM     26  C   UNL     1       6.681   6.195  16.705  0.00  0.00    +0.000 C 
ATOM     27  C   UNL     1       7.081   5.166  17.782  0.00  0.00    +0.000 C 
ATOM     28  C   UNL     1       8.216   5.578  18.707  0.00  0.00    +0.000 C 
ATOM     29  C   UNL     1       8.141   7.043  19.087  0.00  0.00    +0.000 C 
ATOM     30  O   UNL     1       8.128   7.835  17.903  0.00  0.00    +0.000 OA
ATOM     31  C   UNL     1       6.928   7.655  17.143  0.00  0.00    +0.000 C 
ENDBRANCH  24  26
ENDBRANCH  11  24
TORSDOF 3
ENDMDL
