MODEL 1
REMARK VINA RESULT:      -8.1      0.000      0.000
REMARK  Name = 
REMARK  16 active torsions:
REMARK  status: ('A' for Active; 'I' for Inactive)
REMARK    1  A    between atoms: C_1  and  C_2
REMARK    2  A    between atoms: C_2  and  C_3
REMARK    3  A    between atoms: C_3  and  C_4
REMARK    4  A    between atoms: C_4  and  C_5
REMARK    5  A    between atoms: C_5  and  C_6
REMARK    6  A    between atoms: C_6  and  N_7
REMARK    7  A    between atoms: N_7  and  C_8
REMARK    8  A    between atoms: N_7  and  C_14
REMARK    9  A    between atoms: C_8  and  C_9
REMARK   10  A    between atoms: C_9  and  C_10
REMARK   11  A    between atoms: C_10  and  C_11
REMARK   12  A    between atoms: C_11  and  C_12
REMARK   13  A    between atoms: C_12  and  C_13
REMARK   14  A    between atoms: C_14  and  C_15
REMARK   15  A    between atoms: C_15  and  O_16
REMARK   16  A    between atoms: C_15  and  C_17
REMARK                            x       y       z     vdW  Elec       q    Type
REMARK                         _______ _______ _______ _____ _____    ______ ____
ROOT
ATOM      1  C   UNL     1       4.254   4.092  16.816  0.00  0.00    +0.000 C 
ENDROOT
BRANCH   1   2
ATOM      2  C   UNL     1       3.479   4.848  17.920  0.00  0.00    +0.000 A 
ATOM      3  C   UNL     1       3.234   6.205  17.649  0.00  0.00    +0.000 A 
ATOM      4  C   UNL     1       2.565   7.035  18.541  0.00  0.00    +0.000 A 
ATOM      5  C   UNL     1       2.350   8.380  18.189  0.00  0.00    +0.000 A 
ATOM      6  C   UNL     1       1.669   9.235  19.047  0.00  0.00    +0.000 A 
ATOM      7  C   UNL     1       1.199   8.764  20.265  0.00  0.00    +0.000 A 
ATOM      8  C   UNL     1       1.413   7.434  20.639  0.00  0.00    +0.000 A 
ATOM      9  C   UNL     1       2.105   6.534  19.782  0.00  0.00    +0.000 A 
ATOM     10  C   UNL     1       2.350   5.167  20.113  0.00  0.00    +0.000 A 
ATOM     11  C   UNL     1       1.940   4.627  21.361  0.00  0.00    +0.000 A 
ATOM     12  C   UNL     1       2.178   3.298  21.688  0.00  0.00    +0.000 A 
ATOM     13  C   UNL     1       2.817   2.466  20.785  0.00  0.00    +0.000 A 
ATOM     14  C   UNL     1       3.233   2.954  19.553  0.00  0.00    +0.000 A 
ATOM     15  C   UNL     1       3.029   4.311  19.178  0.00  0.00    +0.000 A 
ENDBRANCH   1   2
BRANCH   1  16
ATOM     16  O   UNL     1       4.970   2.986  17.309  0.00  0.00    +0.000 OA
ATOM     17  H   UNL     1       4.342   2.313  17.656  0.00  0.00    +0.000 HD
ENDBRANCH   1  16
BRANCH   1  18
ATOM     18  C   UNL     1       5.118   5.055  15.967  0.00  0.00    +0.000 C 
BRANCH  18  19
ATOM     19  N   UNL     1       6.514   4.614  15.686  0.00  0.00    +0.000 NA
BRANCH  19  20
ATOM     20  C   UNL     1       6.782   4.717  14.218  0.00  0.00    +0.000 C 
BRANCH  20  21
ATOM     21  C   UNL     1       5.686   4.130  13.290  0.00  0.00    +0.000 C 
BRANCH  21  22
ATOM     22  C   UNL     1       6.261   3.230  12.171  0.00  0.00    +0.000 C 
BRANCH  22  23
ATOM     23  C   UNL     1       5.163   2.553  11.326  0.00  0.00    +0.000 C 
BRANCH  23  25
ATOM     24  C   UNL     1       3.309   3.544   9.934  0.00  0.00    +0.000 C 
ATOM     25  C   UNL     1       3.849   3.343  11.351  0.00  0.00    +0.000 C 
ENDBRANCH  23  25
ENDBRANCH  22  23
ENDBRANCH  21  22
ENDBRANCH  20  21
ENDBRANCH  19  20
BRANCH  19  26
ATOM     26  C   UNL     1       7.445   5.488  16.464  0.00  0.00    +0.000 C 
BRANCH  26  27
ATOM     27  C   UNL     1       6.762   6.292  17.605  0.00  0.00    +0.000 C 
BRANCH  27  28
ATOM     28  C   UNL     1       6.871   7.816  17.447  0.00  0.00    +0.000 C 
BRANCH  28  29
ATOM     29  C   UNL     1       8.272   8.317  17.816  0.00  0.00    +0.000 C 
BRANCH  29  30
ATOM     30  C   UNL     1       8.297   9.817  18.100  0.00  0.00    +0.000 C 
ATOM     31  C   UNL     1       9.209  10.098  19.291  0.00  0.00    +0.000 C 
ENDBRANCH  29  30
ENDBRANCH  28  29
ENDBRANCH  27  28
ENDBRANCH  26  27
ENDBRANCH  19  26
ENDBRANCH  18  19
ENDBRANCH   1  18
TORSDOF 14
ENDMDL
MODEL 2
REMARK VINA RESULT:      -7.5      0.848      1.374
REMARK  Name = 
REMARK  16 active torsions:
REMARK  status: ('A' for Active; 'I' for Inactive)
REMARK    1  A    between atoms: C_1  and  C_2
REMARK    2  A    between atoms: C_2  and  C_3
REMARK    3  A    between atoms: C_3  and  C_4
REMARK    4  A    between atoms: C_4  and  C_5
REMARK    5  A    between atoms: C_5  and  C_6
REMARK    6  A    between atoms: C_6  and  N_7
REMARK    7  A    between atoms: N_7  and  C_8
REMARK    8  A    between atoms: N_7  and  C_14
REMARK    9  A    between atoms: C_8  and  C_9
REMARK   10  A    between atoms: C_9  and  C_10
REMARK   11  A    between atoms: C_10  and  C_11
REMARK   12  A    between atoms: C_11  and  C_12
REMARK   13  A    between atoms: C_12  and  C_13
REMARK   14  A    between atoms: C_14  and  C_15
REMARK   15  A    between atoms: C_15  and  O_16
REMARK   16  A    between atoms: C_15  and  C_17
REMARK                            x       y       z     vdW  Elec       q    Type
REMARK                         _______ _______ _______ _____ _____    ______ ____
ROOT
ATOM      1  C   UNL     1       4.056   3.620  16.946  0.00  0.00    +0.000 C 
ENDROOT
BRANCH   1   2
ATOM      2  C   UNL     1       3.374   4.520  18.002  0.00  0.00    +0.000 A 
ATOM      3  C   UNL     1       3.204   5.861  17.617  0.00  0.00    +0.000 A 
ATOM      4  C   UNL     1       2.624   6.809  18.452  0.00  0.00    +0.000 A 
ATOM      5  C   UNL     1       2.480   8.128  17.986  0.00  0.00    +0.000 A 
ATOM      6  C   UNL     1       1.888   9.099  18.785  0.00  0.00    +0.000 A 
ATOM      7  C   UNL     1       1.438   8.770  20.056  0.00  0.00    +0.000 A 
ATOM      8  C   UNL     1       1.583   7.467  20.542  0.00  0.00    +0.000 A 
ATOM      9  C   UNL     1       2.183   6.452  19.748  0.00  0.00    +0.000 A 
ATOM     10  C   UNL     1       2.354   5.106  20.194  0.00  0.00    +0.000 A 
ATOM     11  C   UNL     1       1.960   4.707  21.498  0.00  0.00    +0.000 A 
ATOM     12  C   UNL     1       2.127   3.400  21.937  0.00  0.00    +0.000 A 
ATOM     13  C   UNL     1       2.677   2.451  21.093  0.00  0.00    +0.000 A 
ATOM     14  C   UNL     1       3.074   2.799  19.809  0.00  0.00    +0.000 A 
ATOM     15  C   UNL     1       2.941   4.128  19.318  0.00  0.00    +0.000 A 
ENDBRANCH   1   2
BRANCH   1  16
ATOM     16  O   UNL     1       4.936   2.680  17.514  0.00  0.00    +0.000 OA
ATOM     17  H   UNL     1       5.421   3.091  18.264  0.00  0.00    +0.000 HD
ENDBRANCH   1  16
BRANCH   1  18
ATOM     18  C   UNL     1       4.697   4.456  15.814  0.00  0.00    +0.000 C 
BRANCH  18  19
ATOM     19  N   UNL     1       6.170   4.308  15.637  0.00  0.00    +0.000 NA
BRANCH  19  20
ATOM     20  C   UNL     1       6.506   4.388  14.181  0.00  0.00    +0.000 C 
BRANCH  20  21
ATOM     21  C   UNL     1       5.407   3.888  13.207  0.00  0.00    +0.000 C 
BRANCH  21  22
ATOM     22  C   UNL     1       5.981   3.338  11.880  0.00  0.00    +0.000 C 
BRANCH  22  23
ATOM     23  C   UNL     1       5.264   2.058  11.405  0.00  0.00    +0.000 C 
BRANCH  23  25
ATOM     24  C   UNL     1       7.652   1.487  10.831  0.00  0.00    +0.000 C 
ATOM     25  C   UNL     1       6.252   0.928  11.091  0.00  0.00    +0.000 C 
ENDBRANCH  23  25
ENDBRANCH  22  23
ENDBRANCH  21  22
ENDBRANCH  20  21
ENDBRANCH  19  20
BRANCH  19  26
ATOM     26  C   UNL     1       6.845   5.398  16.404  0.00  0.00    +0.000 C 
BRANCH  26  27
ATOM     27  C   UNL     1       7.604   4.913  17.670  0.00  0.00    +0.000 C 
BRANCH  27  28
ATOM     28  C   UNL     1       7.369   5.787  18.912  0.00  0.00    +0.000 C 
BRANCH  28  29
ATOM     29  C   UNL     1       8.286   7.016  18.911  0.00  0.00    +0.000 C 
BRANCH  29  30
ATOM     30  C   UNL     1       7.880   8.043  17.856  0.00  0.00    +0.000 C 
ATOM     31  C   UNL     1       8.492   9.398  18.200  0.00  0.00    +0.000 C 
ENDBRANCH  29  30
ENDBRANCH  28  29
ENDBRANCH  27  28
ENDBRANCH  26  27
ENDBRANCH  19  26
ENDBRANCH  18  19
ENDBRANCH   1  18
TORSDOF 14
ENDMDL
MODEL 3
REMARK VINA RESULT:      -7.3      0.948      5.539
REMARK  Name = 
REMARK  16 active torsions:
REMARK  status: ('A' for Active; 'I' for Inactive)
REMARK    1  A    between atoms: C_1  and  C_2
REMARK    2  A    between atoms: C_2  and  C_3
REMARK    3  A    between atoms: C_3  and  C_4
REMARK    4  A    between atoms: C_4  and  C_5
REMARK    5  A    between atoms: C_5  and  C_6
REMARK    6  A    between atoms: C_6  and  N_7
REMARK    7  A    between atoms: N_7  and  C_8
REMARK    8  A    between atoms: N_7  and  C_14
REMARK    9  A    between atoms: C_8  and  C_9
REMARK   10  A    between atoms: C_9  and  C_10
REMARK   11  A    between atoms: C_10  and  C_11
REMARK   12  A    between atoms: C_11  and  C_12
REMARK   13  A    between atoms: C_12  and  C_13
REMARK   14  A    between atoms: C_14  and  C_15
REMARK   15  A    between atoms: C_15  and  O_16
REMARK   16  A    between atoms: C_15  and  C_17
REMARK                            x       y       z     vdW  Elec       q    Type
REMARK                         _______ _______ _______ _____ _____    ______ ____
ROOT
ATOM      1  C   UNL     1       4.262   5.195  16.918  0.00  0.00    +0.000 C 
ENDROOT
BRANCH   1   2
ATOM      2  C   UNL     1       3.389   5.665  18.104  0.00  0.00    +0.000 A 
ATOM      3  C   UNL     1       2.977   7.007  18.043  0.00  0.00    +0.000 A 
ATOM      4  C   UNL     1       2.201   7.596  19.035  0.00  0.00    +0.000 A 
ATOM      5  C   UNL     1       1.822   8.943  18.891  0.00  0.00    +0.000 A 
ATOM      6  C   UNL     1       1.031   9.560  19.853  0.00  0.00    +0.000 A 
ATOM      7  C   UNL     1       0.614   8.847  20.969  0.00  0.00    +0.000 A 
ATOM      8  C   UNL     1       0.991   7.511  21.135  0.00  0.00    +0.000 A 
ATOM      9  C   UNL     1       1.798   6.851  20.168  0.00  0.00    +0.000 A 
ATOM     10  C   UNL     1       2.209   5.489  20.287  0.00  0.00    +0.000 A 
ATOM     11  C   UNL     1       1.860   4.711  21.423  0.00  0.00    +0.000 A 
ATOM     12  C   UNL     1       2.260   3.387  21.544  0.00  0.00    +0.000 A 
ATOM     13  C   UNL     1       3.007   2.794  20.541  0.00  0.00    +0.000 A 
ATOM     14  C   UNL     1       3.369   3.519  19.413  0.00  0.00    +0.000 A 
ATOM     15  C   UNL     1       2.999   4.883  19.249  0.00  0.00    +0.000 A 
ENDBRANCH   1   2
BRANCH   1  16
ATOM     16  O   UNL     1       3.931   3.902  16.473  0.00  0.00    +0.000 OA
ATOM     17  H   UNL     1       4.744   3.350  16.423  0.00  0.00    +0.000 HD
ENDBRANCH   1  16
BRANCH   1  18
ATOM     18  C   UNL     1       5.769   5.376  17.215  0.00  0.00    +0.000 C 
BRANCH  18  19
ATOM     19  N   UNL     1       6.579   6.023  16.144  0.00  0.00    +0.000 NA
BRANCH  19  20
ATOM     20  C   UNL     1       7.689   6.810  16.769  0.00  0.00    +0.000 C 
BRANCH  20  21
ATOM     21  C   UNL     1       7.254   7.903  17.780  0.00  0.00    +0.000 C 
BRANCH  21  22
ATOM     22  C   UNL     1       8.146   9.166  17.724  0.00  0.00    +0.000 C 
BRANCH  22  23
ATOM     23  C   UNL     1       8.898   9.424  19.045  0.00  0.00    +0.000 C 
BRANCH  23  25
ATOM     24  C   UNL     1      10.119  11.245  17.798  0.00  0.00    +0.000 C 
ATOM     25  C   UNL     1       9.456  10.851  19.119  0.00  0.00    +0.000 C 
ENDBRANCH  23  25
ENDBRANCH  22  23
ENDBRANCH  21  22
ENDBRANCH  20  21
ENDBRANCH  19  20
BRANCH  19  26
ATOM     26  C   UNL     1       7.117   4.951  15.253  0.00  0.00    +0.000 C 
BRANCH  26  27
ATOM     27  C   UNL     1       6.271   4.699  13.975  0.00  0.00    +0.000 C 
BRANCH  27  28
ATOM     28  C   UNL     1       7.081   4.160  12.785  0.00  0.00    +0.000 C 
BRANCH  28  29
ATOM     29  C   UNL     1       6.234   3.230  11.909  0.00  0.00    +0.000 C 
BRANCH  29  30
ATOM     30  C   UNL     1       4.751   3.285  12.268  0.00  0.00    +0.000 C 
ATOM     31  C   UNL     1       3.915   3.294  10.990  0.00  0.00    +0.000 C 
ENDBRANCH  29  30
ENDBRANCH  28  29
ENDBRANCH  27  28
ENDBRANCH  26  27
ENDBRANCH  19  26
ENDBRANCH  18  19
ENDBRANCH   1  18
TORSDOF 14
ENDMDL
MODEL 4
REMARK VINA RESULT:      -7.3      0.979      1.427
REMARK  Name = 
REMARK  16 active torsions:
REMARK  status: ('A' for Active; 'I' for Inactive)
REMARK    1  A    between atoms: C_1  and  C_2
REMARK    2  A    between atoms: C_2  and  C_3
REMARK    3  A    between atoms: C_3  and  C_4
REMARK    4  A    between atoms: C_4  and  C_5
REMARK    5  A    between atoms: C_5  and  C_6
REMARK    6  A    between atoms: C_6  and  N_7
REMARK    7  A    between atoms: N_7  and  C_8
REMARK    8  A    between atoms: N_7  and  C_14
REMARK    9  A    between atoms: C_8  and  C_9
REMARK   10  A    between atoms: C_9  and  C_10
REMARK   11  A    between atoms: C_10  and  C_11
REMARK   12  A    between atoms: C_11  and  C_12
REMARK   13  A    between atoms: C_12  and  C_13
REMARK   14  A    between atoms: C_14  and  C_15
REMARK   15  A    between atoms: C_15  and  O_16
REMARK   16  A    between atoms: C_15  and  C_17
REMARK                            x       y       z     vdW  Elec       q    Type
REMARK                         _______ _______ _______ _____ _____    ______ ____
ROOT
ATOM      1  C   UNL     1       4.695   4.180  17.187  0.00  0.00    +0.000 C 
ENDROOT
BRANCH   1   2
ATOM      2  C   UNL     1       3.763   4.904  18.187  0.00  0.00    +0.000 A 
ATOM      3  C   UNL     1       3.457   6.235  17.856  0.00  0.00    +0.000 A 
ATOM      4  C   UNL     1       2.647   7.034  18.654  0.00  0.00    +0.000 A 
ATOM      5  C   UNL     1       2.380   8.354  18.245  0.00  0.00    +0.000 A 
ATOM      6  C   UNL     1       1.560   9.177  19.007  0.00  0.00    +0.000 A 
ATOM      7  C   UNL     1       1.002   8.700  20.185  0.00  0.00    +0.000 A 
ATOM      8  C   UNL     1       1.265   7.396  20.614  0.00  0.00    +0.000 A 
ATOM      9  C   UNL     1       2.099   6.529  19.856  0.00  0.00    +0.000 A 
ATOM     10  C   UNL     1       2.399   5.189  20.247  0.00  0.00    +0.000 A 
ATOM     11  C   UNL     1       1.901   4.648  21.462  0.00  0.00    +0.000 A 
ATOM     12  C   UNL     1       2.192   3.346  21.847  0.00  0.00    +0.000 A 
ATOM     13  C   UNL     1       2.974   2.541  21.037  0.00  0.00    +0.000 A 
ATOM     14  C   UNL     1       3.479   3.031  19.839  0.00  0.00    +0.000 A 
ATOM     15  C   UNL     1       3.225   4.363  19.408  0.00  0.00    +0.000 A 
ENDBRANCH   1   2
BRANCH   1  16
ATOM     16  O   UNL     1       4.522   2.784  17.190  0.00  0.00    +0.000 OA
ATOM     17  H   UNL     1       4.476   2.454  16.264  0.00  0.00    +0.000 HD
ENDBRANCH   1  16
BRANCH   1  18
ATOM     18  C   UNL     1       6.168   4.618  17.364  0.00  0.00    +0.000 C 
BRANCH  18  19
ATOM     19  N   UNL     1       6.677   5.628  16.394  0.00  0.00    +0.000 NA
BRANCH  19  20
ATOM     20  C   UNL     1       5.903   5.526  15.117  0.00  0.00    +0.000 C 
BRANCH  20  21
ATOM     21  C   UNL     1       6.014   4.171  14.369  0.00  0.00    +0.000 C 
BRANCH  21  22
ATOM     22  C   UNL     1       5.329   4.191  12.982  0.00  0.00    +0.000 C 
BRANCH  22  23
ATOM     23  C   UNL     1       5.510   2.869  12.209  0.00  0.00    +0.000 C 
BRANCH  23  25
ATOM     24  C   UNL     1       7.103   1.390  10.930  0.00  0.00    +0.000 C 
ATOM     25  C   UNL     1       6.892   2.772  11.551  0.00  0.00    +0.000 C 
ENDBRANCH  23  25
ENDBRANCH  22  23
ENDBRANCH  21  22
ENDBRANCH  20  21
ENDBRANCH  19  20
BRANCH  19  26
ATOM     26  C   UNL     1       6.523   6.983  17.007  0.00  0.00    +0.000 C 
BRANCH  26  27
ATOM     27  C   UNL     1       7.777   7.481  17.778  0.00  0.00    +0.000 C 
BRANCH  27  28
ATOM     28  C   UNL     1       7.996   9.000  17.699  0.00  0.00    +0.000 C 
BRANCH  28  29
ATOM     29  C   UNL     1       8.964   9.481  18.786  0.00  0.00    +0.000 C 
BRANCH  29  30
ATOM     30  C   UNL     1       9.111  11.001  18.802  0.00  0.00    +0.000 C 
ATOM     31  C   UNL     1      10.452  11.392  18.186  0.00  0.00    +0.000 C 
ENDBRANCH  29  30
ENDBRANCH  28  29
ENDBRANCH  27  28
ENDBRANCH  26  27
ENDBRANCH  19  26
ENDBRANCH  18  19
ENDBRANCH   1  18
TORSDOF 14
ENDMDL
MODEL 5
REMARK VINA RESULT:      -7.2      4.462      8.983
REMARK  Name = 
REMARK  16 active torsions:
REMARK  status: ('A' for Active; 'I' for Inactive)
REMARK    1  A    between atoms: C_1  and  C_2
REMARK    2  A    between atoms: C_2  and  C_3
REMARK    3  A    between atoms: C_3  and  C_4
REMARK    4  A    between atoms: C_4  and  C_5
REMARK    5  A    between atoms: C_5  and  C_6
REMARK    6  A    between atoms: C_6  and  N_7
REMARK    7  A    between atoms: N_7  and  C_8
REMARK    8  A    between atoms: N_7  and  C_14
REMARK    9  A    between atoms: C_8  and  C_9
REMARK   10  A    between atoms: C_9  and  C_10
REMARK   11  A    between atoms: C_10  and  C_11
REMARK   12  A    between atoms: C_11  and  C_12
REMARK   13  A    between atoms: C_12  and  C_13
REMARK   14  A    between atoms: C_14  and  C_15
REMARK   15  A    between atoms: C_15  and  O_16
REMARK   16  A    between atoms: C_15  and  C_17
REMARK                            x       y       z     vdW  Elec       q    Type
REMARK                         _______ _______ _______ _____ _____    ______ ____
ROOT
ATOM      1  C   UNL     1       1.619  10.126  18.369  0.00  0.00    +0.000 C 
ENDROOT
BRANCH   1   2
ATOM      2  C   UNL     1       0.259  10.796  18.672  0.00  0.00    +0.000 A 
ATOM      3  C   UNL     1      -0.854  10.169  18.088  0.00  0.00    +0.000 A 
ATOM      4  C   UNL     1      -2.149  10.650  18.245  0.00  0.00    +0.000 A 
ATOM      5  C   UNL     1      -3.210   9.956  17.636  0.00  0.00    +0.000 A 
ATOM      6  C   UNL     1      -4.520  10.396  17.786  0.00  0.00    +0.000 A 
ATOM      7  C   UNL     1      -4.787  11.531  18.539  0.00  0.00    +0.000 A 
ATOM      8  C   UNL     1      -3.745  12.241  19.142  0.00  0.00    +0.000 A 
ATOM      9  C   UNL     1      -2.395  11.815  19.008  0.00  0.00    +0.000 A 
ATOM     10  C   UNL     1      -1.294  12.501  19.604  0.00  0.00    +0.000 A 
ATOM     11  C   UNL     1      -1.485  13.695  20.349  0.00  0.00    +0.000 A 
ATOM     12  C   UNL     1      -0.417  14.366  20.928  0.00  0.00    +0.000 A 
ATOM     13  C   UNL     1       0.868  13.869  20.795  0.00  0.00    +0.000 A 
ATOM     14  C   UNL     1       1.100  12.704  20.076  0.00  0.00    +0.000 A 
ATOM     15  C   UNL     1       0.042  11.989  19.449  0.00  0.00    +0.000 A 
ENDBRANCH   1   2
BRANCH   1  16
ATOM     16  O   UNL     1       2.286  10.710  17.276  0.00  0.00    +0.000 OA
ATOM     17  H   UNL     1       1.849  10.441  16.438  0.00  0.00    +0.000 HD
ENDBRANCH   1  16
BRANCH   1  18
ATOM     18  C   UNL     1       1.484   8.589  18.255  0.00  0.00    +0.000 C 
BRANCH  18  19
ATOM     19  N   UNL     1       2.566   7.783  18.888  0.00  0.00    +0.000 NA
BRANCH  19  20
ATOM     20  C   UNL     1       2.049   7.156  20.145  0.00  0.00    +0.000 C 
BRANCH  20  21
ATOM     21  C   UNL     1       0.929   7.941  20.878  0.00  0.00    +0.000 C 
BRANCH  21  22
ATOM     22  C   UNL     1       1.454   8.758  22.081  0.00  0.00    +0.000 C 
BRANCH  22  23
ATOM     23  C   UNL     1       0.691  10.084  22.281  0.00  0.00    +0.000 C 
BRANCH  23  25
ATOM     24  C   UNL     1      -1.424  11.193  23.090  0.00  0.00    +0.000 C 
ATOM     25  C   UNL     1      -0.698   9.861  22.891  0.00  0.00    +0.000 C 
ENDBRANCH  23  25
ENDBRANCH  22  23
ENDBRANCH  21  22
ENDBRANCH  20  21
ENDBRANCH  19  20
BRANCH  19  26
ATOM     26  C   UNL     1       3.005   6.741  17.910  0.00  0.00    +0.000 C 
BRANCH  26  27
ATOM     27  C   UNL     1       2.835   5.281  18.414  0.00  0.00    +0.000 C 
BRANCH  27  28
ATOM     28  C   UNL     1       1.727   4.497  17.694  0.00  0.00    +0.000 C 
BRANCH  28  29
ATOM     29  C   UNL     1       1.286   3.277  18.511  0.00  0.00    +0.000 C 
BRANCH  29  30
ATOM     30  C   UNL     1       2.129   3.084  19.769  0.00  0.00    +0.000 C 
ATOM     31  C   UNL     1       1.228   3.128  21.001  0.00  0.00    +0.000 C 
ENDBRANCH  29  30
ENDBRANCH  28  29
ENDBRANCH  27  28
ENDBRANCH  26  27
ENDBRANCH  19  26
ENDBRANCH  18  19
ENDBRANCH   1  18
TORSDOF 14
ENDMDL
MODEL 6
REMARK VINA RESULT:      -7.2      0.970      1.321
REMARK  Name = 
REMARK  16 active torsions:
REMARK  status: ('A' for Active; 'I' for Inactive)
REMARK    1  A    between atoms: C_1  and  C_2
REMARK    2  A    between atoms: C_2  and  C_3
REMARK    3  A    between atoms: C_3  and  C_4
REMARK    4  A    between atoms: C_4  and  C_5
REMARK    5  A    between atoms: C_5  and  C_6
REMARK    6  A    between atoms: C_6  and  N_7
REMARK    7  A    between atoms: N_7  and  C_8
REMARK    8  A    between atoms: N_7  and  C_14
REMARK    9  A    between atoms: C_8  and  C_9
REMARK   10  A    between atoms: C_9  and  C_10
REMARK   11  A    between atoms: C_10  and  C_11
REMARK   12  A    between atoms: C_11  and  C_12
REMARK   13  A    between atoms: C_12  and  C_13
REMARK   14  A    between atoms: C_14  and  C_15
REMARK   15  A    between atoms: C_15  and  O_16
REMARK   16  A    between atoms: C_15  and  C_17
REMARK                            x       y       z     vdW  Elec       q    Type
REMARK                         _______ _______ _______ _____ _____    ______ ____
ROOT
ATOM      1  C   UNL     1       4.019   5.234  16.621  0.00  0.00    +0.000 C 
ENDROOT
BRANCH   1   2
ATOM      2  C   UNL     1       3.245   5.738  17.861  0.00  0.00    +0.000 A 
ATOM      3  C   UNL     1       2.863   7.089  17.813  0.00  0.00    +0.000 A 
ATOM      4  C   UNL     1       2.176   7.708  18.851  0.00  0.00    +0.000 A 
ATOM      5  C   UNL     1       1.821   9.063  18.719  0.00  0.00    +0.000 A 
ATOM      6  C   UNL     1       1.117   9.709  19.728  0.00  0.00    +0.000 A 
ATOM      7  C   UNL     1       0.763   9.018  20.879  0.00  0.00    +0.000 A 
ATOM      8  C   UNL     1       1.117   7.675  21.034  0.00  0.00    +0.000 A 
ATOM      9  C   UNL     1       1.836   6.985  20.019  0.00  0.00    +0.000 A 
ATOM     10  C   UNL     1       2.221   5.614  20.125  0.00  0.00    +0.000 A 
ATOM     11  C   UNL     1       1.934   4.857  21.291  0.00  0.00    +0.000 A 
ATOM     12  C   UNL     1       2.309   3.524  21.399  0.00  0.00    +0.000 A 
ATOM     13  C   UNL     1       2.967   2.902  20.352  0.00  0.00    +0.000 A 
ATOM     14  C   UNL     1       3.265   3.606  19.193  0.00  0.00    +0.000 A 
ATOM     15  C   UNL     1       2.919   4.978  19.040  0.00  0.00    +0.000 A 
ENDBRANCH   1   2
BRANCH   1  16
ATOM     16  O   UNL     1       4.241   3.845  16.641  0.00  0.00    +0.000 OA
ATOM     17  H   UNL     1       3.703   3.413  15.941  0.00  0.00    +0.000 HD
ENDBRANCH   1  16
BRANCH   1  18
ATOM     18  C   UNL     1       5.305   6.059  16.379  0.00  0.00    +0.000 C 
BRANCH  18  19
ATOM     19  N   UNL     1       6.578   5.287  16.299  0.00  0.00    +0.000 NA
BRANCH  19  20
ATOM     20  C   UNL     1       6.936   5.069  14.862  0.00  0.00    +0.000 C 
BRANCH  20  21
ATOM     21  C   UNL     1       6.363   3.781  14.214  0.00  0.00    +0.000 C 
BRANCH  21  22
ATOM     22  C   UNL     1       6.483   3.779  12.671  0.00  0.00    +0.000 C 
BRANCH  22  23
ATOM     23  C   UNL     1       5.314   3.045  11.983  0.00  0.00    +0.000 C 
BRANCH  23  25
ATOM     24  C   UNL     1       7.297   1.838  10.998  0.00  0.00    +0.000 C 
ATOM     25  C   UNL     1       5.785   1.798  11.225  0.00  0.00    +0.000 C 
ENDBRANCH  23  25
ENDBRANCH  22  23
ENDBRANCH  21  22
ENDBRANCH  20  21
ENDBRANCH  19  20
BRANCH  19  26
ATOM     26  C   UNL     1       7.641   6.066  17.005  0.00  0.00    +0.000 C 
BRANCH  26  27
ATOM     27  C   UNL     1       7.215   7.503  17.414  0.00  0.00    +0.000 C 
BRANCH  27  28
ATOM     28  C   UNL     1       8.238   8.227  18.304  0.00  0.00    +0.000 C 
BRANCH  28  29
ATOM     29  C   UNL     1       8.276   9.730  18.000  0.00  0.00    +0.000 C 
BRANCH  29  30
ATOM     30  C   UNL     1       9.503  10.413  18.599  0.00  0.00    +0.000 C 
ATOM     31  C   UNL     1       9.273  10.667  20.086  0.00  0.00    +0.000 C 
ENDBRANCH  29  30
ENDBRANCH  28  29
ENDBRANCH  27  28
ENDBRANCH  26  27
ENDBRANCH  19  26
ENDBRANCH  18  19
ENDBRANCH   1  18
TORSDOF 14
ENDMDL
MODEL 7
REMARK VINA RESULT:      -7.2      3.903      8.381
REMARK  Name = 
REMARK  16 active torsions:
REMARK  status: ('A' for Active; 'I' for Inactive)
REMARK    1  A    between atoms: C_1  and  C_2
REMARK    2  A    between atoms: C_2  and  C_3
REMARK    3  A    between atoms: C_3  and  C_4
REMARK    4  A    between atoms: C_4  and  C_5
REMARK    5  A    between atoms: C_5  and  C_6
REMARK    6  A    between atoms: C_6  and  N_7
REMARK    7  A    between atoms: N_7  and  C_8
REMARK    8  A    between atoms: N_7  and  C_14
REMARK    9  A    between atoms: C_8  and  C_9
REMARK   10  A    between atoms: C_9  and  C_10
REMARK   11  A    between atoms: C_10  and  C_11
REMARK   12  A    between atoms: C_11  and  C_12
REMARK   13  A    between atoms: C_12  and  C_13
REMARK   14  A    between atoms: C_14  and  C_15
REMARK   15  A    between atoms: C_15  and  O_16
REMARK   16  A    between atoms: C_15  and  C_17
REMARK                            x       y       z     vdW  Elec       q    Type
REMARK                         _______ _______ _______ _____ _____    ______ ____
ROOT
ATOM      1  C   UNL     1       2.102   7.820  19.851  0.00  0.00    +0.000 C 
ENDROOT
BRANCH   1   2
ATOM      2  C   UNL     1       2.664   6.623  19.050  0.00  0.00    +0.000 A 
ATOM      3  C   UNL     1       3.566   6.964  18.029  0.00  0.00    +0.000 A 
ATOM      4  C   UNL     1       4.152   6.012  17.202  0.00  0.00    +0.000 A 
ATOM      5  C   UNL     1       5.055   6.437  16.210  0.00  0.00    +0.000 A 
ATOM      6  C   UNL     1       5.675   5.513  15.377  0.00  0.00    +0.000 A 
ATOM      7  C   UNL     1       5.401   4.159  15.519  0.00  0.00    +0.000 A 
ATOM      8  C   UNL     1       4.498   3.719  16.491  0.00  0.00    +0.000 A 
ATOM      9  C   UNL     1       3.849   4.640  17.358  0.00  0.00    +0.000 A 
ATOM     10  C   UNL     1       2.920   4.244  18.368  0.00  0.00    +0.000 A 
ATOM     11  C   UNL     1       2.555   2.883  18.541  0.00  0.00    +0.000 A 
ATOM     12  C   UNL     1       1.650   2.494  19.521  0.00  0.00    +0.000 A 
ATOM     13  C   UNL     1       1.091   3.440  20.362  0.00  0.00    +0.000 A 
ATOM     14  C   UNL     1       1.421   4.782  20.228  0.00  0.00    +0.000 A 
ATOM     15  C   UNL     1       2.329   5.234  19.229  0.00  0.00    +0.000 A 
ENDBRANCH   1   2
BRANCH   1  16
ATOM     16  O   UNL     1       1.536   7.438  21.081  0.00  0.00    +0.000 OA
ATOM     17  H   UNL     1       1.256   6.496  21.040  0.00  0.00    +0.000 HD
ENDBRANCH   1  16
BRANCH   1  18
ATOM     18  C   UNL     1       1.161   8.692  18.986  0.00  0.00    +0.000 C 
BRANCH  18  19
ATOM     19  N   UNL     1       0.927  10.084  19.464  0.00  0.00    +0.000 NA
BRANCH  19  20
ATOM     20  C   UNL     1       1.573  11.049  18.520  0.00  0.00    +0.000 C 
BRANCH  20  21
ATOM     21  C   UNL     1       1.624  12.525  18.995  0.00  0.00    +0.000 C 
BRANCH  21  22
ATOM     22  C   UNL     1       2.914  13.256  18.554  0.00  0.00    +0.000 C 
BRANCH  22  23
ATOM     23  C   UNL     1       2.783  14.791  18.623  0.00  0.00    +0.000 C 
BRANCH  23  25
ATOM     24  C   UNL     1       2.851  16.801  17.102  0.00  0.00    +0.000 C 
ATOM     25  C   UNL     1       3.532  15.484  17.478  0.00  0.00    +0.000 C 
ENDBRANCH  23  25
ENDBRANCH  22  23
ENDBRANCH  21  22
ENDBRANCH  20  21
ENDBRANCH  19  20
BRANCH  19  26
ATOM     26  C   UNL     1      -0.548  10.311  19.537  0.00  0.00    +0.000 C 
BRANCH  26  27
ATOM     27  C   UNL     1      -1.238  10.479  18.155  0.00  0.00    +0.000 C 
BRANCH  27  28
ATOM     28  C   UNL     1      -2.732  10.829  18.241  0.00  0.00    +0.000 C 
BRANCH  28  29
ATOM     29  C   UNL     1      -3.486  10.365  16.990  0.00  0.00    +0.000 C 
BRANCH  29  30
ATOM     30  C   UNL     1      -2.544   9.942  15.866  0.00  0.00    +0.000 C 
ATOM     31  C   UNL     1      -3.237  10.128  14.519  0.00  0.00    +0.000 C 
ENDBRANCH  29  30
ENDBRANCH  28  29
ENDBRANCH  27  28
ENDBRANCH  26  27
ENDBRANCH  19  26
ENDBRANCH  18  19
ENDBRANCH   1  18
TORSDOF 14
ENDMDL
MODEL 8
REMARK VINA RESULT:      -7.2      3.413      7.882
REMARK  Name = 
REMARK  16 active torsions:
REMARK  status: ('A' for Active; 'I' for Inactive)
REMARK    1  A    between atoms: C_1  and  C_2
REMARK    2  A    between atoms: C_2  and  C_3
REMARK    3  A    between atoms: C_3  and  C_4
REMARK    4  A    between atoms: C_4  and  C_5
REMARK    5  A    between atoms: C_5  and  C_6
REMARK    6  A    between atoms: C_6  and  N_7
REMARK    7  A    between atoms: N_7  and  C_8
REMARK    8  A    between atoms: N_7  and  C_14
REMARK    9  A    between atoms: C_8  and  C_9
REMARK   10  A    between atoms: C_9  and  C_10
REMARK   11  A    between atoms: C_10  and  C_11
REMARK   12  A    between atoms: C_11  and  C_12
REMARK   13  A    between atoms: C_12  and  C_13
REMARK   14  A    between atoms: C_14  and  C_15
REMARK   15  A    between atoms: C_15  and  O_16
REMARK   16  A    between atoms: C_15  and  C_17
REMARK                            x       y       z     vdW  Elec       q    Type
REMARK                         _______ _______ _______ _____ _____    ______ ____
ROOT
ATOM      1  C   UNL     1       2.242   7.407  19.855  0.00  0.00    +0.000 C 
ENDROOT
BRANCH   1   2
ATOM      2  C   UNL     1       2.790   6.284  18.945  0.00  0.00    +0.000 A 
ATOM      3  C   UNL     1       3.786   6.687  18.040  0.00  0.00    +0.000 A 
ATOM      4  C   UNL     1       4.374   5.807  17.138  0.00  0.00    +0.000 A 
ATOM      5  C   UNL     1       5.373   6.289  16.272  0.00  0.00    +0.000 A 
ATOM      6  C   UNL     1       5.998   5.436  15.370  0.00  0.00    +0.000 A 
ATOM      7  C   UNL     1       5.633   4.097  15.316  0.00  0.00    +0.000 A 
ATOM      8  C   UNL     1       4.634   3.603  16.160  0.00  0.00    +0.000 A 
ATOM      9  C   UNL     1       3.978   4.450  17.094  0.00  0.00    +0.000 A 
ATOM     10  C   UNL     1       2.954   3.997  17.980  0.00  0.00    +0.000 A 
ATOM     11  C   UNL     1       2.496   2.653  17.950  0.00  0.00    +0.000 A 
ATOM     12  C   UNL     1       1.498   2.208  18.807  0.00  0.00    +0.000 A 
ATOM     13  C   UNL     1       0.935   3.078  19.725  0.00  0.00    +0.000 A 
ATOM     14  C   UNL     1       1.354   4.400  19.788  0.00  0.00    +0.000 A 
ATOM     15  C   UNL     1       2.360   4.910  18.920  0.00  0.00    +0.000 A 
ENDBRANCH   1   2
BRANCH   1  16
ATOM     16  O   UNL     1       1.825   6.938  21.115  0.00  0.00    +0.000 OA
ATOM     17  H   UNL     1       1.872   7.667  21.772  0.00  0.00    +0.000 HD
ENDBRANCH   1  16
BRANCH   1  18
ATOM     18  C   UNL     1       1.170   8.254  19.130  0.00  0.00    +0.000 C 
BRANCH  18  19
ATOM     19  N   UNL     1       0.977   9.644  19.632  0.00  0.00    +0.000 NA
BRANCH  19  20
ATOM     20  C   UNL     1       0.597  10.536  18.491  0.00  0.00    +0.000 C 
BRANCH  20  21
ATOM     21  C   UNL     1       0.139  11.967  18.878  0.00  0.00    +0.000 C 
BRANCH  21  22
ATOM     22  C   UNL     1      -1.264  12.319  18.331  0.00  0.00    +0.000 C 
BRANCH  22  23
ATOM     23  C   UNL     1      -2.080  11.072  17.935  0.00  0.00    +0.000 C 
BRANCH  23  25
ATOM     24  C   UNL     1      -2.742   9.830  15.843  0.00  0.00    +0.000 C 
ATOM     25  C   UNL     1      -2.671  11.197  16.525  0.00  0.00    +0.000 C 
ENDBRANCH  23  25
ENDBRANCH  22  23
ENDBRANCH  21  22
ENDBRANCH  20  21
ENDBRANCH  19  20
BRANCH  19  26
ATOM     26  C   UNL     1      -0.095   9.620  20.673  0.00  0.00    +0.000 C 
BRANCH  26  27
ATOM     27  C   UNL     1       0.369  10.095  22.078  0.00  0.00    +0.000 C 
BRANCH  27  28
ATOM     28  C   UNL     1      -0.740  10.074  23.142  0.00  0.00    +0.000 C 
BRANCH  28  29
ATOM     29  C   UNL     1      -1.614  11.332  23.060  0.00  0.00    +0.000 C 
BRANCH  29  30
ATOM     30  C   UNL     1      -0.832  12.552  22.580  0.00  0.00    +0.000 C 
ATOM     31  C   UNL     1      -1.763  13.485  21.808  0.00  0.00    +0.000 C 
ENDBRANCH  29  30
ENDBRANCH  28  29
ENDBRANCH  27  28
ENDBRANCH  26  27
ENDBRANCH  19  26
ENDBRANCH  18  19
ENDBRANCH   1  18
TORSDOF 14
ENDMDL
MODEL 9
REMARK VINA RESULT:      -7.2      3.806      9.013
REMARK  Name = 
REMARK  16 active torsions:
REMARK  status: ('A' for Active; 'I' for Inactive)
REMARK    1  A    between atoms: C_1  and  C_2
REMARK    2  A    between atoms: C_2  and  C_3
REMARK    3  A    between atoms: C_3  and  C_4
REMARK    4  A    between atoms: C_4  and  C_5
REMARK    5  A    between atoms: C_5  and  C_6
REMARK    6  A    between atoms: C_6  and  N_7
REMARK    7  A    between atoms: N_7  and  C_8
REMARK    8  A    between atoms: N_7  and  C_14
REMARK    9  A    between atoms: C_8  and  C_9
REMARK   10  A    between atoms: C_9  and  C_10
REMARK   11  A    between atoms: C_10  and  C_11
REMARK   12  A    between atoms: C_11  and  C_12
REMARK   13  A    between atoms: C_12  and  C_13
REMARK   14  A    between atoms: C_14  and  C_15
REMARK   15  A    between atoms: C_15  and  O_16
REMARK   16  A    between atoms: C_15  and  C_17
REMARK                            x       y       z     vdW  Elec       q    Type
REMARK                         _______ _______ _______ _____ _____    ______ ____
ROOT
ATOM      1  C   UNL     1       1.630   8.429  18.310  0.00  0.00    +0.000 C 
ENDROOT
BRANCH   1   2
ATOM      2  C   UNL     1       2.676   7.294  18.400  0.00  0.00    +0.000 A 
ATOM      3  C   UNL     1       3.822   7.479  17.609  0.00  0.00    +0.000 A 
ATOM      4  C   UNL     1       4.853   6.548  17.559  0.00  0.00    +0.000 A 
ATOM      5  C   UNL     1       5.972   6.815  16.750  0.00  0.00    +0.000 A 
ATOM      6  C   UNL     1       7.031   5.916  16.689  0.00  0.00    +0.000 A 
ATOM      7  C   UNL     1       6.986   4.742  17.428  0.00  0.00    +0.000 A 
ATOM      8  C   UNL     1       5.877   4.453  18.229  0.00  0.00    +0.000 A 
ATOM      9  C   UNL     1       4.780   5.353  18.313  0.00  0.00    +0.000 A 
ATOM     10  C   UNL     1       3.624   5.108  19.116  0.00  0.00    +0.000 A 
ATOM     11  C   UNL     1       3.488   3.908  19.863  0.00  0.00    +0.000 A 
ATOM     12  C   UNL     1       2.365   3.665  20.643  0.00  0.00    +0.000 A 
ATOM     13  C   UNL     1       1.354   4.607  20.715  0.00  0.00    +0.000 A 
ATOM     14  C   UNL     1       1.448   5.795  20.002  0.00  0.00    +0.000 A 
ATOM     15  C   UNL     1       2.569   6.084  19.174  0.00  0.00    +0.000 A 
ENDBRANCH   1   2
BRANCH   1  16
ATOM     16  O   UNL     1       1.858   9.299  17.228  0.00  0.00    +0.000 OA
ATOM     17  H   UNL     1       1.048   9.828  17.052  0.00  0.00    +0.000 HD
ENDBRANCH   1  16
BRANCH   1  18
ATOM     18  C   UNL     1       1.466   9.160  19.663  0.00  0.00    +0.000 C 
BRANCH  18  19
ATOM     19  N   UNL     1       0.125   9.752  19.935  0.00  0.00    +0.000 NA
BRANCH  19  20
ATOM     20  C   UNL     1      -0.170   9.662  21.399  0.00  0.00    +0.000 C 
BRANCH  20  21
ATOM     21  C   UNL     1      -0.325  11.016  22.140  0.00  0.00    +0.000 C 
BRANCH  21  22
ATOM     22  C   UNL     1      -1.446  10.995  23.206  0.00  0.00    +0.000 C 
BRANCH  22  23
ATOM     23  C   UNL     1      -2.416  12.187  23.075  0.00  0.00    +0.000 C 
BRANCH  23  25
ATOM     24  C   UNL     1      -3.401  13.917  21.527  0.00  0.00    +0.000 C 
ATOM     25  C   UNL     1      -2.620  12.605  21.614  0.00  0.00    +0.000 C 
ENDBRANCH  23  25
ENDBRANCH  22  23
ENDBRANCH  21  22
ENDBRANCH  20  21
ENDBRANCH  19  20
BRANCH  19  26
ATOM     26  C   UNL     1       0.142  11.175  19.477  0.00  0.00    +0.000 C 
BRANCH  26  27
ATOM     27  C   UNL     1      -1.008  11.546  18.500  0.00  0.00    +0.000 C 
BRANCH  27  28
ATOM     28  C   UNL     1      -2.028  10.418  18.280  0.00  0.00    +0.000 C 
BRANCH  28  29
ATOM     29  C   UNL     1      -1.994   9.909  16.834  0.00  0.00    +0.000 C 
BRANCH  29  30
ATOM     30  C   UNL     1      -2.660  10.880  15.861  0.00  0.00    +0.000 C 
ATOM     31  C   UNL     1      -3.311  10.097  14.724  0.00  0.00    +0.000 C 
ENDBRANCH  29  30
ENDBRANCH  28  29
ENDBRANCH  27  28
ENDBRANCH  26  27
ENDBRANCH  19  26
ENDBRANCH  18  19
ENDBRANCH   1  18
TORSDOF 14
ENDMDL
