MODEL 1
REMARK VINA RESULT:      -7.7      0.000      0.000
REMARK  Name = 
REMARK  10 active torsions:
REMARK  status: ('A' for Active; 'I' for Inactive)
REMARK    1  A    between atoms: O_1  and  C_2
REMARK    2  A    between atoms: C_2  and  C_3
REMARK    3  A    between atoms: C_3  and  O_4
REMARK    4  A    between atoms: O_4  and  C_5
REMARK    5  A    between atoms: C_5  and  N_6
REMARK    6  A    between atoms: C_10  and  O_11
REMARK    7  A    between atoms: C_13  and  C_14
REMARK    8  A    between atoms: C_14  and  C_15
REMARK    9  A    between atoms: C_14  and  C_21
REMARK   10  A    between atoms: C_14  and  C_27
REMARK                            x       y       z     vdW  Elec       q    Type
REMARK                         _______ _______ _______ _____ _____    ______ ____
ROOT
ATOM      1  N   UNL     1       3.637   6.433  18.831  0.00  0.00    +0.000 N 
ATOM      2  C   UNL     1       3.809   6.752  17.516  0.00  0.00    +0.000 A 
ATOM      3  N   UNL     1       3.082   7.767  17.081  0.00  0.00    +0.000 NA
ATOM      4  C   UNL     1       2.345   8.135  18.203  0.00  0.00    +0.000 A 
ATOM      5  C   UNL     1       1.396   9.057  18.379  0.00  0.00    +0.000 A 
ATOM      6  N   UNL     1       0.839   9.217  19.681  0.00  0.00    +0.000 N 
ATOM      7  C   UNL     1      -0.038  10.142  20.300  0.00  0.00    +0.000 A 
ATOM      8  C   UNL     1      -0.275   9.561  21.543  0.00  0.00    +0.000 A 
ATOM      9  N   UNL     1       0.534   8.503  21.799  0.00  0.00    +0.000 NA
ATOM     10  C   UNL     1       1.227   8.306  20.703  0.00  0.00    +0.000 A 
ATOM     11  N   UNL     1       2.174   7.330  20.534  0.00  0.00    +0.000 NA
ATOM     12  C   UNL     1       2.701   7.264  19.360  0.00  0.00    +0.000 A 
ENDROOT
BRANCH   5  13
ATOM     13  O   UNL     1       0.983   9.820  17.299  0.00  0.00    +0.000 OA
ATOM     14  H   UNL     1       1.514   9.515  16.532  0.00  0.00    +0.000 HD
ENDBRANCH   5  13
BRANCH   1  15
ATOM     15  C   UNL     1       4.067   5.209  19.452  0.00  0.00    +0.000 C 
BRANCH  15  16
ATOM     16  O   UNL     1       4.474   4.285  18.465  0.00  0.00    +0.000 OA
BRANCH  16  17
ATOM     17  C   UNL     1       3.713   3.072  18.550  0.00  0.00    +0.000 C 
BRANCH  17  18
ATOM     18  C   UNL     1       3.898   2.457  19.931  0.00  0.00    +0.000 C 
BRANCH  18  19
ATOM     19  O   UNL     1       5.181   1.852  20.025  0.00  0.00    +0.000 OA
ATOM     20  H   UNL     1       5.688   2.363  20.681  0.00  0.00    +0.000 HD
ENDBRANCH  18  19
ENDBRANCH  17  18
ENDBRANCH  16  17
ENDBRANCH  15  16
ENDBRANCH   1  15
BRANCH   7  21
ATOM     21  C   UNL     1      -0.644  11.525  19.798  0.00  0.00    +0.000 C 
BRANCH  21  22
ATOM     22  C   UNL     1      -1.573  11.145  18.552  0.00  0.00    +0.000 A 
ATOM     23  C   UNL     1      -1.728  11.951  17.397  0.00  0.00    +0.000 A 
ATOM     24  C   UNL     1      -2.518  11.546  16.309  0.00  0.00    +0.000 A 
ATOM     25  C   UNL     1      -3.245  10.363  16.375  0.00  0.00    +0.000 A 
ATOM     26  C   UNL     1      -3.158   9.577  17.514  0.00  0.00    +0.000 A 
ATOM     27  C   UNL     1      -2.340   9.964  18.580  0.00  0.00    +0.000 A 
ENDBRANCH  21  22
BRANCH  21  28
ATOM     28  C   UNL     1      -1.494  12.207  20.992  0.00  0.00    +0.000 A 
ATOM     29  C   UNL     1      -0.901  12.550  22.228  0.00  0.00    +0.000 A 
ATOM     30  C   UNL     1      -1.652  13.091  23.291  0.00  0.00    +0.000 A 
ATOM     31  C   UNL     1      -3.017  13.312  23.146  0.00  0.00    +0.000 A 
ATOM     32  C   UNL     1      -3.630  13.014  21.937  0.00  0.00    +0.000 A 
ATOM     33  C   UNL     1      -2.870  12.512  20.867  0.00  0.00    +0.000 A 
ENDBRANCH  21  28
BRANCH  21  34
ATOM     34  C   UNL     1       0.467  12.597  19.420  0.00  0.00    +0.000 A 
ATOM     35  C   UNL     1       0.175  13.977  19.308  0.00  0.00    +0.000 A 
ATOM     36  C   UNL     1       1.108  14.887  18.786  0.00  0.00    +0.000 A 
ATOM     37  C   UNL     1       2.367  14.452  18.390  0.00  0.00    +0.000 A 
ATOM     38  C   UNL     1       2.709  13.116  18.559  0.00  0.00    +0.000 A 
ATOM     39  C   UNL     1       1.792  12.217  19.124  0.00  0.00    +0.000 A 
ENDBRANCH  21  34
ENDBRANCH   7  21
TORSDOF 10
ENDMDL
MODEL 2
REMARK VINA RESULT:      -7.6      0.971      1.309
REMARK  Name = 
REMARK  10 active torsions:
REMARK  status: ('A' for Active; 'I' for Inactive)
REMARK    1  A    between atoms: O_1  and  C_2
REMARK    2  A    between atoms: C_2  and  C_3
REMARK    3  A    between atoms: C_3  and  O_4
REMARK    4  A    between atoms: O_4  and  C_5
REMARK    5  A    between atoms: C_5  and  N_6
REMARK    6  A    between atoms: C_10  and  O_11
REMARK    7  A    between atoms: C_13  and  C_14
REMARK    8  A    between atoms: C_14  and  C_15
REMARK    9  A    between atoms: C_14  and  C_21
REMARK   10  A    between atoms: C_14  and  C_27
REMARK                            x       y       z     vdW  Elec       q    Type
REMARK                         _______ _______ _______ _____ _____    ______ ____
ROOT
ATOM      1  N   UNL     1       3.529   6.285  18.988  0.00  0.00    +0.000 N 
ATOM      2  C   UNL     1       3.733   6.574  17.670  0.00  0.00    +0.000 A 
ATOM      3  N   UNL     1       3.047   7.604  17.205  0.00  0.00    +0.000 NA
ATOM      4  C   UNL     1       2.303   8.016  18.308  0.00  0.00    +0.000 A 
ATOM      5  C   UNL     1       1.380   8.970  18.450  0.00  0.00    +0.000 A 
ATOM      6  N   UNL     1       0.807   9.171  19.740  0.00  0.00    +0.000 N 
ATOM      7  C   UNL     1      -0.051  10.135  20.327  0.00  0.00    +0.000 A 
ATOM      8  C   UNL     1      -0.326   9.583  21.576  0.00  0.00    +0.000 A 
ATOM      9  N   UNL     1       0.443   8.505  21.864  0.00  0.00    +0.000 NA
ATOM     10  C   UNL     1       1.148   8.267  20.784  0.00  0.00    +0.000 A 
ATOM     11  N   UNL     1       2.066   7.258  20.649  0.00  0.00    +0.000 NA
ATOM     12  C   UNL     1       2.611   7.154  19.485  0.00  0.00    +0.000 A 
ENDROOT
BRANCH   5  13
ATOM     13  O   UNL     1       1.011   9.726  17.350  0.00  0.00    +0.000 OA
ATOM     14  H   UNL     1       1.835   9.888  16.842  0.00  0.00    +0.000 HD
ENDBRANCH   5  13
BRANCH   1  15
ATOM     15  C   UNL     1       3.908   5.059  19.637  0.00  0.00    +0.000 C 
BRANCH  15  16
ATOM     16  O   UNL     1       2.847   4.130  19.573  0.00  0.00    +0.000 OA
BRANCH  16  17
ATOM     17  C   UNL     1       2.961   3.146  20.612  0.00  0.00    +0.000 C 
BRANCH  17  18
ATOM     18  C   UNL     1       1.641   3.055  21.366  0.00  0.00    +0.000 C 
BRANCH  18  19
ATOM     19  O   UNL     1       0.554   3.128  20.453  0.00  0.00    +0.000 OA
ATOM     20  H   UNL     1       0.891   3.553  19.644  0.00  0.00    +0.000 HD
ENDBRANCH  18  19
ENDBRANCH  17  18
ENDBRANCH  16  17
ENDBRANCH  15  16
ENDBRANCH   1  15
BRANCH   7  21
ATOM     21  C   UNL     1      -0.603  11.527  19.791  0.00  0.00    +0.000 C 
BRANCH  21  22
ATOM     22  C   UNL     1      -1.545  11.152  18.553  0.00  0.00    +0.000 A 
ATOM     23  C   UNL     1      -1.697  11.953  17.394  0.00  0.00    +0.000 A 
ATOM     24  C   UNL     1      -2.500  11.552  16.314  0.00  0.00    +0.000 A 
ATOM     25  C   UNL     1      -3.242  10.379  16.391  0.00  0.00    +0.000 A 
ATOM     26  C   UNL     1      -3.157   9.598  17.534  0.00  0.00    +0.000 A 
ATOM     27  C   UNL     1      -2.327   9.981  18.593  0.00  0.00    +0.000 A 
ENDBRANCH  21  22
BRANCH  21  28
ATOM     28  C   UNL     1      -1.427  12.270  20.966  0.00  0.00    +0.000 A 
ATOM     29  C   UNL     1      -2.789  12.619  20.815  0.00  0.00    +0.000 A 
ATOM     30  C   UNL     1      -3.494  13.319  21.815  0.00  0.00    +0.000 A 
ATOM     31  C   UNL     1      -2.861  13.683  22.998  0.00  0.00    +0.000 A 
ATOM     32  C   UNL     1      -1.532  13.333  23.194  0.00  0.00    +0.000 A 
ATOM     33  C   UNL     1      -0.844  12.601  22.211  0.00  0.00    +0.000 A 
ENDBRANCH  21  28
BRANCH  21  34
ATOM     34  C   UNL     1       0.548  12.546  19.388  0.00  0.00    +0.000 A 
ATOM     35  C   UNL     1       0.329  13.942  19.324  0.00  0.00    +0.000 A 
ATOM     36  C   UNL     1       1.287  14.813  18.782  0.00  0.00    +0.000 A 
ATOM     37  C   UNL     1       2.500  14.321  18.316  0.00  0.00    +0.000 A 
ATOM     38  C   UNL     1       2.774  12.964  18.437  0.00  0.00    +0.000 A 
ATOM     39  C   UNL     1       1.835  12.102  19.021  0.00  0.00    +0.000 A 
ENDBRANCH  21  34
ENDBRANCH   7  21
TORSDOF 10
ENDMDL
MODEL 3
REMARK VINA RESULT:      -7.5      0.850      1.401
REMARK  Name = 
REMARK  10 active torsions:
REMARK  status: ('A' for Active; 'I' for Inactive)
REMARK    1  A    between atoms: O_1  and  C_2
REMARK    2  A    between atoms: C_2  and  C_3
REMARK    3  A    between atoms: C_3  and  O_4
REMARK    4  A    between atoms: O_4  and  C_5
REMARK    5  A    between atoms: C_5  and  N_6
REMARK    6  A    between atoms: C_10  and  O_11
REMARK    7  A    between atoms: C_13  and  C_14
REMARK    8  A    between atoms: C_14  and  C_15
REMARK    9  A    between atoms: C_14  and  C_21
REMARK   10  A    between atoms: C_14  and  C_27
REMARK                            x       y       z     vdW  Elec       q    Type
REMARK                         _______ _______ _______ _____ _____    ______ ____
ROOT
ATOM      1  N   UNL     1       3.527   6.478  19.045  0.00  0.00    +0.000 N 
ATOM      2  C   UNL     1       3.697   6.763  17.721  0.00  0.00    +0.000 A 
ATOM      3  N   UNL     1       2.955   7.754  17.258  0.00  0.00    +0.000 NA
ATOM      4  C   UNL     1       2.209   8.141  18.369  0.00  0.00    +0.000 A 
ATOM      5  C   UNL     1       1.245   9.052  18.517  0.00  0.00    +0.000 A 
ATOM      6  N   UNL     1       0.683   9.239  19.814  0.00  0.00    +0.000 N 
ATOM      7  C   UNL     1      -0.210  10.167  20.406  0.00  0.00    +0.000 A 
ATOM      8  C   UNL     1      -0.439   9.617  21.664  0.00  0.00    +0.000 A 
ATOM      9  N   UNL     1       0.386   8.579  21.950  0.00  0.00    +0.000 NA
ATOM     10  C   UNL     1       1.084   8.363  20.861  0.00  0.00    +0.000 A 
ATOM     11  N   UNL     1       2.047   7.398  20.721  0.00  0.00    +0.000 NA
ATOM     12  C   UNL     1       2.577   7.308  19.549  0.00  0.00    +0.000 A 
ENDROOT
BRANCH   5  13
ATOM     13  O   UNL     1       0.823   9.779  17.416  0.00  0.00    +0.000 OA
ATOM     14  H   UNL     1       1.371  10.593  17.400  0.00  0.00    +0.000 HD
ENDBRANCH   5  13
BRANCH   1  15
ATOM     15  C   UNL     1       3.975   5.278  19.700  0.00  0.00    +0.000 C 
BRANCH  15  16
ATOM     16  O   UNL     1       3.453   4.144  19.039  0.00  0.00    +0.000 OA
BRANCH  16  17
ATOM     17  C   UNL     1       3.058   3.137  19.981  0.00  0.00    +0.000 C 
BRANCH  17  18
ATOM     18  C   UNL     1       2.189   3.769  21.060  0.00  0.00    +0.000 C 
BRANCH  18  19
ATOM     19  O   UNL     1       2.207   2.965  22.231  0.00  0.00    +0.000 OA
ATOM     20  H   UNL     1       1.416   2.397  22.197  0.00  0.00    +0.000 HD
ENDBRANCH  18  19
ENDBRANCH  17  18
ENDBRANCH  16  17
ENDBRANCH  15  16
ENDBRANCH   1  15
BRANCH   7  21
ATOM     21  C   UNL     1      -0.836  11.526  19.865  0.00  0.00    +0.000 C 
BRANCH  21  22
ATOM     22  C   UNL     1      -1.745  11.099  18.619  0.00  0.00    +0.000 A 
ATOM     23  C   UNL     1      -2.548   9.932  18.580  0.00  0.00    +0.000 A 
ATOM     24  C   UNL     1      -3.367   9.630  17.479  0.00  0.00    +0.000 A 
ATOM     25  C   UNL     1      -3.344  10.439  16.349  0.00  0.00    +0.000 A 
ATOM     26  C   UNL     1      -2.528  11.560  16.334  0.00  0.00    +0.000 A 
ATOM     27  C   UNL     1      -1.743  11.879  17.447  0.00  0.00    +0.000 A 
ENDBRANCH  21  22
BRANCH  21  28
ATOM     28  C   UNL     1      -1.712  12.220  21.034  0.00  0.00    +0.000 A 
ATOM     29  C   UNL     1      -1.136  12.606  22.266  0.00  0.00    +0.000 A 
ATOM     30  C   UNL     1      -1.909  13.158  23.308  0.00  0.00    +0.000 A 
ATOM     31  C   UNL     1      -3.276  13.346  23.146  0.00  0.00    +0.000 A 
ATOM     32  C   UNL     1      -3.872  13.004  21.939  0.00  0.00    +0.000 A 
ATOM     33  C   UNL     1      -3.092  12.492  20.889  0.00  0.00    +0.000 A 
ENDBRANCH  21  28
BRANCH  21  34
ATOM     34  C   UNL     1       0.258  12.610  19.473  0.00  0.00    +0.000 A 
ATOM     35  C   UNL     1       1.645  12.360  19.600  0.00  0.00    +0.000 A 
ATOM     36  C   UNL     1       2.594  13.382  19.439  0.00  0.00    +0.000 A 
ATOM     37  C   UNL     1       2.190  14.672  19.119  0.00  0.00    +0.000 A 
ATOM     38  C   UNL     1       0.840  14.930  18.913  0.00  0.00    +0.000 A 
ATOM     39  C   UNL     1      -0.103  13.898  19.028  0.00  0.00    +0.000 A 
ENDBRANCH  21  34
ENDBRANCH   7  21
TORSDOF 10
ENDMDL
MODEL 4
REMARK VINA RESULT:      -7.5      0.825      1.155
REMARK  Name = 
REMARK  10 active torsions:
REMARK  status: ('A' for Active; 'I' for Inactive)
REMARK    1  A    between atoms: O_1  and  C_2
REMARK    2  A    between atoms: C_2  and  C_3
REMARK    3  A    between atoms: C_3  and  O_4
REMARK    4  A    between atoms: O_4  and  C_5
REMARK    5  A    between atoms: C_5  and  N_6
REMARK    6  A    between atoms: C_10  and  O_11
REMARK    7  A    between atoms: C_13  and  C_14
REMARK    8  A    between atoms: C_14  and  C_15
REMARK    9  A    between atoms: C_14  and  C_21
REMARK   10  A    between atoms: C_14  and  C_27
REMARK                            x       y       z     vdW  Elec       q    Type
REMARK                         _______ _______ _______ _____ _____    ______ ____
ROOT
ATOM      1  N   UNL     1       3.481   6.431  19.061  0.00  0.00    +0.000 N 
ATOM      2  C   UNL     1       3.678   6.728  17.743  0.00  0.00    +0.000 A 
ATOM      3  N   UNL     1       2.964   7.740  17.280  0.00  0.00    +0.000 NA
ATOM      4  C   UNL     1       2.209   8.130  18.384  0.00  0.00    +0.000 A 
ATOM      5  C   UNL     1       1.262   9.059  18.528  0.00  0.00    +0.000 A 
ATOM      6  N   UNL     1       0.683   9.242  19.818  0.00  0.00    +0.000 N 
ATOM      7  C   UNL     1      -0.199  10.182  20.407  0.00  0.00    +0.000 A 
ATOM      8  C   UNL     1      -0.460   9.622  21.655  0.00  0.00    +0.000 A 
ATOM      9  N   UNL     1       0.339   8.564  21.941  0.00  0.00    +0.000 NA
ATOM     10  C   UNL     1       1.049   8.346  20.861  0.00  0.00    +0.000 A 
ATOM     11  N   UNL     1       1.994   7.362  20.724  0.00  0.00    +0.000 NA
ATOM     12  C   UNL     1       2.541   7.275  19.560  0.00  0.00    +0.000 A 
ENDROOT
BRANCH   5  13
ATOM     13  O   UNL     1       0.872   9.807  17.429  0.00  0.00    +0.000 OA
ATOM     14  H   UNL     1       1.300   9.390  16.651  0.00  0.00    +0.000 HD
ENDBRANCH   5  13
BRANCH   1  15
ATOM     15  C   UNL     1       3.894   5.215  19.708  0.00  0.00    +0.000 C 
BRANCH  15  16
ATOM     16  O   UNL     1       3.426   4.099  18.980  0.00  0.00    +0.000 OA
BRANCH  16  17
ATOM     17  C   UNL     1       2.348   3.450  19.670  0.00  0.00    +0.000 C 
BRANCH  17  18
ATOM     18  C   UNL     1       1.495   2.687  18.666  0.00  0.00    +0.000 C 
BRANCH  18  19
ATOM     19  O   UNL     1       2.291   1.733  17.978  0.00  0.00    +0.000 OA
ATOM     20  H   UNL     1       2.853   1.299  18.644  0.00  0.00    +0.000 HD
ENDBRANCH  18  19
ENDBRANCH  17  18
ENDBRANCH  16  17
ENDBRANCH  15  16
ENDBRANCH   1  15
BRANCH   7  21
ATOM     21  C   UNL     1      -0.789  11.559  19.873  0.00  0.00    +0.000 C 
BRANCH  21  22
ATOM     22  C   UNL     1      -1.680  11.167  18.603  0.00  0.00    +0.000 A 
ATOM     23  C   UNL     1      -1.785  11.952  17.428  0.00  0.00    +0.000 A 
ATOM     24  C   UNL     1      -2.542  11.536  16.321  0.00  0.00    +0.000 A 
ATOM     25  C   UNL     1      -3.286  10.363  16.384  0.00  0.00    +0.000 A 
ATOM     26  C   UNL     1      -3.247   9.598  17.540  0.00  0.00    +0.000 A 
ATOM     27  C   UNL     1      -2.462   9.996  18.626  0.00  0.00    +0.000 A 
ENDBRANCH  21  22
BRANCH  21  28
ATOM     28  C   UNL     1      -1.675  12.254  21.033  0.00  0.00    +0.000 A 
ATOM     29  C   UNL     1      -1.113  12.636  22.272  0.00  0.00    +0.000 A 
ATOM     30  C   UNL     1      -1.895  13.188  23.307  0.00  0.00    +0.000 A 
ATOM     31  C   UNL     1      -3.260  13.380  23.129  0.00  0.00    +0.000 A 
ATOM     32  C   UNL     1      -3.844  13.043  21.916  0.00  0.00    +0.000 A 
ATOM     33  C   UNL     1      -3.054  12.530  20.873  0.00  0.00    +0.000 A 
ENDBRANCH  21  28
BRANCH  21  34
ATOM     34  C   UNL     1       0.333  12.628  19.518  0.00  0.00    +0.000 A 
ATOM     35  C   UNL     1       1.702  12.403  19.796  0.00  0.00    +0.000 A 
ATOM     36  C   UNL     1       2.657  13.423  19.662  0.00  0.00    +0.000 A 
ATOM     37  C   UNL     1       2.280  14.685  19.219  0.00  0.00    +0.000 A 
ATOM     38  C   UNL     1       0.956  14.913  18.865  0.00  0.00    +0.000 A 
ATOM     39  C   UNL     1       0.011  13.880  18.955  0.00  0.00    +0.000 A 
ENDBRANCH  21  34
ENDBRANCH   7  21
TORSDOF 10
ENDMDL
MODEL 5
REMARK VINA RESULT:      -7.5      0.515      1.465
REMARK  Name = 
REMARK  10 active torsions:
REMARK  status: ('A' for Active; 'I' for Inactive)
REMARK    1  A    between atoms: O_1  and  C_2
REMARK    2  A    between atoms: C_2  and  C_3
REMARK    3  A    between atoms: C_3  and  O_4
REMARK    4  A    between atoms: O_4  and  C_5
REMARK    5  A    between atoms: C_5  and  N_6
REMARK    6  A    between atoms: C_10  and  O_11
REMARK    7  A    between atoms: C_13  and  C_14
REMARK    8  A    between atoms: C_14  and  C_15
REMARK    9  A    between atoms: C_14  and  C_21
REMARK   10  A    between atoms: C_14  and  C_27
REMARK                            x       y       z     vdW  Elec       q    Type
REMARK                         _______ _______ _______ _____ _____    ______ ____
ROOT
ATOM      1  N   UNL     1       3.515   6.432  19.022  0.00  0.00    +0.000 N 
ATOM      2  C   UNL     1       3.664   6.695  17.691  0.00  0.00    +0.000 A 
ATOM      3  N   UNL     1       2.928   7.690  17.226  0.00  0.00    +0.000 NA
ATOM      4  C   UNL     1       2.210   8.105  18.345  0.00  0.00    +0.000 A 
ATOM      5  C   UNL     1       1.262   9.032  18.497  0.00  0.00    +0.000 A 
ATOM      6  N   UNL     1       0.727   9.247  19.801  0.00  0.00    +0.000 N 
ATOM      7  C   UNL     1      -0.141  10.196  20.396  0.00  0.00    +0.000 A 
ATOM      8  C   UNL     1      -0.355   9.668  21.666  0.00  0.00    +0.000 A 
ATOM      9  N   UNL     1       0.460   8.623  21.953  0.00  0.00    +0.000 NA
ATOM     10  C   UNL     1       1.134   8.380  20.854  0.00  0.00    +0.000 A 
ATOM     11  N   UNL     1       2.080   7.399  20.710  0.00  0.00    +0.000 NA
ATOM     12  C   UNL     1       2.587   7.284  19.531  0.00  0.00    +0.000 A 
ENDROOT
BRANCH   5  13
ATOM     13  O   UNL     1       0.830   9.749  17.393  0.00  0.00    +0.000 OA
ATOM     14  H   UNL     1       0.040   9.275  17.053  0.00  0.00    +0.000 HD
ENDBRANCH   5  13
BRANCH   1  15
ATOM     15  C   UNL     1       3.958   5.236  19.686  0.00  0.00    +0.000 C 
BRANCH  15  16
ATOM     16  O   UNL     1       4.350   4.272  18.732  0.00  0.00    +0.000 OA
BRANCH  16  17
ATOM     17  C   UNL     1       4.283   2.948  19.282  0.00  0.00    +0.000 C 
BRANCH  17  18
ATOM     18  C   UNL     1       3.477   2.055  18.348  0.00  0.00    +0.000 C 
BRANCH  18  19
ATOM     19  O   UNL     1       4.016   0.740  18.349  0.00  0.00    +0.000 OA
ATOM     20  H   UNL     1       4.526   0.643  19.173  0.00  0.00    +0.000 HD
ENDBRANCH  18  19
ENDBRANCH  17  18
ENDBRANCH  16  17
ENDBRANCH  15  16
ENDBRANCH   1  15
BRANCH   7  21
ATOM     21  C   UNL     1      -0.758  11.556  19.846  0.00  0.00    +0.000 C 
BRANCH  21  22
ATOM     22  C   UNL     1      -1.698  11.124  18.626  0.00  0.00    +0.000 A 
ATOM     23  C   UNL     1      -2.458   9.928  18.588  0.00  0.00    +0.000 A 
ATOM     24  C   UNL     1      -3.307   9.621  17.512  0.00  0.00    +0.000 A 
ATOM     25  C   UNL     1      -3.360  10.456  16.403  0.00  0.00    +0.000 A 
ATOM     26  C   UNL     1      -2.588  11.608  16.385  0.00  0.00    +0.000 A 
ATOM     27  C   UNL     1      -1.772  11.931  17.474  0.00  0.00    +0.000 A 
ENDBRANCH  21  22
BRANCH  21  28
ATOM     28  C   UNL     1      -1.599  12.282  21.021  0.00  0.00    +0.000 A 
ATOM     29  C   UNL     1      -2.980  12.554  20.890  0.00  0.00    +0.000 A 
ATOM     30  C   UNL     1      -3.703  13.238  21.887  0.00  0.00    +0.000 A 
ATOM     31  C   UNL     1      -3.067  13.663  23.049  0.00  0.00    +0.000 A 
ATOM     32  C   UNL     1      -1.718  13.390  23.226  0.00  0.00    +0.000 A 
ATOM     33  C   UNL     1      -1.010  12.673  22.246  0.00  0.00    +0.000 A 
ENDBRANCH  21  28
BRANCH  21  34
ATOM     34  C   UNL     1       0.344  12.617  19.414  0.00  0.00    +0.000 A 
ATOM     35  C   UNL     1       1.729  12.336  19.486  0.00  0.00    +0.000 A 
ATOM     36  C   UNL     1       2.694  13.337  19.292  0.00  0.00    +0.000 A 
ATOM     37  C   UNL     1       2.307  14.637  18.992  0.00  0.00    +0.000 A 
ATOM     38  C   UNL     1       0.956  14.925  18.840  0.00  0.00    +0.000 A 
ATOM     39  C   UNL     1      -0.005  13.915  18.988  0.00  0.00    +0.000 A 
ENDBRANCH  21  34
ENDBRANCH   7  21
TORSDOF 10
ENDMDL
MODEL 6
REMARK VINA RESULT:      -7.4      1.319      1.747
REMARK  Name = 
REMARK  10 active torsions:
REMARK  status: ('A' for Active; 'I' for Inactive)
REMARK    1  A    between atoms: O_1  and  C_2
REMARK    2  A    between atoms: C_2  and  C_3
REMARK    3  A    between atoms: C_3  and  O_4
REMARK    4  A    between atoms: O_4  and  C_5
REMARK    5  A    between atoms: C_5  and  N_6
REMARK    6  A    between atoms: C_10  and  O_11
REMARK    7  A    between atoms: C_13  and  C_14
REMARK    8  A    between atoms: C_14  and  C_15
REMARK    9  A    between atoms: C_14  and  C_21
REMARK   10  A    between atoms: C_14  and  C_27
REMARK                            x       y       z     vdW  Elec       q    Type
REMARK                         _______ _______ _______ _____ _____    ______ ____
ROOT
ATOM      1  N   UNL     1       3.531   6.648  18.752  0.00  0.00    +0.000 N 
ATOM      2  C   UNL     1       3.707   7.116  17.483  0.00  0.00    +0.000 A 
ATOM      3  N   UNL     1       2.984   8.177  17.166  0.00  0.00    +0.000 NA
ATOM      4  C   UNL     1       2.244   8.414  18.322  0.00  0.00    +0.000 A 
ATOM      5  C   UNL     1       1.296   9.311  18.600  0.00  0.00    +0.000 A 
ATOM      6  N   UNL     1       0.735   9.321  19.910  0.00  0.00    +0.000 N 
ATOM      7  C   UNL     1      -0.142  10.170  20.630  0.00  0.00    +0.000 A 
ATOM      8  C   UNL     1      -0.383   9.449  21.797  0.00  0.00    +0.000 A 
ATOM      9  N   UNL     1       0.422   8.367  21.931  0.00  0.00    +0.000 NA
ATOM     10  C   UNL     1       1.118   8.297  20.821  0.00  0.00    +0.000 A 
ATOM     11  N   UNL     1       2.064   7.345  20.543  0.00  0.00    +0.000 NA
ATOM     12  C   UNL     1       2.595   7.414  19.370  0.00  0.00    +0.000 A 
ENDROOT
BRANCH   5  13
ATOM     13  O   UNL     1       0.888  10.195  17.614  0.00  0.00    +0.000 OA
ATOM     14  H   UNL     1       0.514  10.972  18.083  0.00  0.00    +0.000 HD
ENDBRANCH   5  13
BRANCH   1  15
ATOM     15  C   UNL     1       3.956   5.359  19.228  0.00  0.00    +0.000 C 
BRANCH  15  16
ATOM     16  O   UNL     1       5.286   5.433  19.698  0.00  0.00    +0.000 OA
BRANCH  16  17
ATOM     17  C   UNL     1       6.219   5.117  18.654  0.00  0.00    +0.000 C 
BRANCH  17  18
ATOM     18  C   UNL     1       7.595   5.646  19.032  0.00  0.00    +0.000 C 
BRANCH  18  19
ATOM     19  O   UNL     1       7.797   5.518  20.433  0.00  0.00    +0.000 OA
ATOM     20  H   UNL     1       8.730   5.738  20.606  0.00  0.00    +0.000 HD
ENDBRANCH  18  19
ENDBRANCH  17  18
ENDBRANCH  16  17
ENDBRANCH  15  16
ENDBRANCH   1  15
BRANCH   7  21
ATOM     21  C   UNL     1      -0.744  11.603  20.290  0.00  0.00    +0.000 C 
BRANCH  21  22
ATOM     22  C   UNL     1      -1.951  11.319  19.279  0.00  0.00    +0.000 A 
ATOM     23  C   UNL     1      -1.950  10.291  18.303  0.00  0.00    +0.000 A 
ATOM     24  C   UNL     1      -3.058  10.053  17.473  0.00  0.00    +0.000 A 
ATOM     25  C   UNL     1      -4.168  10.886  17.534  0.00  0.00    +0.000 A 
ATOM     26  C   UNL     1      -4.180  11.935  18.442  0.00  0.00    +0.000 A 
ATOM     27  C   UNL     1      -3.091  12.146  19.293  0.00  0.00    +0.000 A 
ENDBRANCH  21  22
BRANCH  21  28
ATOM     28  C   UNL     1      -1.257  12.310  21.650  0.00  0.00    +0.000 A 
ATOM     29  C   UNL     1      -2.415  11.867  22.329  0.00  0.00    +0.000 A 
ATOM     30  C   UNL     1      -2.898  12.518  23.482  0.00  0.00    +0.000 A 
ATOM     31  C   UNL     1      -2.232  13.626  23.994  0.00  0.00    +0.000 A 
ATOM     32  C   UNL     1      -1.076  14.074  23.370  0.00  0.00    +0.000 A 
ATOM     33  C   UNL     1      -0.577  13.399  22.244  0.00  0.00    +0.000 A 
ENDBRANCH  21  28
BRANCH  21  34
ATOM     34  C   UNL     1       0.329  12.607  19.684  0.00  0.00    +0.000 A 
ATOM     35  C   UNL     1       0.015  13.502  18.635  0.00  0.00    +0.000 A 
ATOM     36  C   UNL     1       1.009  14.242  17.976  0.00  0.00    +0.000 A 
ATOM     37  C   UNL     1       2.339  14.133  18.364  0.00  0.00    +0.000 A 
ATOM     38  C   UNL     1       2.668  13.319  19.441  0.00  0.00    +0.000 A 
ATOM     39  C   UNL     1       1.667  12.617  20.129  0.00  0.00    +0.000 A 
ENDBRANCH  21  34
ENDBRANCH   7  21
TORSDOF 10
ENDMDL
MODEL 7
REMARK VINA RESULT:      -7.3      1.034      1.498
REMARK  Name = 
REMARK  10 active torsions:
REMARK  status: ('A' for Active; 'I' for Inactive)
REMARK    1  A    between atoms: O_1  and  C_2
REMARK    2  A    between atoms: C_2  and  C_3
REMARK    3  A    between atoms: C_3  and  O_4
REMARK    4  A    between atoms: O_4  and  C_5
REMARK    5  A    between atoms: C_5  and  N_6
REMARK    6  A    between atoms: C_10  and  O_11
REMARK    7  A    between atoms: C_13  and  C_14
REMARK    8  A    between atoms: C_14  and  C_15
REMARK    9  A    between atoms: C_14  and  C_21
REMARK   10  A    between atoms: C_14  and  C_27
REMARK                            x       y       z     vdW  Elec       q    Type
REMARK                         _______ _______ _______ _____ _____    ______ ____
ROOT
ATOM      1  N   UNL     1       3.159   6.610  19.156  0.00  0.00    +0.000 N 
ATOM      2  C   UNL     1       3.386   7.026  17.877  0.00  0.00    +0.000 A 
ATOM      3  N   UNL     1       2.724   8.111  17.510  0.00  0.00    +0.000 NA
ATOM      4  C   UNL     1       1.973   8.423  18.640  0.00  0.00    +0.000 A 
ATOM      5  C   UNL     1       1.066   9.376  18.867  0.00  0.00    +0.000 A 
ATOM      6  N   UNL     1       0.479   9.457  20.164  0.00  0.00    +0.000 N 
ATOM      7  C   UNL     1      -0.369  10.373  20.835  0.00  0.00    +0.000 A 
ATOM      8  C   UNL     1      -0.671   9.705  22.019  0.00  0.00    +0.000 A 
ATOM      9  N   UNL     1       0.076   8.589  22.206  0.00  0.00    +0.000 NA
ATOM     10  C   UNL     1       0.790   8.446  21.116  0.00  0.00    +0.000 A 
ATOM     11  N   UNL     1       1.692   7.439  20.890  0.00  0.00    +0.000 NA
ATOM     12  C   UNL     1       2.251   7.442  19.728  0.00  0.00    +0.000 A 
ENDROOT
BRANCH   5  13
ATOM     13  O   UNL     1       0.725  10.246  17.844  0.00  0.00    +0.000 OA
ATOM     14  H   UNL     1       0.201   9.720  17.203  0.00  0.00    +0.000 HD
ENDBRANCH   5  13
BRANCH   1  15
ATOM     15  C   UNL     1       3.508   5.318  19.683  0.00  0.00    +0.000 C 
BRANCH  15  16
ATOM     16  O   UNL     1       2.514   4.374  19.344  0.00  0.00    +0.000 OA
BRANCH  16  17
ATOM     17  C   UNL     1       3.080   3.263  18.635  0.00  0.00    +0.000 C 
BRANCH  17  18
ATOM     18  C   UNL     1       4.585   3.235  18.861  0.00  0.00    +0.000 C 
BRANCH  18  19
ATOM     19  O   UNL     1       4.926   2.165  19.732  0.00  0.00    +0.000 OA
ATOM     20  H   UNL     1       5.441   1.526  19.207  0.00  0.00    +0.000 HD
ENDBRANCH  18  19
ENDBRANCH  17  18
ENDBRANCH  16  17
ENDBRANCH  15  16
ENDBRANCH   1  15
BRANCH   7  21
ATOM     21  C   UNL     1      -0.889  11.823  20.435  0.00  0.00    +0.000 C 
BRANCH  21  22
ATOM     22  C   UNL     1      -2.110  11.565  19.434  0.00  0.00    +0.000 A 
ATOM     23  C   UNL     1      -3.336  12.275  19.471  0.00  0.00    +0.000 A 
ATOM     24  C   UNL     1      -4.358  12.043  18.535  0.00  0.00    +0.000 A 
ATOM     25  C   UNL     1      -4.221  11.037  17.586  0.00  0.00    +0.000 A 
ATOM     26  C   UNL     1      -3.054  10.287  17.557  0.00  0.00    +0.000 A 
ATOM     27  C   UNL     1      -2.024  10.546  18.465  0.00  0.00    +0.000 A 
ENDBRANCH  21  22
BRANCH  21  28
ATOM     28  C   UNL     1      -1.361  12.613  21.764  0.00  0.00    +0.000 A 
ATOM     29  C   UNL     1      -2.580  12.313  22.415  0.00  0.00    +0.000 A 
ATOM     30  C   UNL     1      -3.022  13.039  23.539  0.00  0.00    +0.000 A 
ATOM     31  C   UNL     1      -2.255  14.080  24.050  0.00  0.00    +0.000 A 
ATOM     32  C   UNL     1      -1.040  14.386  23.454  0.00  0.00    +0.000 A 
ATOM     33  C   UNL     1      -0.584  13.635  22.358  0.00  0.00    +0.000 A 
ENDBRANCH  21  28
BRANCH  21  34
ATOM     34  C   UNL     1       0.239  12.739  19.791  0.00  0.00    +0.000 A 
ATOM     35  C   UNL     1       1.592  12.665  20.196  0.00  0.00    +0.000 A 
ATOM     36  C   UNL     1       2.542  13.606  19.767  0.00  0.00    +0.000 A 
ATOM     37  C   UNL     1       2.175  14.629  18.901  0.00  0.00    +0.000 A 
ATOM     38  C   UNL     1       0.870  14.682  18.426  0.00  0.00    +0.000 A 
ATOM     39  C   UNL     1      -0.066  13.714  18.818  0.00  0.00    +0.000 A 
ENDBRANCH  21  34
ENDBRANCH   7  21
TORSDOF 10
ENDMDL
MODEL 8
REMARK VINA RESULT:      -7.3      1.063      1.448
REMARK  Name = 
REMARK  10 active torsions:
REMARK  status: ('A' for Active; 'I' for Inactive)
REMARK    1  A    between atoms: O_1  and  C_2
REMARK    2  A    between atoms: C_2  and  C_3
REMARK    3  A    between atoms: C_3  and  O_4
REMARK    4  A    between atoms: O_4  and  C_5
REMARK    5  A    between atoms: C_5  and  N_6
REMARK    6  A    between atoms: C_10  and  O_11
REMARK    7  A    between atoms: C_13  and  C_14
REMARK    8  A    between atoms: C_14  and  C_15
REMARK    9  A    between atoms: C_14  and  C_21
REMARK   10  A    between atoms: C_14  and  C_27
REMARK                            x       y       z     vdW  Elec       q    Type
REMARK                         _______ _______ _______ _____ _____    ______ ____
ROOT
ATOM      1  N   UNL     1       3.053   6.809  19.074  0.00  0.00    +0.000 N 
ATOM      2  C   UNL     1       3.259   7.240  17.795  0.00  0.00    +0.000 A 
ATOM      3  N   UNL     1       2.592   8.329  17.452  0.00  0.00    +0.000 NA
ATOM      4  C   UNL     1       1.861   8.630  18.599  0.00  0.00    +0.000 A 
ATOM      5  C   UNL     1       0.960   9.581  18.852  0.00  0.00    +0.000 A 
ATOM      6  N   UNL     1       0.395   9.648  20.160  0.00  0.00    +0.000 N 
ATOM      7  C   UNL     1      -0.440  10.557  20.856  0.00  0.00    +0.000 A 
ATOM      8  C   UNL     1      -0.722   9.875  22.037  0.00  0.00    +0.000 A 
ATOM      9  N   UNL     1       0.026   8.756  22.199  0.00  0.00    +0.000 NA
ATOM     10  C   UNL     1       0.721   8.626  21.095  0.00  0.00    +0.000 A 
ATOM     11  N   UNL     1       1.618   7.620  20.842  0.00  0.00    +0.000 NA
ATOM     12  C   UNL     1       2.156   7.636  19.671  0.00  0.00    +0.000 A 
ENDROOT
BRANCH   5  13
ATOM     13  O   UNL     1       0.602  10.463  17.846  0.00  0.00    +0.000 OA
ATOM     14  H   UNL     1       0.342   9.909  17.079  0.00  0.00    +0.000 HD
ENDBRANCH   5  13
BRANCH   1  15
ATOM     15  C   UNL     1       3.409   5.511  19.579  0.00  0.00    +0.000 C 
BRANCH  15  16
ATOM     16  O   UNL     1       2.968   4.508  18.688  0.00  0.00    +0.000 OA
BRANCH  16  17
ATOM     17  C   UNL     1       4.037   3.612  18.352  0.00  0.00    +0.000 C 
BRANCH  17  18
ATOM     18  C   UNL     1       3.884   2.324  19.149  0.00  0.00    +0.000 C 
BRANCH  18  19
ATOM     19  O   UNL     1       5.068   2.068  19.891  0.00  0.00    +0.000 OA
ATOM     20  H   UNL     1       4.839   1.411  20.573  0.00  0.00    +0.000 HD
ENDBRANCH  18  19
ENDBRANCH  17  18
ENDBRANCH  16  17
ENDBRANCH  15  16
ENDBRANCH   1  15
BRANCH   7  21
ATOM     21  C   UNL     1      -0.965  12.011  20.482  0.00  0.00    +0.000 C 
BRANCH  21  22
ATOM     22  C   UNL     1      -2.168  11.769  19.456  0.00  0.00    +0.000 A 
ATOM     23  C   UNL     1      -2.067  10.989  18.277  0.00  0.00    +0.000 A 
ATOM     24  C   UNL     1      -3.170  10.767  17.436  0.00  0.00    +0.000 A 
ATOM     25  C   UNL     1      -4.386  11.385  17.701  0.00  0.00    +0.000 A 
ATOM     26  C   UNL     1      -4.504  12.198  18.818  0.00  0.00    +0.000 A 
ATOM     27  C   UNL     1      -3.415  12.387  19.674  0.00  0.00    +0.000 A 
ENDBRANCH  21  22
BRANCH  21  28
ATOM     28  C   UNL     1      -1.464  12.767  21.821  0.00  0.00    +0.000 A 
ATOM     29  C   UNL     1      -0.709  13.802  22.419  0.00  0.00    +0.000 A 
ATOM     30  C   UNL     1      -1.113  14.422  23.618  0.00  0.00    +0.000 A 
ATOM     31  C   UNL     1      -2.287  14.030  24.251  0.00  0.00    +0.000 A 
ATOM     32  C   UNL     1      -3.070  13.036  23.680  0.00  0.00    +0.000 A 
ATOM     33  C   UNL     1      -2.684  12.448  22.464  0.00  0.00    +0.000 A 
ENDBRANCH  21  28
BRANCH  21  34
ATOM     34  C   UNL     1       0.166  12.951  19.877  0.00  0.00    +0.000 A 
ATOM     35  C   UNL     1       1.526  12.824  20.244  0.00  0.00    +0.000 A 
ATOM     36  C   UNL     1       2.484  13.776  19.860  0.00  0.00    +0.000 A 
ATOM     37  C   UNL     1       2.117  14.864  19.076  0.00  0.00    +0.000 A 
ATOM     38  C   UNL     1       0.804  14.974  18.638  0.00  0.00    +0.000 A 
ATOM     39  C   UNL     1      -0.142  13.997  18.983  0.00  0.00    +0.000 A 
ENDBRANCH  21  34
ENDBRANCH   7  21
TORSDOF 10
ENDMDL
MODEL 9
REMARK VINA RESULT:      -7.3      1.245      1.734
REMARK  Name = 
REMARK  10 active torsions:
REMARK  status: ('A' for Active; 'I' for Inactive)
REMARK    1  A    between atoms: O_1  and  C_2
REMARK    2  A    between atoms: C_2  and  C_3
REMARK    3  A    between atoms: C_3  and  O_4
REMARK    4  A    between atoms: O_4  and  C_5
REMARK    5  A    between atoms: C_5  and  N_6
REMARK    6  A    between atoms: C_10  and  O_11
REMARK    7  A    between atoms: C_13  and  C_14
REMARK    8  A    between atoms: C_14  and  C_15
REMARK    9  A    between atoms: C_14  and  C_21
REMARK   10  A    between atoms: C_14  and  C_27
REMARK                            x       y       z     vdW  Elec       q    Type
REMARK                         _______ _______ _______ _____ _____    ______ ____
ROOT
ATOM      1  N   UNL     1       3.115   6.749  19.034  0.00  0.00    +0.000 N 
ATOM      2  C   UNL     1       3.323   7.199  17.762  0.00  0.00    +0.000 A 
ATOM      3  N   UNL     1       2.654   8.291  17.433  0.00  0.00    +0.000 NA
ATOM      4  C   UNL     1       1.919   8.573  18.581  0.00  0.00    +0.000 A 
ATOM      5  C   UNL     1       1.014   9.517  18.846  0.00  0.00    +0.000 A 
ATOM      6  N   UNL     1       0.446   9.564  20.153  0.00  0.00    +0.000 N 
ATOM      7  C   UNL     1      -0.393  10.461  20.860  0.00  0.00    +0.000 A 
ATOM      8  C   UNL     1      -0.677   9.762  22.031  0.00  0.00    +0.000 A 
ATOM      9  N   UNL     1       0.074   8.643  22.178  0.00  0.00    +0.000 NA
ATOM     10  C   UNL     1       0.773   8.530  21.074  0.00  0.00    +0.000 A 
ATOM     11  N   UNL     1       1.673   7.531  20.810  0.00  0.00    +0.000 NA
ATOM     12  C   UNL     1       2.214   7.565  19.640  0.00  0.00    +0.000 A 
ENDROOT
BRANCH   5  13
ATOM     13  O   UNL     1       0.656  10.412  17.851  0.00  0.00    +0.000 OA
ATOM     14  H   UNL     1       1.412  10.441  17.226  0.00  0.00    +0.000 HD
ENDBRANCH   5  13
BRANCH   1  15
ATOM     15  C   UNL     1       3.474   5.445  19.522  0.00  0.00    +0.000 C 
BRANCH  15  16
ATOM     16  O   UNL     1       3.130   4.461  18.569  0.00  0.00    +0.000 OA
BRANCH  16  17
ATOM     17  C   UNL     1       1.865   3.862  18.884  0.00  0.00    +0.000 C 
BRANCH  17  18
ATOM     18  C   UNL     1       2.056   2.367  19.098  0.00  0.00    +0.000 C 
BRANCH  18  19
ATOM     19  O   UNL     1       2.300   1.725  17.854  0.00  0.00    +0.000 OA
ATOM     20  H   UNL     1       3.266   1.704  17.730  0.00  0.00    +0.000 HD
ENDBRANCH  18  19
ENDBRANCH  17  18
ENDBRANCH  16  17
ENDBRANCH  15  16
ENDBRANCH   1  15
BRANCH   7  21
ATOM     21  C   UNL     1      -0.922  11.919  20.505  0.00  0.00    +0.000 C 
BRANCH  21  22
ATOM     22  C   UNL     1      -2.145  11.686  19.500  0.00  0.00    +0.000 A 
ATOM     23  C   UNL     1      -2.104  10.817  18.381  0.00  0.00    +0.000 A 
ATOM     24  C   UNL     1      -3.225  10.611  17.560  0.00  0.00    +0.000 A 
ATOM     25  C   UNL     1      -4.394  11.328  17.780  0.00  0.00    +0.000 A 
ATOM     26  C   UNL     1      -4.450  12.227  18.835  0.00  0.00    +0.000 A 
ATOM     27  C   UNL     1      -3.346  12.402  19.674  0.00  0.00    +0.000 A 
ENDBRANCH  21  22
BRANCH  21  28
ATOM     28  C   UNL     1      -1.394  12.667  21.858  0.00  0.00    +0.000 A 
ATOM     29  C   UNL     1      -2.585  12.308  22.531  0.00  0.00    +0.000 A 
ATOM     30  C   UNL     1      -3.029  12.997  23.678  0.00  0.00    +0.000 A 
ATOM     31  C   UNL     1      -2.292  14.059  24.189  0.00  0.00    +0.000 A 
ATOM     32  C   UNL     1      -1.103  14.423  23.572  0.00  0.00    +0.000 A 
ATOM     33  C   UNL     1      -0.644  13.709  22.453  0.00  0.00    +0.000 A 
ENDBRANCH  21  28
BRANCH  21  34
ATOM     34  C   UNL     1       0.199  12.860  19.885  0.00  0.00    +0.000 A 
ATOM     35  C   UNL     1       1.559  12.761  20.262  0.00  0.00    +0.000 A 
ATOM     36  C   UNL     1       2.506  13.717  19.862  0.00  0.00    +0.000 A 
ATOM     37  C   UNL     1       2.129  14.781  19.051  0.00  0.00    +0.000 A 
ATOM     38  C   UNL     1       0.817  14.862  18.602  0.00  0.00    +0.000 A 
ATOM     39  C   UNL     1      -0.117  13.881  18.965  0.00  0.00    +0.000 A 
ENDBRANCH  21  34
ENDBRANCH   7  21
TORSDOF 10
ENDMDL
