MODEL 1
REMARK VINA RESULT:      -7.7      0.000      0.000
REMARK  Name = 
REMARK  8 active torsions:
REMARK  status: ('A' for Active; 'I' for Inactive)
REMARK    1  A    between atoms: C_2  and  C_3
REMARK    2  A    between atoms: C_3  and  O_4
REMARK    3  A    between atoms: O_4  and  C_5
REMARK    4  A    between atoms: C_9  and  C_10
REMARK    5  A    between atoms: C_15  and  C_16
REMARK    6  A    between atoms: C_16  and  C_17
REMARK    7  A    between atoms: C_17  and  C_18
REMARK    8  A    between atoms: N_20  and  C_21
REMARK                            x       y       z     vdW  Elec       q    Type
REMARK                         _______ _______ _______ _____ _____    ______ ____
ROOT
ATOM      1  C   UNL     1       7.006   4.636  16.288  0.00  0.00    +0.000 C 
ATOM      2  O   UNL     1       8.057   4.220  16.795  0.00  0.00    +0.000 OA
ATOM      3  N   UNL     1       5.961   5.144  17.058  0.00  0.00    +0.000 N 
ATOM      4  C   UNL     1       6.121   5.190  18.515  0.00  0.00    +0.000 C 
ATOM      5  C   UNL     1       4.967   4.465  19.222  0.00  0.00    +0.000 C 
ATOM      6  C   UNL     1       3.575   4.929  18.729  0.00  0.00    +0.000 C 
ATOM      7  C   UNL     1       3.554   4.839  17.193  0.00  0.00    +0.000 C 
ATOM      8  C   UNL     1       4.679   5.692  16.603  0.00  0.00    +0.000 C 
ENDROOT
BRANCH   1  13
ATOM      9  C   UNL     1       6.006   3.571  12.788  0.00  0.00    +0.000 A 
ATOM     10  C   UNL     1       6.918   4.280  12.004  0.00  0.00    +0.000 A 
ATOM     11  C   UNL     1       7.809   5.163  12.594  0.00  0.00    +0.000 A 
ATOM     12  C   UNL     1       7.776   5.357  13.973  0.00  0.00    +0.000 A 
ATOM     13  C   UNL     1       6.941   4.583  14.784  0.00  0.00    +0.000 A 
ATOM     14  C   UNL     1       6.011   3.729  14.177  0.00  0.00    +0.000 A 
BRANCH   9  15
ATOM     15  O   UNL     1       5.081   2.692  12.281  0.00  0.00    +0.000 OA
BRANCH  15  16
ATOM     16  C   UNL     1       4.788   2.892  10.895  0.00  0.00    +0.000 C 
BRANCH  16  18
ATOM     17  C   UNL     1       2.957   4.099   9.717  0.00  0.00    +0.000 C 
ATOM     18  C   UNL     1       3.386   3.383  10.770  0.00  0.00    +0.000 C 
ENDBRANCH  16  18
ENDBRANCH  15  16
ENDBRANCH   9  15
ENDBRANCH   1  13
BRANCH   6  19
ATOM     19  C   UNL     1       3.236   6.346  19.255  0.00  0.00    +0.000 C 
BRANCH  19  20
ATOM     20  C   UNL     1       2.396   7.180  18.281  0.00  0.00    +0.000 C 
BRANCH  20  21
ATOM     21  C   UNL     1       1.864   8.437  18.941  0.00  0.00    +0.000 C 
ATOM     22  O   UNL     1       1.813   9.527  18.384  0.00  0.00    +0.000 OA
ATOM     23  N   UNL     1       1.426   8.213  20.234  0.00  0.00    +0.000 N 
ATOM     24  H   UNL     1       1.425   7.270  20.600  0.00  0.00    +0.000 HD
BRANCH  23  25
ATOM     25  C   UNL     1       0.849   9.250  21.031  0.00  0.00    +0.000 C 
ATOM     26  C   UNL     1      -0.271   8.945  21.985  0.00  0.00    +0.000 C 
ATOM     27  C   UNL     1       1.088   9.302  22.514  0.00  0.00    +0.000 C 
ENDBRANCH  23  25
ENDBRANCH  20  21
ENDBRANCH  19  20
ENDBRANCH   6  19
TORSDOF 8
ENDMDL
MODEL 2
REMARK VINA RESULT:      -7.5      1.213      1.553
REMARK  Name = 
REMARK  8 active torsions:
REMARK  status: ('A' for Active; 'I' for Inactive)
REMARK    1  A    between atoms: C_2  and  C_3
REMARK    2  A    between atoms: C_3  and  O_4
REMARK    3  A    between atoms: O_4  and  C_5
REMARK    4  A    between atoms: C_9  and  C_10
REMARK    5  A    between atoms: C_15  and  C_16
REMARK    6  A    between atoms: C_16  and  C_17
REMARK    7  A    between atoms: C_17  and  C_18
REMARK    8  A    between atoms: N_20  and  C_21
REMARK                            x       y       z     vdW  Elec       q    Type
REMARK                         _______ _______ _______ _____ _____    ______ ____
ROOT
ATOM      1  C   UNL     1       6.989   4.767  16.474  0.00  0.00    +0.000 C 
ATOM      2  O   UNL     1       8.043   4.377  16.994  0.00  0.00    +0.000 OA
ATOM      3  N   UNL     1       5.930   5.269  17.229  0.00  0.00    +0.000 N 
ATOM      4  C   UNL     1       6.079   5.339  18.685  0.00  0.00    +0.000 C 
ATOM      5  C   UNL     1       4.932   4.606  19.395  0.00  0.00    +0.000 C 
ATOM      6  C   UNL     1       3.536   5.039  18.886  0.00  0.00    +0.000 C 
ATOM      7  C   UNL     1       3.527   4.927  17.351  0.00  0.00    +0.000 C 
ATOM      8  C   UNL     1       4.643   5.789  16.756  0.00  0.00    +0.000 C 
ENDROOT
BRANCH   1  13
ATOM      9  C   UNL     1       6.037   3.630  12.983  0.00  0.00    +0.000 A 
ATOM     10  C   UNL     1       6.939   4.348  12.195  0.00  0.00    +0.000 A 
ATOM     11  C   UNL     1       7.806   5.258  12.777  0.00  0.00    +0.000 A 
ATOM     12  C   UNL     1       7.759   5.472  14.153  0.00  0.00    +0.000 A 
ATOM     13  C   UNL     1       6.936   4.692  14.971  0.00  0.00    +0.000 A 
ATOM     14  C   UNL     1       6.029   3.809  14.370  0.00  0.00    +0.000 A 
BRANCH   9  15
ATOM     15  O   UNL     1       5.135   2.724  12.483  0.00  0.00    +0.000 OA
BRANCH  15  16
ATOM     16  C   UNL     1       4.885   2.865  11.081  0.00  0.00    +0.000 C 
BRANCH  16  18
ATOM     17  C   UNL     1       3.060   3.827   9.689  0.00  0.00    +0.000 C 
ATOM     18  C   UNL     1       3.556   3.517  10.898  0.00  0.00    +0.000 C 
ENDBRANCH  16  18
ENDBRANCH  15  16
ENDBRANCH   9  15
ENDBRANCH   1  13
BRANCH   6  19
ATOM     19  C   UNL     1       3.170   6.458  19.389  0.00  0.00    +0.000 C 
BRANCH  19  20
ATOM     20  C   UNL     1       1.911   6.496  20.263  0.00  0.00    +0.000 C 
BRANCH  20  21
ATOM     21  C   UNL     1       1.516   7.918  20.607  0.00  0.00    +0.000 C 
ATOM     22  O   UNL     1       1.336   8.316  21.752  0.00  0.00    +0.000 OA
ATOM     23  N   UNL     1       1.398   8.722  19.487  0.00  0.00    +0.000 N 
ATOM     24  H   UNL     1       1.640   8.346  18.580  0.00  0.00    +0.000 HD
BRANCH  23  25
ATOM     25  C   UNL     1       1.072  10.111  19.580  0.00  0.00    +0.000 C 
ATOM     26  C   UNL     1       1.419  11.052  18.461  0.00  0.00    +0.000 C 
ATOM     27  C   UNL     1      -0.016  10.703  18.728  0.00  0.00    +0.000 C 
ENDBRANCH  23  25
ENDBRANCH  20  21
ENDBRANCH  19  20
ENDBRANCH   6  19
TORSDOF 8
ENDMDL
MODEL 3
REMARK VINA RESULT:      -7.4      3.854      6.095
REMARK  Name = 
REMARK  8 active torsions:
REMARK  status: ('A' for Active; 'I' for Inactive)
REMARK    1  A    between atoms: C_2  and  C_3
REMARK    2  A    between atoms: C_3  and  O_4
REMARK    3  A    between atoms: O_4  and  C_5
REMARK    4  A    between atoms: C_9  and  C_10
REMARK    5  A    between atoms: C_15  and  C_16
REMARK    6  A    between atoms: C_16  and  C_17
REMARK    7  A    between atoms: C_17  and  C_18
REMARK    8  A    between atoms: N_20  and  C_21
REMARK                            x       y       z     vdW  Elec       q    Type
REMARK                         _______ _______ _______ _____ _____    ______ ____
ROOT
ATOM      1  C   UNL     1       2.222   6.291  19.851  0.00  0.00    +0.000 C 
ATOM      2  O   UNL     1       1.725   5.803  20.875  0.00  0.00    +0.000 OA
ATOM      3  N   UNL     1       2.084   7.639  19.528  0.00  0.00    +0.000 N 
ATOM      4  C   UNL     1       1.328   8.505  20.438  0.00  0.00    +0.000 C 
ATOM      5  C   UNL     1       0.200   9.237  19.698  0.00  0.00    +0.000 C 
ATOM      6  C   UNL     1       0.688   9.951  18.415  0.00  0.00    +0.000 C 
ATOM      7  C   UNL     1       1.469   8.933  17.565  0.00  0.00    +0.000 C 
ATOM      8  C   UNL     1       2.634   8.359  18.374  0.00  0.00    +0.000 C 
ENDROOT
BRANCH   1  13
ATOM      9  C   UNL     1       5.167   4.431  18.350  0.00  0.00    +0.000 A 
ATOM     10  C   UNL     1       4.563   3.749  17.292  0.00  0.00    +0.000 A 
ATOM     11  C   UNL     1       3.193   3.824  17.103  0.00  0.00    +0.000 A 
ATOM     12  C   UNL     1       2.415   4.567  17.989  0.00  0.00    +0.000 A 
ATOM     13  C   UNL     1       3.010   5.337  18.991  0.00  0.00    +0.000 A 
ATOM     14  C   UNL     1       4.390   5.218  19.205  0.00  0.00    +0.000 A 
BRANCH   9  15
ATOM     15  O   UNL     1       6.514   4.395  18.616  0.00  0.00    +0.000 OA
BRANCH  15  16
ATOM     16  C   UNL     1       7.078   5.670  18.935  0.00  0.00    +0.000 C 
BRANCH  16  18
ATOM     17  C   UNL     1       7.625   7.710  17.618  0.00  0.00    +0.000 C 
ATOM     18  C   UNL     1       7.376   6.391  17.664  0.00  0.00    +0.000 C 
ENDBRANCH  16  18
ENDBRANCH  15  16
ENDBRANCH   9  15
ENDBRANCH   1  13
BRANCH   6  19
ATOM     19  C   UNL     1       1.517  11.215  18.756  0.00  0.00    +0.000 C 
BRANCH  19  20
ATOM     20  C   UNL     1       0.666  12.404  19.215  0.00  0.00    +0.000 C 
BRANCH  20  21
ATOM     21  C   UNL     1       0.622  12.504  20.727  0.00  0.00    +0.000 C 
ATOM     22  O   UNL     1       1.566  12.882  21.411  0.00  0.00    +0.000 OA
ATOM     23  N   UNL     1      -0.607  12.139  21.248  0.00  0.00    +0.000 N 
ATOM     24  H   UNL     1      -1.365  11.915  20.617  0.00  0.00    +0.000 HD
BRANCH  23  25
ATOM     25  C   UNL     1      -0.885  12.195  22.649  0.00  0.00    +0.000 C 
ATOM     26  C   UNL     1      -1.610  13.374  23.236  0.00  0.00    +0.000 C 
ATOM     27  C   UNL     1      -2.290  12.038  23.160  0.00  0.00    +0.000 C 
ENDBRANCH  23  25
ENDBRANCH  20  21
ENDBRANCH  19  20
ENDBRANCH   6  19
TORSDOF 8
ENDMDL
MODEL 4
REMARK VINA RESULT:      -7.4      3.915      6.637
REMARK  Name = 
REMARK  8 active torsions:
REMARK  status: ('A' for Active; 'I' for Inactive)
REMARK    1  A    between atoms: C_2  and  C_3
REMARK    2  A    between atoms: C_3  and  O_4
REMARK    3  A    between atoms: O_4  and  C_5
REMARK    4  A    between atoms: C_9  and  C_10
REMARK    5  A    between atoms: C_15  and  C_16
REMARK    6  A    between atoms: C_16  and  C_17
REMARK    7  A    between atoms: C_17  and  C_18
REMARK    8  A    between atoms: N_20  and  C_21
REMARK                            x       y       z     vdW  Elec       q    Type
REMARK                         _______ _______ _______ _____ _____    ______ ____
ROOT
ATOM      1  C   UNL     1       2.157   6.422  19.970  0.00  0.00    +0.000 C 
ATOM      2  O   UNL     1       1.699   5.992  21.037  0.00  0.00    +0.000 OA
ATOM      3  N   UNL     1       2.036   7.760  19.596  0.00  0.00    +0.000 N 
ATOM      4  C   UNL     1       1.347   8.682  20.503  0.00  0.00    +0.000 C 
ATOM      5  C   UNL     1       0.202   9.412  19.787  0.00  0.00    +0.000 C 
ATOM      6  C   UNL     1       0.645  10.059  18.452  0.00  0.00    +0.000 C 
ATOM      7  C   UNL     1       1.359   8.986  17.611  0.00  0.00    +0.000 C 
ATOM      8  C   UNL     1       2.547   8.415  18.388  0.00  0.00    +0.000 C 
ENDROOT
BRANCH   1  13
ATOM      9  C   UNL     1       4.973   4.376  18.465  0.00  0.00    +0.000 A 
ATOM     10  C   UNL     1       4.319   3.715  17.423  0.00  0.00    +0.000 A 
ATOM     11  C   UNL     1       2.953   3.867  17.248  0.00  0.00    +0.000 A 
ATOM     12  C   UNL     1       2.229   4.665  18.131  0.00  0.00    +0.000 A 
ATOM     13  C   UNL     1       2.879   5.414  19.116  0.00  0.00    +0.000 A 
ATOM     14  C   UNL     1       4.252   5.217  19.317  0.00  0.00    +0.000 A 
BRANCH   9  15
ATOM     15  O   UNL     1       6.318   4.265  18.717  0.00  0.00    +0.000 OA
BRANCH  15  16
ATOM     16  C   UNL     1       6.959   5.510  19.012  0.00  0.00    +0.000 C 
BRANCH  16  18
ATOM     17  C   UNL     1       7.557   7.443  17.562  0.00  0.00    +0.000 C 
ATOM     18  C   UNL     1       7.432   6.117  17.735  0.00  0.00    +0.000 C 
ENDBRANCH  16  18
ENDBRANCH  15  16
ENDBRANCH   9  15
ENDBRANCH   1  13
BRANCH   6  19
ATOM     19  C   UNL     1       1.520  11.313  18.699  0.00  0.00    +0.000 C 
BRANCH  19  20
ATOM     20  C   UNL     1       1.145  12.086  19.969  0.00  0.00    +0.000 C 
BRANCH  20  21
ATOM     21  C   UNL     1       2.081  13.254  20.206  0.00  0.00    +0.000 C 
ATOM     22  O   UNL     1       2.537  13.547  21.305  0.00  0.00    +0.000 OA
ATOM     23  N   UNL     1       2.379  13.941  19.043  0.00  0.00    +0.000 N 
ATOM     24  H   UNL     1       2.030  13.593  18.159  0.00  0.00    +0.000 HD
BRANCH  23  25
ATOM     25  C   UNL     1       3.275  15.054  19.026  0.00  0.00    +0.000 C 
ATOM     26  C   UNL     1       3.780  15.608  17.724  0.00  0.00    +0.000 C 
ATOM     27  C   UNL     1       2.813  16.404  18.551  0.00  0.00    +0.000 C 
ENDBRANCH  23  25
ENDBRANCH  20  21
ENDBRANCH  19  20
ENDBRANCH   6  19
TORSDOF 8
ENDMDL
MODEL 5
REMARK VINA RESULT:      -7.3      3.899      6.620
REMARK  Name = 
REMARK  8 active torsions:
REMARK  status: ('A' for Active; 'I' for Inactive)
REMARK    1  A    between atoms: C_2  and  C_3
REMARK    2  A    between atoms: C_3  and  O_4
REMARK    3  A    between atoms: O_4  and  C_5
REMARK    4  A    between atoms: C_9  and  C_10
REMARK    5  A    between atoms: C_15  and  C_16
REMARK    6  A    between atoms: C_16  and  C_17
REMARK    7  A    between atoms: C_17  and  C_18
REMARK    8  A    between atoms: N_20  and  C_21
REMARK                            x       y       z     vdW  Elec       q    Type
REMARK                         _______ _______ _______ _____ _____    ______ ____
ROOT
ATOM      1  C   UNL     1       2.231   6.390  19.944  0.00  0.00    +0.000 C 
ATOM      2  O   UNL     1       1.759   5.931  20.993  0.00  0.00    +0.000 OA
ATOM      3  N   UNL     1       2.087   7.730  19.589  0.00  0.00    +0.000 N 
ATOM      4  C   UNL     1       1.357   8.621  20.495  0.00  0.00    +0.000 C 
ATOM      5  C   UNL     1       0.212   9.336  19.764  0.00  0.00    +0.000 C 
ATOM      6  C   UNL     1       0.669  10.015  18.450  0.00  0.00    +0.000 C 
ATOM      7  C   UNL     1       1.426   8.973  17.608  0.00  0.00    +0.000 C 
ATOM      8  C   UNL     1       2.610   8.417  18.404  0.00  0.00    +0.000 C 
ENDROOT
BRANCH   1  13
ATOM      9  C   UNL     1       5.130   4.452  18.453  0.00  0.00    +0.000 A 
ATOM     10  C   UNL     1       4.509   3.775  17.402  0.00  0.00    +0.000 A 
ATOM     11  C   UNL     1       3.140   3.880  17.215  0.00  0.00    +0.000 A 
ATOM     12  C   UNL     1       2.380   4.647  18.096  0.00  0.00    +0.000 A 
ATOM     13  C   UNL     1       2.996   5.412  19.091  0.00  0.00    +0.000 A 
ATOM     14  C   UNL     1       4.372   5.263  19.304  0.00  0.00    +0.000 A 
BRANCH   9  15
ATOM     15  O   UNL     1       6.476   4.387  18.716  0.00  0.00    +0.000 OA
BRANCH  15  16
ATOM     16  C   UNL     1       7.080   5.658  18.975  0.00  0.00    +0.000 C 
BRANCH  16  18
ATOM     17  C   UNL     1       7.681   7.640  17.594  0.00  0.00    +0.000 C 
ATOM     18  C   UNL     1       7.299   6.355  17.675  0.00  0.00    +0.000 C 
ENDBRANCH  16  18
ENDBRANCH  15  16
ENDBRANCH   9  15
ENDBRANCH   1  13
BRANCH   6  19
ATOM     19  C   UNL     1       1.509  11.285  18.737  0.00  0.00    +0.000 C 
BRANCH  19  20
ATOM     20  C   UNL     1       0.674  12.482  19.209  0.00  0.00    +0.000 C 
BRANCH  20  21
ATOM     21  C   UNL     1       1.285  13.795  18.763  0.00  0.00    +0.000 C 
ATOM     22  O   UNL     1       0.663  14.850  18.707  0.00  0.00    +0.000 OA
ATOM     23  N   UNL     1       2.626  13.677  18.444  0.00  0.00    +0.000 N 
ATOM     24  H   UNL     1       3.094  12.792  18.591  0.00  0.00    +0.000 HD
BRANCH  23  25
ATOM     25  C   UNL     1       3.412  14.799  18.037  0.00  0.00    +0.000 C 
ATOM     26  C   UNL     1       4.234  15.559  19.039  0.00  0.00    +0.000 C 
ATOM     27  C   UNL     1       4.912  14.714  18.002  0.00  0.00    +0.000 C 
ENDBRANCH  23  25
ENDBRANCH  20  21
ENDBRANCH  19  20
ENDBRANCH   6  19
TORSDOF 8
ENDMDL
MODEL 6
REMARK VINA RESULT:      -7.2      3.801      6.236
REMARK  Name = 
REMARK  8 active torsions:
REMARK  status: ('A' for Active; 'I' for Inactive)
REMARK    1  A    between atoms: C_2  and  C_3
REMARK    2  A    between atoms: C_3  and  O_4
REMARK    3  A    between atoms: O_4  and  C_5
REMARK    4  A    between atoms: C_9  and  C_10
REMARK    5  A    between atoms: C_15  and  C_16
REMARK    6  A    between atoms: C_16  and  C_17
REMARK    7  A    between atoms: C_17  and  C_18
REMARK    8  A    between atoms: N_20  and  C_21
REMARK                            x       y       z     vdW  Elec       q    Type
REMARK                         _______ _______ _______ _____ _____    ______ ____
ROOT
ATOM      1  C   UNL     1       2.334   6.140  19.984  0.00  0.00    +0.000 C 
ATOM      2  O   UNL     1       1.892   5.574  20.993  0.00  0.00    +0.000 OA
ATOM      3  N   UNL     1       2.117   7.494  19.737  0.00  0.00    +0.000 N 
ATOM      4  C   UNL     1       1.342   8.269  20.710  0.00  0.00    +0.000 C 
ATOM      5  C   UNL     1       0.157   8.977  20.039  0.00  0.00    +0.000 C 
ATOM      6  C   UNL     1       0.571   9.782  18.784  0.00  0.00    +0.000 C 
ATOM      7  C   UNL     1       1.380   8.854  17.861  0.00  0.00    +0.000 C 
ATOM      8  C   UNL     1       2.596   8.301  18.610  0.00  0.00    +0.000 C 
ENDROOT
BRANCH   1  13
ATOM      9  C   UNL     1       5.315   4.397  18.417  0.00  0.00    +0.000 A 
ATOM     10  C   UNL     1       4.754   3.863  17.255  0.00  0.00    +0.000 A 
ATOM     11  C   UNL     1       3.397   3.996  17.009  0.00  0.00    +0.000 A 
ATOM     12  C   UNL     1       2.589   4.647  17.939  0.00  0.00    +0.000 A 
ATOM     13  C   UNL     1       3.147   5.276  19.055  0.00  0.00    +0.000 A 
ATOM     14  C   UNL     1       4.511   5.096  19.321  0.00  0.00    +0.000 A 
BRANCH   9  15
ATOM     15  O   UNL     1       6.646   4.294  18.742  0.00  0.00    +0.000 OA
BRANCH  15  16
ATOM     16  C   UNL     1       7.520   4.976  17.838  0.00  0.00    +0.000 C 
BRANCH  16  18
ATOM     17  C   UNL     1       7.517   7.449  17.551  0.00  0.00    +0.000 C 
ATOM     18  C   UNL     1       7.719   6.371  18.326  0.00  0.00    +0.000 C 
ENDBRANCH  16  18
ENDBRANCH  15  16
ENDBRANCH   9  15
ENDBRANCH   1  13
BRANCH   6  19
ATOM     19  C   UNL     1       1.343  11.069  19.171  0.00  0.00    +0.000 C 
BRANCH  19  20
ATOM     20  C   UNL     1       0.439  12.201  19.673  0.00  0.00    +0.000 C 
BRANCH  20  21
ATOM     21  C   UNL     1      -0.692  12.481  18.703  0.00  0.00    +0.000 C 
ATOM     22  O   UNL     1      -0.645  13.346  17.836  0.00  0.00    +0.000 OA
ATOM     23  N   UNL     1      -1.774  11.640  18.892  0.00  0.00    +0.000 N 
ATOM     24  H   UNL     1      -1.710  10.896  19.574  0.00  0.00    +0.000 HD
BRANCH  23  25
ATOM     25  C   UNL     1      -2.937  11.701  18.062  0.00  0.00    +0.000 C 
ATOM     26  C   UNL     1      -2.927  11.092  16.688  0.00  0.00    +0.000 C 
ATOM     27  C   UNL     1      -3.744  10.465  17.779  0.00  0.00    +0.000 C 
ENDBRANCH  23  25
ENDBRANCH  20  21
ENDBRANCH  19  20
ENDBRANCH   6  19
TORSDOF 8
ENDMDL
MODEL 7
REMARK VINA RESULT:      -7.1      3.879      6.232
REMARK  Name = 
REMARK  8 active torsions:
REMARK  status: ('A' for Active; 'I' for Inactive)
REMARK    1  A    between atoms: C_2  and  C_3
REMARK    2  A    between atoms: C_3  and  O_4
REMARK    3  A    between atoms: O_4  and  C_5
REMARK    4  A    between atoms: C_9  and  C_10
REMARK    5  A    between atoms: C_15  and  C_16
REMARK    6  A    between atoms: C_16  and  C_17
REMARK    7  A    between atoms: C_17  and  C_18
REMARK    8  A    between atoms: N_20  and  C_21
REMARK                            x       y       z     vdW  Elec       q    Type
REMARK                         _______ _______ _______ _____ _____    ______ ____
ROOT
ATOM      1  C   UNL     1       2.081   6.414  19.910  0.00  0.00    +0.000 C 
ATOM      2  O   UNL     1       1.671   5.940  20.978  0.00  0.00    +0.000 OA
ATOM      3  N   UNL     1       1.965   7.769  19.606  0.00  0.00    +0.000 N 
ATOM      4  C   UNL     1       1.339   8.658  20.590  0.00  0.00    +0.000 C 
ATOM      5  C   UNL     1       0.172   9.438  19.969  0.00  0.00    +0.000 C 
ATOM      6  C   UNL     1       0.557  10.141  18.644  0.00  0.00    +0.000 C 
ATOM      7  C   UNL     1       1.208   9.099  17.718  0.00  0.00    +0.000 C 
ATOM      8  C   UNL     1       2.424   8.474  18.405  0.00  0.00    +0.000 C 
ENDROOT
BRANCH   1  13
ATOM      9  C   UNL     1       4.785   4.545  18.018  0.00  0.00    +0.000 A 
ATOM     10  C   UNL     1       4.032   3.799  17.109  0.00  0.00    +0.000 A 
ATOM     11  C   UNL     1       2.648   3.836  17.152  0.00  0.00    +0.000 A 
ATOM     12  C   UNL     1       2.008   4.605  18.122  0.00  0.00    +0.000 A 
ATOM     13  C   UNL     1       2.741   5.437  18.974  0.00  0.00    +0.000 A 
ATOM     14  C   UNL     1       4.140   5.357  18.956  0.00  0.00    +0.000 A 
BRANCH   9  15
ATOM     15  O   UNL     1       6.158   4.551  18.053  0.00  0.00    +0.000 OA
BRANCH  15  16
ATOM     16  C   UNL     1       6.711   5.437  19.030  0.00  0.00    +0.000 C 
BRANCH  16  18
ATOM     17  C   UNL     1       7.563   7.385  17.735  0.00  0.00    +0.000 C 
ATOM     18  C   UNL     1       7.796   6.236  18.390  0.00  0.00    +0.000 C 
ENDBRANCH  16  18
ENDBRANCH  15  16
ENDBRANCH   9  15
ENDBRANCH   1  13
BRANCH   6  19
ATOM     19  C   UNL     1       1.465  11.369  18.904  0.00  0.00    +0.000 C 
BRANCH  19  20
ATOM     20  C   UNL     1       0.783  12.711  18.614  0.00  0.00    +0.000 C 
BRANCH  20  21
ATOM     21  C   UNL     1      -0.520  12.848  19.376  0.00  0.00    +0.000 C 
ATOM     22  O   UNL     1      -1.625  12.786  18.849  0.00  0.00    +0.000 OA
ATOM     23  N   UNL     1      -0.325  13.033  20.733  0.00  0.00    +0.000 N 
ATOM     24  H   UNL     1       0.614  12.994  21.108  0.00  0.00    +0.000 HD
BRANCH  23  25
ATOM     25  C   UNL     1      -1.416  13.148  21.649  0.00  0.00    +0.000 C 
ATOM     26  C   UNL     1      -1.859  11.963  22.460  0.00  0.00    +0.000 C 
ATOM     27  C   UNL     1      -1.180  13.120  23.133  0.00  0.00    +0.000 C 
ENDBRANCH  23  25
ENDBRANCH  20  21
ENDBRANCH  19  20
ENDBRANCH   6  19
TORSDOF 8
ENDMDL
MODEL 8
REMARK VINA RESULT:      -7.1      3.322      6.143
REMARK  Name = 
REMARK  8 active torsions:
REMARK  status: ('A' for Active; 'I' for Inactive)
REMARK    1  A    between atoms: C_2  and  C_3
REMARK    2  A    between atoms: C_3  and  O_4
REMARK    3  A    between atoms: O_4  and  C_5
REMARK    4  A    between atoms: C_9  and  C_10
REMARK    5  A    between atoms: C_15  and  C_16
REMARK    6  A    between atoms: C_16  and  C_17
REMARK    7  A    between atoms: C_17  and  C_18
REMARK    8  A    between atoms: N_20  and  C_21
REMARK                            x       y       z     vdW  Elec       q    Type
REMARK                         _______ _______ _______ _____ _____    ______ ____
ROOT
ATOM      1  C   UNL     1       2.189   6.182  20.058  0.00  0.00    +0.000 C 
ATOM      2  O   UNL     1       1.846   5.726  21.157  0.00  0.00    +0.000 OA
ATOM      3  N   UNL     1       2.010   7.523  19.723  0.00  0.00    +0.000 N 
ATOM      4  C   UNL     1       1.400   8.418  20.711  0.00  0.00    +0.000 C 
ATOM      5  C   UNL     1       0.179   9.140  20.125  0.00  0.00    +0.000 C 
ATOM      6  C   UNL     1       0.476   9.817  18.765  0.00  0.00    +0.000 C 
ATOM      7  C   UNL     1       1.119   8.771  17.837  0.00  0.00    +0.000 C 
ATOM      8  C   UNL     1       2.388   8.208  18.482  0.00  0.00    +0.000 C 
ENDROOT
BRANCH   1  13
ATOM      9  C   UNL     1       4.874   4.253  18.200  0.00  0.00    +0.000 A 
ATOM     10  C   UNL     1       4.120   3.557  17.254  0.00  0.00    +0.000 A 
ATOM     11  C   UNL     1       2.737   3.645  17.259  0.00  0.00    +0.000 A 
ATOM     12  C   UNL     1       2.099   4.417  18.228  0.00  0.00    +0.000 A 
ATOM     13  C   UNL     1       2.838   5.201  19.118  0.00  0.00    +0.000 A 
ATOM     14  C   UNL     1       4.233   5.068  19.138  0.00  0.00    +0.000 A 
BRANCH   9  15
ATOM     15  O   UNL     1       6.244   4.205  18.274  0.00  0.00    +0.000 OA
BRANCH  15  16
ATOM     16  C   UNL     1       6.885   5.458  18.014  0.00  0.00    +0.000 C 
BRANCH  16  18
ATOM     17  C   UNL     1       7.214   4.887  15.613  0.00  0.00    +0.000 C 
ATOM     18  C   UNL     1       6.791   5.748  16.554  0.00  0.00    +0.000 C 
ENDBRANCH  16  18
ENDBRANCH  15  16
ENDBRANCH   9  15
ENDBRANCH   1  13
BRANCH   6  19
ATOM     19  C   UNL     1       1.351  11.082  18.947  0.00  0.00    +0.000 C 
BRANCH  19  20
ATOM     20  C   UNL     1       0.591  12.394  18.724  0.00  0.00    +0.000 C 
BRANCH  20  21
ATOM     21  C   UNL     1      -0.900  12.156  18.589  0.00  0.00    +0.000 C 
ATOM     22  O   UNL     1      -1.710  12.395  19.478  0.00  0.00    +0.000 OA
ATOM     23  N   UNL     1      -1.248  11.658  17.346  0.00  0.00    +0.000 N 
ATOM     24  H   UNL     1      -0.536  11.562  16.634  0.00  0.00    +0.000 HD
BRANCH  23  25
ATOM     25  C   UNL     1      -2.606  11.396  16.986  0.00  0.00    +0.000 C 
ATOM     26  C   UNL     1      -2.938  10.787  15.653  0.00  0.00    +0.000 C 
ATOM     27  C   UNL     1      -3.122   9.987  16.908  0.00  0.00    +0.000 C 
ENDBRANCH  23  25
ENDBRANCH  20  21
ENDBRANCH  19  20
ENDBRANCH   6  19
TORSDOF 8
ENDMDL
MODEL 9
REMARK VINA RESULT:      -7.1      3.448      6.350
REMARK  Name = 
REMARK  8 active torsions:
REMARK  status: ('A' for Active; 'I' for Inactive)
REMARK    1  A    between atoms: C_2  and  C_3
REMARK    2  A    between atoms: C_3  and  O_4
REMARK    3  A    between atoms: O_4  and  C_5
REMARK    4  A    between atoms: C_9  and  C_10
REMARK    5  A    between atoms: C_15  and  C_16
REMARK    6  A    between atoms: C_16  and  C_17
REMARK    7  A    between atoms: C_17  and  C_18
REMARK    8  A    between atoms: N_20  and  C_21
REMARK                            x       y       z     vdW  Elec       q    Type
REMARK                         _______ _______ _______ _____ _____    ______ ____
ROOT
ATOM      1  C   UNL     1       2.315   6.536  19.745  0.00  0.00    +0.000 C 
ATOM      2  O   UNL     1       2.088   5.983  20.830  0.00  0.00    +0.000 OA
ATOM      3  N   UNL     1       2.001   7.874  19.513  0.00  0.00    +0.000 N 
ATOM      4  C   UNL     1       1.387   8.648  20.596  0.00  0.00    +0.000 C 
ATOM      5  C   UNL     1       0.071   9.293  20.138  0.00  0.00    +0.000 C 
ATOM      6  C   UNL     1       0.217  10.077  18.812  0.00  0.00    +0.000 C 
ATOM      7  C   UNL     1       0.881   9.153  17.776  0.00  0.00    +0.000 C 
ATOM      8  C   UNL     1       2.234   8.666  18.301  0.00  0.00    +0.000 C 
ENDROOT
BRANCH   1  13
ATOM      9  C   UNL     1       4.775   5.390  17.095  0.00  0.00    +0.000 A 
ATOM     10  C   UNL     1       4.154   4.237  16.611  0.00  0.00    +0.000 A 
ATOM     11  C   UNL     1       2.979   3.781  17.187  0.00  0.00    +0.000 A 
ATOM     12  C   UNL     1       2.430   4.467  18.269  0.00  0.00    +0.000 A 
ATOM     13  C   UNL     1       2.980   5.677  18.702  0.00  0.00    +0.000 A 
ATOM     14  C   UNL     1       4.193   6.105  18.146  0.00  0.00    +0.000 A 
BRANCH   9  15
ATOM     15  O   UNL     1       5.947   5.898  16.592  0.00  0.00    +0.000 OA
BRANCH  15  16
ATOM     16  C   UNL     1       7.085   5.058  16.808  0.00  0.00    +0.000 C 
BRANCH  16  18
ATOM     17  C   UNL     1       7.965   5.862  18.994  0.00  0.00    +0.000 C 
ATOM     18  C   UNL     1       7.312   4.932  18.277  0.00  0.00    +0.000 C 
ENDBRANCH  16  18
ENDBRANCH  15  16
ENDBRANCH   9  15
ENDBRANCH   1  13
BRANCH   6  19
ATOM     19  C   UNL     1       0.992  11.402  19.024  0.00  0.00    +0.000 C 
BRANCH  19  20
ATOM     20  C   UNL     1       0.187  12.653  18.653  0.00  0.00    +0.000 C 
BRANCH  20  21
ATOM     21  C   UNL     1      -1.267  12.319  18.386  0.00  0.00    +0.000 C 
ATOM     22  O   UNL     1      -2.163  12.482  19.206  0.00  0.00    +0.000 OA
ATOM     23  N   UNL     1      -1.474  11.828  17.110  0.00  0.00    +0.000 N 
ATOM     24  H   UNL     1      -0.698  11.796  16.460  0.00  0.00    +0.000 HD
BRANCH  23  25
ATOM     25  C   UNL     1      -2.775  11.484  16.629  0.00  0.00    +0.000 C 
ATOM     26  C   UNL     1      -2.936  10.671  15.376  0.00  0.00    +0.000 C 
ATOM     27  C   UNL     1      -3.274  10.068  16.708  0.00  0.00    +0.000 C 
ENDBRANCH  23  25
ENDBRANCH  20  21
ENDBRANCH  19  20
ENDBRANCH   6  19
TORSDOF 8
ENDMDL
