MODEL 1
REMARK VINA RESULT:      -8.3      0.000      0.000
REMARK  Name = 
REMARK  12 active torsions:
REMARK  status: ('A' for Active; 'I' for Inactive)
REMARK    1  A    between atoms: C_1  and  C_2
REMARK    2  A    between atoms: C_2  and  C_3
REMARK    3  A    between atoms: C_3  and  C_4
REMARK    4  A    between atoms: C_4  and  C_5
REMARK    5  A    between atoms: C_5  and  C_6
REMARK    6  A    between atoms: C_6  and  C_7
REMARK    7  A    between atoms: C_7  and  C_8
REMARK    8  A    between atoms: C_8  and  C_9
REMARK    9  A    between atoms: C_9  and  O_10
REMARK   10  A    between atoms: C_9  and  C_11
REMARK   11  A    between atoms: C_11  and  N_12
REMARK   12  A    between atoms: N_15  and  C_16
REMARK                            x       y       z     vdW  Elec       q    Type
REMARK                         _______ _______ _______ _____ _____    ______ ____
ROOT
ATOM      1  N   UNL     1       5.359   5.301  15.653  0.00  0.00    +0.000 NA
ATOM      2  C   UNL     1       4.815   4.286  16.583  0.00  0.00    +0.000 C 
ATOM      3  C   UNL     1       4.809   4.678  18.082  0.00  0.00    +0.000 C 
ATOM      4  N   UNL     1       4.219   6.010  18.384  0.00  0.00    +0.000 NA
ATOM      5  C   UNL     1       4.923   6.975  17.504  0.00  0.00    +0.000 C 
ATOM      6  C   UNL     1       4.835   6.635  15.995  0.00  0.00    +0.000 C 
ENDROOT
BRANCH   4   7
ATOM      7  C   UNL     1       2.728   6.058  18.196  0.00  0.00    +0.000 C 
ATOM      8  C   UNL     1       2.118   7.406  18.625  0.00  0.00    +0.000 A 
ATOM      9  C   UNL     1       1.946   8.375  17.599  0.00  0.00    +0.000 A 
ATOM     10  C   UNL     1       1.543   9.683  17.858  0.00  0.00    +0.000 A 
ATOM     11  C   UNL     1       1.259  10.058  19.157  0.00  0.00    +0.000 A 
ATOM     12  C   UNL     1       1.362   9.115  20.178  0.00  0.00    +0.000 A 
ATOM     13  C   UNL     1       1.788   7.784  19.940  0.00  0.00    +0.000 A 
ATOM     14  C   UNL     1       1.735   6.876  21.151  0.00  0.00    +0.000 C 
ATOM     15  C   UNL     1       2.432   5.518  21.146  0.00  0.00    +0.000 C 
ATOM     16  C   UNL     1       1.873   4.567  20.124  0.00  0.00    +0.000 A 
ATOM     17  C   UNL     1       1.251   3.378  20.544  0.00  0.00    +0.000 A 
ATOM     18  C   UNL     1       0.732   2.471  19.621  0.00  0.00    +0.000 A 
ATOM     19  C   UNL     1       0.816   2.743  18.263  0.00  0.00    +0.000 A 
ATOM     20  C   UNL     1       1.428   3.919  17.833  0.00  0.00    +0.000 A 
ATOM     21  C   UNL     1       1.980   4.840  18.750  0.00  0.00    +0.000 A 
ENDBRANCH   4   7
BRANCH   1  22
ATOM     22  C   UNL     1       6.828   5.340  15.604  0.00  0.00    +0.000 C 
BRANCH  22  23
ATOM     23  C   UNL     1       7.446   4.857  14.283  0.00  0.00    +0.000 C 
BRANCH  23  24
ATOM     24  O   UNL     1       8.450   5.792  13.873  0.00  0.00    +0.000 OA
ATOM     25  H   UNL     1       9.119   5.835  14.579  0.00  0.00    +0.000 HD
ENDBRANCH  23  24
BRANCH  23  26
ATOM     26  C   UNL     1       6.387   4.721  13.190  0.00  0.00    +0.000 C 
BRANCH  26  27
ATOM     27  C   UNL     1       5.710   3.364  13.249  0.00  0.00    +0.000 C 
BRANCH  27  28
ATOM     28  C   UNL     1       6.134   2.515  12.061  0.00  0.00    +0.000 C 
BRANCH  28  29
ATOM     29  C   UNL     1       5.287   2.874  10.861  0.00  0.00    +0.000 C 
BRANCH  29  30
ATOM     30  C   UNL     1       3.919   3.370  11.293  0.00  0.00    +0.000 C 
BRANCH  30  31
ATOM     31  C   UNL     1       2.937   3.205  10.142  0.00  0.00    +0.000 C 
BRANCH  31  33
ATOM     32  C   UNL     1       1.948   5.162   8.961  0.00  0.00    +0.000 C 
ATOM     33  C   UNL     1       3.164   4.263   9.074  0.00  0.00    +0.000 C 
ENDBRANCH  31  33
ENDBRANCH  30  31
ENDBRANCH  29  30
ENDBRANCH  28  29
ENDBRANCH  27  28
ENDBRANCH  26  27
ENDBRANCH  23  26
ENDBRANCH  22  23
ENDBRANCH   1  22
TORSDOF 11
ENDMDL
MODEL 2
REMARK VINA RESULT:      -6.8      3.121      5.862
REMARK  Name = 
REMARK  12 active torsions:
REMARK  status: ('A' for Active; 'I' for Inactive)
REMARK    1  A    between atoms: C_1  and  C_2
REMARK    2  A    between atoms: C_2  and  C_3
REMARK    3  A    between atoms: C_3  and  C_4
REMARK    4  A    between atoms: C_4  and  C_5
REMARK    5  A    between atoms: C_5  and  C_6
REMARK    6  A    between atoms: C_6  and  C_7
REMARK    7  A    between atoms: C_7  and  C_8
REMARK    8  A    between atoms: C_8  and  C_9
REMARK    9  A    between atoms: C_9  and  O_10
REMARK   10  A    between atoms: C_9  and  C_11
REMARK   11  A    between atoms: C_11  and  N_12
REMARK   12  A    between atoms: N_15  and  C_16
REMARK                            x       y       z     vdW  Elec       q    Type
REMARK                         _______ _______ _______ _____ _____    ______ ____
ROOT
ATOM      1  N   UNL     1       5.112   4.353  16.697  0.00  0.00    +0.000 NA
ATOM      2  C   UNL     1       4.590   4.068  18.052  0.00  0.00    +0.000 C 
ATOM      3  C   UNL     1       4.560   5.270  19.031  0.00  0.00    +0.000 C 
ATOM      4  N   UNL     1       3.929   6.505  18.494  0.00  0.00    +0.000 NA
ATOM      5  C   UNL     1       4.613   6.784  17.207  0.00  0.00    +0.000 C 
ATOM      6  C   UNL     1       4.547   5.616  16.190  0.00  0.00    +0.000 C 
ENDROOT
BRANCH   4   7
ATOM      7  C   UNL     1       2.439   6.391  18.329  0.00  0.00    +0.000 C 
ATOM      8  C   UNL     1       1.695   7.677  18.739  0.00  0.00    +0.000 A 
ATOM      9  C   UNL     1       1.407   8.598  17.696  0.00  0.00    +0.000 A 
ATOM     10  C   UNL     1       0.872   9.862  17.934  0.00  0.00    +0.000 A 
ATOM     11  C   UNL     1       0.568  10.234  19.230  0.00  0.00    +0.000 A 
ATOM     12  C   UNL     1       0.784   9.330  20.268  0.00  0.00    +0.000 A 
ATOM     13  C   UNL     1       1.346   8.046  20.051  0.00  0.00    +0.000 A 
ATOM     14  C   UNL     1       1.406   7.166  21.282  0.00  0.00    +0.000 C 
ATOM     15  C   UNL     1       2.242   5.889  21.293  0.00  0.00    +0.000 C 
ATOM     16  C   UNL     1       1.774   4.861  20.301  0.00  0.00    +0.000 A 
ATOM     17  C   UNL     1       1.287   3.623  20.756  0.00  0.00    +0.000 A 
ATOM     18  C   UNL     1       0.854   2.646  19.860  0.00  0.00    +0.000 A 
ATOM     19  C   UNL     1       0.890   2.895  18.495  0.00  0.00    +0.000 A 
ATOM     20  C   UNL     1       1.368   4.119  18.031  0.00  0.00    +0.000 A 
ATOM     21  C   UNL     1       1.832   5.114  18.920  0.00  0.00    +0.000 A 
ENDBRANCH   4   7
BRANCH   1  22
ATOM     22  C   UNL     1       6.579   4.397  16.619  0.00  0.00    +0.000 C 
BRANCH  22  23
ATOM     23  C   UNL     1       7.167   5.757  16.210  0.00  0.00    +0.000 C 
BRANCH  23  24
ATOM     24  O   UNL     1       8.067   5.561  15.113  0.00  0.00    +0.000 OA
ATOM     25  H   UNL     1       8.004   4.628  14.843  0.00  0.00    +0.000 HD
ENDBRANCH  23  24
BRANCH  23  26
ATOM     26  C   UNL     1       7.905   6.417  17.374  0.00  0.00    +0.000 C 
BRANCH  26  27
ATOM     27  C   UNL     1       7.683   7.918  17.382  0.00  0.00    +0.000 C 
BRANCH  27  28
ATOM     28  C   UNL     1       8.500   8.562  18.490  0.00  0.00    +0.000 C 
BRANCH  28  29
ATOM     29  C   UNL     1       8.582  10.053  18.250  0.00  0.00    +0.000 C 
BRANCH  29  30
ATOM     30  C   UNL     1       9.862  10.624  18.832  0.00  0.00    +0.000 C 
BRANCH  30  31
ATOM     31  C   UNL     1      10.493  11.575  17.824  0.00  0.00    +0.000 C 
BRANCH  31  33
ATOM     32  C   UNL     1      11.982  11.785  19.810  0.00  0.00    +0.000 C 
ATOM     33  C   UNL     1      11.817  12.118  18.340  0.00  0.00    +0.000 C 
ENDBRANCH  31  33
ENDBRANCH  30  31
ENDBRANCH  29  30
ENDBRANCH  28  29
ENDBRANCH  27  28
ENDBRANCH  26  27
ENDBRANCH  23  26
ENDBRANCH  22  23
ENDBRANCH   1  22
TORSDOF 11
ENDMDL
MODEL 3
REMARK VINA RESULT:      -6.8      4.981      8.914
REMARK  Name = 
REMARK  12 active torsions:
REMARK  status: ('A' for Active; 'I' for Inactive)
REMARK    1  A    between atoms: C_1  and  C_2
REMARK    2  A    between atoms: C_2  and  C_3
REMARK    3  A    between atoms: C_3  and  C_4
REMARK    4  A    between atoms: C_4  and  C_5
REMARK    5  A    between atoms: C_5  and  C_6
REMARK    6  A    between atoms: C_6  and  C_7
REMARK    7  A    between atoms: C_7  and  C_8
REMARK    8  A    between atoms: C_8  and  C_9
REMARK    9  A    between atoms: C_9  and  O_10
REMARK   10  A    between atoms: C_9  and  C_11
REMARK   11  A    between atoms: C_11  and  N_12
REMARK   12  A    between atoms: N_15  and  C_16
REMARK                            x       y       z     vdW  Elec       q    Type
REMARK                         _______ _______ _______ _____ _____    ______ ____
ROOT
ATOM      1  N   UNL     1       0.389   9.957  19.586  0.00  0.00    +0.000 NA
ATOM      2  C   UNL     1      -0.711  10.079  20.568  0.00  0.00    +0.000 C 
ATOM      3  C   UNL     1      -0.390  10.902  21.842  0.00  0.00    +0.000 C 
ATOM      4  N   UNL     1       0.218  12.236  21.594  0.00  0.00    +0.000 NA
ATOM      5  C   UNL     1       1.388  11.992  20.715  0.00  0.00    +0.000 C 
ATOM      6  C   UNL     1       1.044  11.261  19.393  0.00  0.00    +0.000 C 
ENDROOT
BRANCH   4   7
ATOM      7  C   UNL     1      -0.741  13.227  20.995  0.00  0.00    +0.000 C 
ATOM      8  C   UNL     1      -0.100  14.610  20.763  0.00  0.00    +0.000 A 
ATOM      9  C   UNL     1       0.436  14.847  19.468  0.00  0.00    +0.000 A 
ATOM     10  C   UNL     1       1.170  15.988  19.155  0.00  0.00    +0.000 A 
ATOM     11  C   UNL     1       1.361  16.956  20.122  0.00  0.00    +0.000 A 
ATOM     12  C   UNL     1       0.798  16.780  21.384  0.00  0.00    +0.000 A 
ATOM     13  C   UNL     1       0.063  15.618  21.731  0.00  0.00    +0.000 A 
ATOM     14  C   UNL     1      -0.562  15.653  23.110  0.00  0.00    +0.000 C 
ATOM     15  C   UNL     1      -1.121  14.385  23.750  0.00  0.00    +0.000 C 
ATOM     16  C   UNL     1      -2.277  13.795  22.992  0.00  0.00    +0.000 A 
ATOM     17  C   UNL     1      -3.546  13.729  23.594  0.00  0.00    +0.000 A 
ATOM     18  C   UNL     1      -4.636  13.180  22.920  0.00  0.00    +0.000 A 
ATOM     19  C   UNL     1      -4.478  12.696  21.628  0.00  0.00    +0.000 A 
ATOM     20  C   UNL     1      -3.226  12.758  21.019  0.00  0.00    +0.000 A 
ATOM     21  C   UNL     1      -2.104  13.290  21.692  0.00  0.00    +0.000 A 
ENDBRANCH   4   7
BRANCH   1  22
ATOM     22  C   UNL     1       1.394   8.942  19.936  0.00  0.00    +0.000 C 
BRANCH  22  23
ATOM     23  C   UNL     1       2.181   8.370  18.747  0.00  0.00    +0.000 C 
BRANCH  23  24
ATOM     24  O   UNL     1       1.374   8.467  17.569  0.00  0.00    +0.000 OA
ATOM     25  H   UNL     1       0.957   9.346  17.568  0.00  0.00    +0.000 HD
ENDBRANCH  23  24
BRANCH  23  26
ATOM     26  C   UNL     1       2.574   6.914  18.989  0.00  0.00    +0.000 C 
BRANCH  26  27
ATOM     27  C   UNL     1       3.558   6.431  17.939  0.00  0.00    +0.000 C 
BRANCH  27  28
ATOM     28  C   UNL     1       3.295   4.971  17.607  0.00  0.00    +0.000 C 
BRANCH  28  29
ATOM     29  C   UNL     1       1.871   4.621  17.977  0.00  0.00    +0.000 C 
BRANCH  29  30
ATOM     30  C   UNL     1       1.705   3.120  18.125  0.00  0.00    +0.000 C 
BRANCH  30  31
ATOM     31  C   UNL     1       0.887   2.825  19.375  0.00  0.00    +0.000 C 
BRANCH  31  33
ATOM     32  C   UNL     1       1.927   3.333  21.581  0.00  0.00    +0.000 C 
ATOM     33  C   UNL     1       1.105   3.893  20.435  0.00  0.00    +0.000 C 
ENDBRANCH  31  33
ENDBRANCH  30  31
ENDBRANCH  29  30
ENDBRANCH  28  29
ENDBRANCH  27  28
ENDBRANCH  26  27
ENDBRANCH  23  26
ENDBRANCH  22  23
ENDBRANCH   1  22
TORSDOF 11
ENDMDL
MODEL 4
REMARK VINA RESULT:      -6.7      5.333      9.309
REMARK  Name = 
REMARK  12 active torsions:
REMARK  status: ('A' for Active; 'I' for Inactive)
REMARK    1  A    between atoms: C_1  and  C_2
REMARK    2  A    between atoms: C_2  and  C_3
REMARK    3  A    between atoms: C_3  and  C_4
REMARK    4  A    between atoms: C_4  and  C_5
REMARK    5  A    between atoms: C_5  and  C_6
REMARK    6  A    between atoms: C_6  and  C_7
REMARK    7  A    between atoms: C_7  and  C_8
REMARK    8  A    between atoms: C_8  and  C_9
REMARK    9  A    between atoms: C_9  and  O_10
REMARK   10  A    between atoms: C_9  and  C_11
REMARK   11  A    between atoms: C_11  and  N_12
REMARK   12  A    between atoms: N_15  and  C_16
REMARK                            x       y       z     vdW  Elec       q    Type
REMARK                         _______ _______ _______ _____ _____    ______ ____
ROOT
ATOM      1  N   UNL     1       0.315  10.236  19.682  0.00  0.00    +0.000 NA
ATOM      2  C   UNL     1      -0.644  10.326  20.806  0.00  0.00    +0.000 C 
ATOM      3  C   UNL     1      -0.230  11.257  21.974  0.00  0.00    +0.000 C 
ATOM      4  N   UNL     1       0.206  12.620  21.569  0.00  0.00    +0.000 NA
ATOM      5  C   UNL     1       1.261  12.422  20.545  0.00  0.00    +0.000 C 
ATOM      6  C   UNL     1       0.808  11.577  19.327  0.00  0.00    +0.000 C 
ENDROOT
BRANCH   4   7
ATOM      7  C   UNL     1      -0.918  13.481  21.064  0.00  0.00    +0.000 C 
ATOM      8  C   UNL     1      -0.450  14.890  20.651  0.00  0.00    +0.000 A 
ATOM      9  C   UNL     1      -0.134  15.072  19.278  0.00  0.00    +0.000 A 
ATOM     10  C   UNL     1       0.438  16.243  18.785  0.00  0.00    +0.000 A 
ATOM     11  C   UNL     1       0.678  17.293  19.650  0.00  0.00    +0.000 A 
ATOM     12  C   UNL     1       0.325  17.167  20.991  0.00  0.00    +0.000 A 
ATOM     13  C   UNL     1      -0.240  15.978  21.519  0.00  0.00    +0.000 A 
ATOM     14  C   UNL     1      -0.656  16.065  22.972  0.00  0.00    +0.000 C 
ATOM     15  C   UNL     1      -0.996  14.808  23.768  0.00  0.00    +0.000 C 
ATOM     16  C   UNL     1      -2.191  14.069  23.233  0.00  0.00    +0.000 A 
ATOM     17  C   UNL     1      -3.346  13.945  24.025  0.00  0.00    +0.000 A 
ATOM     18  C   UNL     1      -4.467  13.258  23.561  0.00  0.00    +0.000 A 
ATOM     19  C   UNL     1      -4.457  12.693  22.293  0.00  0.00    +0.000 A 
ATOM     20  C   UNL     1      -3.319  12.812  21.497  0.00  0.00    +0.000 A 
ATOM     21  C   UNL     1      -2.164  13.483  21.956  0.00  0.00    +0.000 A 
ENDBRANCH   4   7
BRANCH   1  22
ATOM     22  C   UNL     1       1.452   9.339  19.937  0.00  0.00    +0.000 C 
BRANCH  22  23
ATOM     23  C   UNL     1       1.200   8.259  21.001  0.00  0.00    +0.000 C 
BRANCH  23  24
ATOM     24  O   UNL     1       1.872   8.634  22.208  0.00  0.00    +0.000 OA
ATOM     25  H   UNL     1       1.229   8.569  22.936  0.00  0.00    +0.000 HD
ENDBRANCH  23  24
BRANCH  23  26
ATOM     26  C   UNL     1       1.698   6.892  20.533  0.00  0.00    +0.000 C 
BRANCH  26  27
ATOM     27  C   UNL     1       2.436   7.001  19.212  0.00  0.00    +0.000 C 
BRANCH  27  28
ATOM     28  C   UNL     1       3.304   5.772  18.994  0.00  0.00    +0.000 C 
BRANCH  28  29
ATOM     29  C   UNL     1       2.919   5.110  17.690  0.00  0.00    +0.000 C 
BRANCH  29  30
ATOM     30  C   UNL     1       1.635   4.317  17.845  0.00  0.00    +0.000 C 
BRANCH  30  31
ATOM     31  C   UNL     1       1.856   3.189  18.842  0.00  0.00    +0.000 C 
BRANCH  31  33
ATOM     32  C   UNL     1       1.634   3.179  21.324  0.00  0.00    +0.000 C 
ATOM     33  C   UNL     1       0.886   3.293  20.009  0.00  0.00    +0.000 C 
ENDBRANCH  31  33
ENDBRANCH  30  31
ENDBRANCH  29  30
ENDBRANCH  28  29
ENDBRANCH  27  28
ENDBRANCH  26  27
ENDBRANCH  23  26
ENDBRANCH  22  23
ENDBRANCH   1  22
TORSDOF 11
ENDMDL
MODEL 5
REMARK VINA RESULT:      -6.6      6.234     10.963
REMARK  Name = 
REMARK  12 active torsions:
REMARK  status: ('A' for Active; 'I' for Inactive)
REMARK    1  A    between atoms: C_1  and  C_2
REMARK    2  A    between atoms: C_2  and  C_3
REMARK    3  A    between atoms: C_3  and  C_4
REMARK    4  A    between atoms: C_4  and  C_5
REMARK    5  A    between atoms: C_5  and  C_6
REMARK    6  A    between atoms: C_6  and  C_7
REMARK    7  A    between atoms: C_7  and  C_8
REMARK    8  A    between atoms: C_8  and  C_9
REMARK    9  A    between atoms: C_9  and  O_10
REMARK   10  A    between atoms: C_9  and  C_11
REMARK   11  A    between atoms: C_11  and  N_12
REMARK   12  A    between atoms: N_15  and  C_16
REMARK                            x       y       z     vdW  Elec       q    Type
REMARK                         _______ _______ _______ _____ _____    ______ ____
ROOT
ATOM      1  N   UNL     1       0.805  12.549  21.130  0.00  0.00    +0.000 NA
ATOM      2  C   UNL     1       2.153  12.982  20.698  0.00  0.00    +0.000 C 
ATOM      3  C   UNL     1       2.276  13.432  19.220  0.00  0.00    +0.000 C 
ATOM      4  N   UNL     1       1.258  14.421  18.775  0.00  0.00    +0.000 NA
ATOM      5  C   UNL     1      -0.059  13.835  19.126  0.00  0.00    +0.000 C 
ATOM      6  C   UNL     1      -0.215  13.485  20.628  0.00  0.00    +0.000 C 
ENDROOT
BRANCH   4   7
ATOM      7  C   UNL     1       1.449  15.785  19.378  0.00  0.00    +0.000 C 
ATOM      8  C   UNL     1       0.614  16.870  18.671  0.00  0.00    +0.000 A 
ATOM      9  C   UNL     1      -0.656  17.160  19.239  0.00  0.00    +0.000 A 
ATOM     10  C   UNL     1      -1.578  18.008  18.631  0.00  0.00    +0.000 A 
ATOM     11  C   UNL     1      -1.242  18.631  17.444  0.00  0.00    +0.000 A 
ATOM     12  C   UNL     1       0.017  18.413  16.891  0.00  0.00    +0.000 A 
ATOM     13  C   UNL     1       0.965  17.539  17.483  0.00  0.00    +0.000 A 
ATOM     14  C   UNL     1       2.315  17.512  16.798  0.00  0.00    +0.000 C 
ATOM     15  C   UNL     1       3.334  16.421  17.115  0.00  0.00    +0.000 C 
ATOM     16  C   UNL     1       3.803  16.441  18.543  0.00  0.00    +0.000 A 
ATOM     17  C   UNL     1       5.154  16.706  18.830  0.00  0.00    +0.000 A 
ATOM     18  C   UNL     1       5.622  16.723  20.143  0.00  0.00    +0.000 A 
ATOM     19  C   UNL     1       4.745  16.486  21.193  0.00  0.00    +0.000 A 
ATOM     20  C   UNL     1       3.403  16.225  20.922  0.00  0.00    +0.000 A 
ATOM     21  C   UNL     1       2.913  16.181  19.599  0.00  0.00    +0.000 A 
ENDBRANCH   4   7
BRANCH   1  22
ATOM     22  C   UNL     1       0.461  11.177  20.729  0.00  0.00    +0.000 C 
BRANCH  22  23
ATOM     23  C   UNL     1      -0.350  10.382  21.764  0.00  0.00    +0.000 C 
BRANCH  23  24
ATOM     24  O   UNL     1       0.217  10.597  23.061  0.00  0.00    +0.000 OA
ATOM     25  H   UNL     1       0.603  11.490  23.070  0.00  0.00    +0.000 HD
ENDBRANCH  23  24
BRANCH  23  26
ATOM     26  C   UNL     1      -0.354   8.889  21.440  0.00  0.00    +0.000 C 
BRANCH  26  27
ATOM     27  C   UNL     1       0.688   8.554  20.389  0.00  0.00    +0.000 C 
BRANCH  27  28
ATOM     28  C   UNL     1       1.505   7.348  20.827  0.00  0.00    +0.000 C 
BRANCH  28  29
ATOM     29  C   UNL     1       2.401   6.911  19.690  0.00  0.00    +0.000 C 
BRANCH  29  30
ATOM     30  C   UNL     1       2.294   5.415  19.462  0.00  0.00    +0.000 C 
BRANCH  30  31
ATOM     31  C   UNL     1       2.123   4.712  20.802  0.00  0.00    +0.000 C 
BRANCH  31  33
ATOM     32  C   UNL     1       1.081   3.008  19.313  0.00  0.00    +0.000 C 
ATOM     33  C   UNL     1       1.086   3.604  20.708  0.00  0.00    +0.000 C 
ENDBRANCH  31  33
ENDBRANCH  30  31
ENDBRANCH  29  30
ENDBRANCH  28  29
ENDBRANCH  27  28
ENDBRANCH  26  27
ENDBRANCH  23  26
ENDBRANCH  22  23
ENDBRANCH   1  22
TORSDOF 11
ENDMDL
MODEL 6
REMARK VINA RESULT:      -6.6      8.357     11.388
REMARK  Name = 
REMARK  12 active torsions:
REMARK  status: ('A' for Active; 'I' for Inactive)
REMARK    1  A    between atoms: C_1  and  C_2
REMARK    2  A    between atoms: C_2  and  C_3
REMARK    3  A    between atoms: C_3  and  C_4
REMARK    4  A    between atoms: C_4  and  C_5
REMARK    5  A    between atoms: C_5  and  C_6
REMARK    6  A    between atoms: C_6  and  C_7
REMARK    7  A    between atoms: C_7  and  C_8
REMARK    8  A    between atoms: C_8  and  C_9
REMARK    9  A    between atoms: C_9  and  O_10
REMARK   10  A    between atoms: C_9  and  C_11
REMARK   11  A    between atoms: C_11  and  N_12
REMARK   12  A    between atoms: N_15  and  C_16
REMARK                            x       y       z     vdW  Elec       q    Type
REMARK                         _______ _______ _______ _____ _____    ______ ____
ROOT
ATOM      1  N   UNL     1       1.888  13.748  20.023  0.00  0.00    +0.000 NA
ATOM      2  C   UNL     1       0.863  14.008  21.059  0.00  0.00    +0.000 C 
ATOM      3  C   UNL     1      -0.523  14.466  20.536  0.00  0.00    +0.000 C 
ATOM      4  N   UNL     1      -1.098  13.625  19.453  0.00  0.00    +0.000 NA
ATOM      5  C   UNL     1      -0.050  13.538  18.406  0.00  0.00    +0.000 C 
ATOM      6  C   UNL     1       1.304  12.979  18.912  0.00  0.00    +0.000 C 
ENDROOT
BRANCH   4   7
ATOM      7  C   UNL     1      -1.541  12.267  19.924  0.00  0.00    +0.000 C 
ATOM      8  C   UNL     1      -2.215  11.442  18.810  0.00  0.00    +0.000 A 
ATOM      9  C   UNL     1      -1.376  10.553  18.087  0.00  0.00    +0.000 A 
ATOM     10  C   UNL     1      -1.810   9.853  16.964  0.00  0.00    +0.000 A 
ATOM     11  C   UNL     1      -3.120   9.990  16.547  0.00  0.00    +0.000 A 
ATOM     12  C   UNL     1      -3.984  10.809  17.270  0.00  0.00    +0.000 A 
ATOM     13  C   UNL     1      -3.559  11.546  18.404  0.00  0.00    +0.000 A 
ATOM     14  C   UNL     1      -4.662  12.296  19.122  0.00  0.00    +0.000 C 
ATOM     15  C   UNL     1      -4.337  13.363  20.163  0.00  0.00    +0.000 C 
ATOM     16  C   UNL     1      -3.611  12.822  21.364  0.00  0.00    +0.000 A 
ATOM     17  C   UNL     1      -4.220  12.876  22.630  0.00  0.00    +0.000 A 
ATOM     18  C   UNL     1      -3.569  12.391  23.764  0.00  0.00    +0.000 A 
ATOM     19  C   UNL     1      -2.303  11.833  23.649  0.00  0.00    +0.000 A 
ATOM     20  C   UNL     1      -1.690  11.771  22.399  0.00  0.00    +0.000 A 
ATOM     21  C   UNL     1      -2.321  12.277  21.242  0.00  0.00    +0.000 A 
ENDBRANCH   4   7
BRANCH   1  22
ATOM     22  C   UNL     1       2.534  14.963  19.503  0.00  0.00    +0.000 C 
BRANCH  22  23
ATOM     23  C   UNL     1       3.581  14.721  18.405  0.00  0.00    +0.000 C 
BRANCH  23  24
ATOM     24  O   UNL     1       4.887  14.789  18.989  0.00  0.00    +0.000 OA
ATOM     25  H   UNL     1       5.376  15.497  18.535  0.00  0.00    +0.000 HD
ENDBRANCH  23  24
BRANCH  23  26
ATOM     26  C   UNL     1       3.460  15.753  17.284  0.00  0.00    +0.000 C 
BRANCH  26  27
ATOM     27  C   UNL     1       2.662  16.962  17.737  0.00  0.00    +0.000 C 
BRANCH  27  28
ATOM     28  C   UNL     1       2.000  17.630  16.543  0.00  0.00    +0.000 C 
BRANCH  28  29
ATOM     29  C   UNL     1       0.875  18.518  17.026  0.00  0.00    +0.000 C 
BRANCH  29  30
ATOM     30  C   UNL     1      -0.353  17.696  17.371  0.00  0.00    +0.000 C 
BRANCH  30  31
ATOM     31  C   UNL     1      -1.502  18.631  17.724  0.00  0.00    +0.000 C 
BRANCH  31  33
ATOM     32  C   UNL     1      -1.313  18.058  20.141  0.00  0.00    +0.000 C 
ATOM     33  C   UNL     1      -2.251  18.136  18.951  0.00  0.00    +0.000 C 
ENDBRANCH  31  33
ENDBRANCH  30  31
ENDBRANCH  29  30
ENDBRANCH  28  29
ENDBRANCH  27  28
ENDBRANCH  26  27
ENDBRANCH  23  26
ENDBRANCH  22  23
ENDBRANCH   1  22
TORSDOF 11
ENDMDL
MODEL 7
REMARK VINA RESULT:      -6.6      4.471      8.054
REMARK  Name = 
REMARK  12 active torsions:
REMARK  status: ('A' for Active; 'I' for Inactive)
REMARK    1  A    between atoms: C_1  and  C_2
REMARK    2  A    between atoms: C_2  and  C_3
REMARK    3  A    between atoms: C_3  and  C_4
REMARK    4  A    between atoms: C_4  and  C_5
REMARK    5  A    between atoms: C_5  and  C_6
REMARK    6  A    between atoms: C_6  and  C_7
REMARK    7  A    between atoms: C_7  and  C_8
REMARK    8  A    between atoms: C_8  and  C_9
REMARK    9  A    between atoms: C_9  and  O_10
REMARK   10  A    between atoms: C_9  and  C_11
REMARK   11  A    between atoms: C_11  and  N_12
REMARK   12  A    between atoms: N_15  and  C_16
REMARK                            x       y       z     vdW  Elec       q    Type
REMARK                         _______ _______ _______ _____ _____    ______ ____
ROOT
ATOM      1  N   UNL     1       1.718   9.564  17.714  0.00  0.00    +0.000 NA
ATOM      2  C   UNL     1       0.264   9.364  17.900  0.00  0.00    +0.000 C 
ATOM      3  C   UNL     1      -0.330   9.917  19.222  0.00  0.00    +0.000 C 
ATOM      4  N   UNL     1       0.034  11.324  19.537  0.00  0.00    +0.000 NA
ATOM      5  C   UNL     1       1.514  11.388  19.459  0.00  0.00    +0.000 C 
ATOM      6  C   UNL     1       2.096  10.935  18.096  0.00  0.00    +0.000 C 
ENDROOT
BRANCH   4   7
ATOM      7  C   UNL     1      -0.624  12.327  18.630  0.00  0.00    +0.000 C 
ATOM      8  C   UNL     1      -0.374  13.782  19.072  0.00  0.00    +0.000 A 
ATOM      9  C   UNL     1       0.725  14.447  18.464  0.00  0.00    +0.000 A 
ATOM     10  C   UNL     1       1.159  15.707  18.866  0.00  0.00    +0.000 A 
ATOM     11  C   UNL     1       0.479  16.367  19.871  0.00  0.00    +0.000 A 
ATOM     12  C   UNL     1      -0.638  15.768  20.448  0.00  0.00    +0.000 A 
ATOM     13  C   UNL     1      -1.086  14.477  20.068  0.00  0.00    +0.000 A 
ATOM     14  C   UNL     1      -2.376  14.036  20.727  0.00  0.00    +0.000 C 
ATOM     15  C   UNL     1      -2.832  12.581  20.663  0.00  0.00    +0.000 C 
ATOM     16  C   UNL     1      -3.117  12.106  19.266  0.00  0.00    +0.000 A 
ATOM     17  C   UNL     1      -4.422  11.720  18.912  0.00  0.00    +0.000 A 
ATOM     18  C   UNL     1      -4.716  11.267  17.627  0.00  0.00    +0.000 A 
ATOM     19  C   UNL     1      -3.713  11.202  16.670  0.00  0.00    +0.000 A 
ATOM     20  C   UNL     1      -2.415  11.584  17.007  0.00  0.00    +0.000 A 
ATOM     21  C   UNL     1      -2.091  12.025  18.308  0.00  0.00    +0.000 A 
ENDBRANCH   4   7
BRANCH   1  22
ATOM     22  C   UNL     1       2.552   8.596  18.442  0.00  0.00    +0.000 C 
BRANCH  22  23
ATOM     23  C   UNL     1       1.786   7.672  19.401  0.00  0.00    +0.000 C 
BRANCH  23  24
ATOM     24  O   UNL     1       2.077   8.060  20.748  0.00  0.00    +0.000 OA
ATOM     25  H   UNL     1       1.743   7.359  21.335  0.00  0.00    +0.000 HD
ENDBRANCH  23  24
BRANCH  23  26
ATOM     26  C   UNL     1       2.170   6.208  19.188  0.00  0.00    +0.000 C 
BRANCH  26  27
ATOM     27  C   UNL     1       3.207   6.069  18.089  0.00  0.00    +0.000 C 
BRANCH  27  28
ATOM     28  C   UNL     1       3.382   4.605  17.716  0.00  0.00    +0.000 C 
BRANCH  28  29
ATOM     29  C   UNL     1       2.022   3.961  17.563  0.00  0.00    +0.000 C 
BRANCH  29  30
ATOM     30  C   UNL     1       2.053   2.517  18.027  0.00  0.00    +0.000 C 
BRANCH  30  31
ATOM     31  C   UNL     1       2.621   2.453  19.438  0.00  0.00    +0.000 C 
BRANCH  31  33
ATOM     32  C   UNL     1       2.093   3.423  21.671  0.00  0.00    +0.000 C 
ATOM     33  C   UNL     1       1.532   2.676  20.476  0.00  0.00    +0.000 C 
ENDBRANCH  31  33
ENDBRANCH  30  31
ENDBRANCH  29  30
ENDBRANCH  28  29
ENDBRANCH  27  28
ENDBRANCH  26  27
ENDBRANCH  23  26
ENDBRANCH  22  23
ENDBRANCH   1  22
TORSDOF 11
ENDMDL
MODEL 8
REMARK VINA RESULT:      -6.6      4.882      8.873
REMARK  Name = 
REMARK  12 active torsions:
REMARK  status: ('A' for Active; 'I' for Inactive)
REMARK    1  A    between atoms: C_1  and  C_2
REMARK    2  A    between atoms: C_2  and  C_3
REMARK    3  A    between atoms: C_3  and  C_4
REMARK    4  A    between atoms: C_4  and  C_5
REMARK    5  A    between atoms: C_5  and  C_6
REMARK    6  A    between atoms: C_6  and  C_7
REMARK    7  A    between atoms: C_7  and  C_8
REMARK    8  A    between atoms: C_8  and  C_9
REMARK    9  A    between atoms: C_9  and  O_10
REMARK   10  A    between atoms: C_9  and  C_11
REMARK   11  A    between atoms: C_11  and  N_12
REMARK   12  A    between atoms: N_15  and  C_16
REMARK                            x       y       z     vdW  Elec       q    Type
REMARK                         _______ _______ _______ _____ _____    ______ ____
ROOT
ATOM      1  N   UNL     1       0.602  10.065  19.182  0.00  0.00    +0.000 NA
ATOM      2  C   UNL     1      -0.657  10.085  19.960  0.00  0.00    +0.000 C 
ATOM      3  C   UNL     1      -0.573  10.740  21.363  0.00  0.00    +0.000 C 
ATOM      4  N   UNL     1       0.064  12.084  21.394  0.00  0.00    +0.000 NA
ATOM      5  C   UNL     1       1.373  11.929  20.714  0.00  0.00    +0.000 C 
ATOM      6  C   UNL     1       1.274  11.372  19.271  0.00  0.00    +0.000 C 
ENDROOT
BRANCH   4   7
ATOM      7  C   UNL     1      -0.778  13.157  20.762  0.00  0.00    +0.000 C 
ATOM      8  C   UNL     1      -0.109  14.545  20.813  0.00  0.00    +0.000 A 
ATOM      9  C   UNL     1       0.645  14.924  19.669  0.00  0.00    +0.000 A 
ATOM     10  C   UNL     1       1.421  16.080  19.628  0.00  0.00    +0.000 A 
ATOM     11  C   UNL     1       1.437  16.922  20.723  0.00  0.00    +0.000 A 
ATOM     12  C   UNL     1       0.663  16.608  21.838  0.00  0.00    +0.000 A 
ATOM     13  C   UNL     1      -0.119  15.427  21.909  0.00  0.00    +0.000 A 
ATOM     14  C   UNL     1      -0.976  15.310  23.153  0.00  0.00    +0.000 C 
ATOM     15  C   UNL     1      -1.636  13.986  23.528  0.00  0.00    +0.000 C 
ATOM     16  C   UNL     1      -2.641  13.513  22.515  0.00  0.00    +0.000 A 
ATOM     17  C   UNL     1      -3.995  13.400  22.874  0.00  0.00    +0.000 A 
ATOM     18  C   UNL     1      -4.949  12.956  21.960  0.00  0.00    +0.000 A 
ATOM     19  C   UNL     1      -4.567  12.627  20.667  0.00  0.00    +0.000 A 
ATOM     20  C   UNL     1      -3.228  12.736  20.297  0.00  0.00    +0.000 A 
ATOM     21  C   UNL     1      -2.242  13.163  21.213  0.00  0.00    +0.000 A 
ENDBRANCH   4   7
BRANCH   1  22
ATOM     22  C   UNL     1       1.532   8.998  19.577  0.00  0.00    +0.000 C 
BRANCH  22  23
ATOM     23  C   UNL     1       2.336   8.378  18.424  0.00  0.00    +0.000 C 
BRANCH  23  24
ATOM     24  O   UNL     1       1.783   8.826  17.181  0.00  0.00    +0.000 OA
ATOM     25  H   UNL     1       1.469   9.738  17.310  0.00  0.00    +0.000 HD
ENDBRANCH  23  24
BRANCH  23  26
ATOM     26  C   UNL     1       2.307   6.851  18.483  0.00  0.00    +0.000 C 
BRANCH  26  27
ATOM     27  C   UNL     1       2.691   6.350  19.864  0.00  0.00    +0.000 C 
BRANCH  27  28
ATOM     28  C   UNL     1       1.592   5.461  20.423  0.00  0.00    +0.000 C 
BRANCH  28  29
ATOM     29  C   UNL     1       2.208   4.210  21.008  0.00  0.00    +0.000 C 
BRANCH  29  30
ATOM     30  C   UNL     1       1.282   3.020  20.835  0.00  0.00    +0.000 C 
BRANCH  30  31
ATOM     31  C   UNL     1       0.893   2.894  19.369  0.00  0.00    +0.000 C 
BRANCH  31  33
ATOM     32  C   UNL     1       2.456   3.190  17.452  0.00  0.00    +0.000 C 
ATOM     33  C   UNL     1       2.010   2.255  18.560  0.00  0.00    +0.000 C 
ENDBRANCH  31  33
ENDBRANCH  30  31
ENDBRANCH  29  30
ENDBRANCH  28  29
ENDBRANCH  27  28
ENDBRANCH  26  27
ENDBRANCH  23  26
ENDBRANCH  22  23
ENDBRANCH   1  22
TORSDOF 11
ENDMDL
MODEL 9
REMARK VINA RESULT:      -6.5      4.451      8.157
REMARK  Name = 
REMARK  12 active torsions:
REMARK  status: ('A' for Active; 'I' for Inactive)
REMARK    1  A    between atoms: C_1  and  C_2
REMARK    2  A    between atoms: C_2  and  C_3
REMARK    3  A    between atoms: C_3  and  C_4
REMARK    4  A    between atoms: C_4  and  C_5
REMARK    5  A    between atoms: C_5  and  C_6
REMARK    6  A    between atoms: C_6  and  C_7
REMARK    7  A    between atoms: C_7  and  C_8
REMARK    8  A    between atoms: C_8  and  C_9
REMARK    9  A    between atoms: C_9  and  O_10
REMARK   10  A    between atoms: C_9  and  C_11
REMARK   11  A    between atoms: C_11  and  N_12
REMARK   12  A    between atoms: N_15  and  C_16
REMARK                            x       y       z     vdW  Elec       q    Type
REMARK                         _______ _______ _______ _____ _____    ______ ____
ROOT
ATOM      1  N   UNL     1       1.694   9.670  17.917  0.00  0.00    +0.000 NA
ATOM      2  C   UNL     1       0.241   9.442  18.080  0.00  0.00    +0.000 C 
ATOM      3  C   UNL     1      -0.389  10.007  19.378  0.00  0.00    +0.000 C 
ATOM      4  N   UNL     1      -0.062  11.428  19.671  0.00  0.00    +0.000 NA
ATOM      5  C   UNL     1       1.417  11.524  19.620  0.00  0.00    +0.000 C 
ATOM      6  C   UNL     1       2.035  11.056  18.278  0.00  0.00    +0.000 C 
ENDROOT
BRANCH   4   7
ATOM      7  C   UNL     1      -0.724  12.399  18.732  0.00  0.00    +0.000 C 
ATOM      8  C   UNL     1      -0.546  13.866  19.170  0.00  0.00    +0.000 A 
ATOM      9  C   UNL     1       0.548  14.567  18.596  0.00  0.00    +0.000 A 
ATOM     10  C   UNL     1       0.919  15.847  19.003  0.00  0.00    +0.000 A 
ATOM     11  C   UNL     1       0.178  16.488  19.977  0.00  0.00    +0.000 A 
ATOM     12  C   UNL     1      -0.936  15.850  20.517  0.00  0.00    +0.000 A 
ATOM     13  C   UNL     1      -1.321  14.540  20.133  0.00  0.00    +0.000 A 
ATOM     14  C   UNL     1      -2.617  14.055  20.748  0.00  0.00    +0.000 C 
ATOM     15  C   UNL     1      -3.014  12.583  20.681  0.00  0.00    +0.000 C 
ATOM     16  C   UNL     1      -3.229  12.086  19.278  0.00  0.00    +0.000 A 
ATOM     17  C   UNL     1      -4.504  11.648  18.880  0.00  0.00    +0.000 A 
ATOM     18  C   UNL     1      -4.733  11.174  17.589  0.00  0.00    +0.000 A 
ATOM     19  C   UNL     1      -3.693  11.141  16.670  0.00  0.00    +0.000 A 
ATOM     20  C   UNL     1      -2.425  11.575  17.051  0.00  0.00    +0.000 A 
ATOM     21  C   UNL     1      -2.166  12.038  18.360  0.00  0.00    +0.000 A 
ENDBRANCH   4   7
BRANCH   1  22
ATOM     22  C   UNL     1       2.534   8.735  18.680  0.00  0.00    +0.000 C 
BRANCH  22  23
ATOM     23  C   UNL     1       1.764   7.751  19.573  0.00  0.00    +0.000 C 
BRANCH  23  24
ATOM     24  O   UNL     1       1.948   8.128  20.943  0.00  0.00    +0.000 OA
ATOM     25  H   UNL     1       1.374   7.558  21.485  0.00  0.00    +0.000 HD
ENDBRANCH  23  24
BRANCH  23  26
ATOM     26  C   UNL     1       2.243   6.316  19.362  0.00  0.00    +0.000 C 
BRANCH  26  27
ATOM     27  C   UNL     1       1.992   5.467  20.595  0.00  0.00    +0.000 C 
BRANCH  27  28
ATOM     28  C   UNL     1       0.921   4.427  20.306  0.00  0.00    +0.000 C 
BRANCH  28  29
ATOM     29  C   UNL     1       1.399   3.072  20.777  0.00  0.00    +0.000 C 
BRANCH  29  30
ATOM     30  C   UNL     1       2.292   2.422  19.736  0.00  0.00    +0.000 C 
BRANCH  30  31
ATOM     31  C   UNL     1       1.616   2.497  18.375  0.00  0.00    +0.000 C 
BRANCH  31  33
ATOM     32  C   UNL     1       3.970   3.050  17.776  0.00  0.00    +0.000 C 
ATOM     33  C   UNL     1       2.518   3.170  17.353  0.00  0.00    +0.000 C 
ENDBRANCH  31  33
ENDBRANCH  30  31
ENDBRANCH  29  30
ENDBRANCH  28  29
ENDBRANCH  27  28
ENDBRANCH  26  27
ENDBRANCH  23  26
ENDBRANCH  22  23
ENDBRANCH   1  22
TORSDOF 11
ENDMDL
