MODEL 1
REMARK VINA RESULT:      -6.7      0.000      0.000
REMARK  Name = 
REMARK  2 active torsions:
REMARK  status: ('A' for Active; 'I' for Inactive)
REMARK    1  A    between atoms: C_2  and  C_10
REMARK    2  A    between atoms: N_3  and  C_4
REMARK                            x       y       z     vdW  Elec       q    Type
REMARK                         _______ _______ _______ _____ _____    ______ ____
ROOT
ATOM      1  O   UNL     1       3.654   5.811  17.455  0.00  0.00    +0.000 OA
ATOM      2  C   UNL     1       4.213   4.755  17.183  0.00  0.00    +0.000 C 
ATOM      3  N   UNL     1       4.000   3.530  17.795  0.00  0.00    +0.000 N 
ATOM      4  H   UNL     1       4.673   2.795  17.632  0.00  0.00    +0.000 HD
ENDROOT
BRANCH   2   5
ATOM      5  C   UNL     1       5.267   4.799  16.135  0.00  0.00    +0.000 A 
ATOM      6  C   UNL     1       6.530   5.356  16.361  0.00  0.00    +0.000 A 
ATOM      7  C   UNL     1       7.506   5.288  15.361  0.00  0.00    +0.000 A 
ATOM      8  C   UNL     1       7.224   4.664  14.143  0.00  0.00    +0.000 A 
ATOM      9  C   UNL     1       5.965   4.109  13.923  0.00  0.00    +0.000 A 
ATOM     10 BR   UNL     1       5.588   3.247  12.285  0.00  0.00    +0.000 Br
ATOM     11  C   UNL     1       4.987   4.172  14.910  0.00  0.00    +0.000 A 
ENDBRANCH   2   5
BRANCH   3  12
ATOM     12  C   UNL     1       3.025   3.281  18.793  0.00  0.00    +0.000 A 
ATOM     13  C   UNL     1       1.663   3.155  18.515  0.00  0.00    +0.000 A 
ATOM     14  C   UNL     1       0.739   2.949  19.540  0.00  0.00    +0.000 A 
ATOM     15  C   UNL     1       1.170   2.856  20.860  0.00  0.00    +0.000 A 
ATOM     16  C   UNL     1       2.529   2.949  21.149  0.00  0.00    +0.000 A 
ATOM     17  C   UNL     1       3.455   3.149  20.119  0.00  0.00    +0.000 A 
ENDBRANCH   3  12
TORSDOF 2
ENDMDL
MODEL 2
REMARK VINA RESULT:      -6.7      1.050      1.050
REMARK  Name = 
REMARK  2 active torsions:
REMARK  status: ('A' for Active; 'I' for Inactive)
REMARK    1  A    between atoms: C_2  and  C_10
REMARK    2  A    between atoms: N_3  and  C_4
REMARK                            x       y       z     vdW  Elec       q    Type
REMARK                         _______ _______ _______ _____ _____    ______ ____
ROOT
ATOM      1  O   UNL     1       2.938   3.465  16.638  0.00  0.00    +0.000 OA
ATOM      2  C   UNL     1       3.937   3.909  17.194  0.00  0.00    +0.000 C 
ATOM      3  N   UNL     1       4.100   4.109  18.555  0.00  0.00    +0.000 N 
ATOM      4  H   UNL     1       4.876   4.680  18.861  0.00  0.00    +0.000 HD
ENDROOT
BRANCH   2   5
ATOM      5  C   UNL     1       5.064   4.329  16.321  0.00  0.00    +0.000 A 
ATOM      6  C   UNL     1       6.129   5.107  16.788  0.00  0.00    +0.000 A 
ATOM      7  C   UNL     1       7.202   5.395  15.938  0.00  0.00    +0.000 A 
ATOM      8  C   UNL     1       7.215   4.907  14.630  0.00  0.00    +0.000 A 
ATOM      9  C   UNL     1       6.153   4.130  14.169  0.00  0.00    +0.000 A 
ATOM     10 BR   UNL     1       6.178   3.451  12.406  0.00  0.00    +0.000 Br
ATOM     11  C   UNL     1       5.081   3.838  15.005  0.00  0.00    +0.000 A 
ENDBRANCH   2   5
BRANCH   3  12
ATOM     12  C   UNL     1       3.154   3.750  19.547  0.00  0.00    +0.000 A 
ATOM     13  C   UNL     1       1.886   4.330  19.636  0.00  0.00    +0.000 A 
ATOM     14  C   UNL     1       1.004   3.969  20.655  0.00  0.00    +0.000 A 
ATOM     15  C   UNL     1       1.377   3.012  21.594  0.00  0.00    +0.000 A 
ATOM     16  C   UNL     1       2.626   2.404  21.500  0.00  0.00    +0.000 A 
ATOM     17  C   UNL     1       3.507   2.762  20.473  0.00  0.00    +0.000 A 
ENDBRANCH   3  12
TORSDOF 2
ENDMDL
MODEL 3
REMARK VINA RESULT:      -6.6      1.113      1.505
REMARK  Name = 
REMARK  2 active torsions:
REMARK  status: ('A' for Active; 'I' for Inactive)
REMARK    1  A    between atoms: C_2  and  C_10
REMARK    2  A    between atoms: N_3  and  C_4
REMARK                            x       y       z     vdW  Elec       q    Type
REMARK                         _______ _______ _______ _____ _____    ______ ____
ROOT
ATOM      1  O   UNL     1       3.175   3.041  16.706  0.00  0.00    +0.000 OA
ATOM      2  C   UNL     1       4.034   3.765  17.197  0.00  0.00    +0.000 C 
ATOM      3  N   UNL     1       4.077   4.219  18.506  0.00  0.00    +0.000 N 
ATOM      4  H   UNL     1       4.708   4.978  18.723  0.00  0.00    +0.000 HD
ENDROOT
BRANCH   2   5
ATOM      5  C   UNL     1       5.105   4.252  16.289  0.00  0.00    +0.000 A 
ATOM      6  C   UNL     1       6.133   5.097  16.722  0.00  0.00    +0.000 A 
ATOM      7  C   UNL     1       7.159   5.449  15.839  0.00  0.00    +0.000 A 
ATOM      8  C   UNL     1       7.162   4.958  14.532  0.00  0.00    +0.000 A 
ATOM      9  C   UNL     1       6.138   4.115  14.105  0.00  0.00    +0.000 A 
ATOM     10 BR   UNL     1       6.151   3.432  12.343  0.00  0.00    +0.000 Br
ATOM     11  C   UNL     1       5.112   3.759  14.974  0.00  0.00    +0.000 A 
ENDBRANCH   2   5
BRANCH   3  12
ATOM     12  C   UNL     1       3.164   3.847  19.523  0.00  0.00    +0.000 A 
ATOM     13  C   UNL     1       3.435   2.854  20.466  0.00  0.00    +0.000 A 
ATOM     14  C   UNL     1       2.486   2.498  21.425  0.00  0.00    +0.000 A 
ATOM     15  C   UNL     1       1.253   3.143  21.458  0.00  0.00    +0.000 A 
ATOM     16  C   UNL     1       0.980   4.157  20.544  0.00  0.00    +0.000 A 
ATOM     17  C   UNL     1       1.936   4.516  19.587  0.00  0.00    +0.000 A 
ENDBRANCH   3  12
TORSDOF 2
ENDMDL
MODEL 4
REMARK VINA RESULT:      -6.6      1.180      1.461
REMARK  Name = 
REMARK  2 active torsions:
REMARK  status: ('A' for Active; 'I' for Inactive)
REMARK    1  A    between atoms: C_2  and  C_10
REMARK    2  A    between atoms: N_3  and  C_4
REMARK                            x       y       z     vdW  Elec       q    Type
REMARK                         _______ _______ _______ _____ _____    ______ ____
ROOT
ATOM      1  O   UNL     1       5.503   3.970  18.366  0.00  0.00    +0.000 OA
ATOM      2  C   UNL     1       4.882   4.258  17.349  0.00  0.00    +0.000 C 
ATOM      3  N   UNL     1       3.503   4.314  17.215  0.00  0.00    +0.000 N 
ATOM      4  H   UNL     1       3.119   4.346  16.282  0.00  0.00    +0.000 HD
ENDROOT
BRANCH   2   5
ATOM      5  C   UNL     1       5.679   4.516  16.121  0.00  0.00    +0.000 A 
ATOM      6  C   UNL     1       6.858   5.268  16.134  0.00  0.00    +0.000 A 
ATOM      7  C   UNL     1       7.609   5.401  14.961  0.00  0.00    +0.000 A 
ATOM      8  C   UNL     1       7.186   4.784  13.782  0.00  0.00    +0.000 A 
ATOM      9  C   UNL     1       6.012   4.034  13.773  0.00  0.00    +0.000 A 
ATOM     10 BR   UNL     1       5.449   3.181  12.184  0.00  0.00    +0.000 Br
ATOM     11  C   UNL     1       5.258   3.896  14.934  0.00  0.00    +0.000 A 
ENDBRANCH   2   5
BRANCH   3  12
ATOM     12  C   UNL     1       2.578   4.124  18.271  0.00  0.00    +0.000 A 
ATOM     13  C   UNL     1       2.387   5.055  19.295  0.00  0.00    +0.000 A 
ATOM     14  C   UNL     1       1.491   4.803  20.334  0.00  0.00    +0.000 A 
ATOM     15  C   UNL     1       0.764   3.617  20.356  0.00  0.00    +0.000 A 
ATOM     16  C   UNL     1       0.921   2.693  19.326  0.00  0.00    +0.000 A 
ATOM     17  C   UNL     1       1.816   2.950  18.281  0.00  0.00    +0.000 A 
ENDBRANCH   3  12
TORSDOF 2
ENDMDL
MODEL 5
REMARK VINA RESULT:      -6.6      0.539      1.289
REMARK  Name = 
REMARK  2 active torsions:
REMARK  status: ('A' for Active; 'I' for Inactive)
REMARK    1  A    between atoms: C_2  and  C_10
REMARK    2  A    between atoms: N_3  and  C_4
REMARK                            x       y       z     vdW  Elec       q    Type
REMARK                         _______ _______ _______ _____ _____    ______ ____
ROOT
ATOM      1  O   UNL     1       4.289   5.909  18.327  0.00  0.00    +0.000 OA
ATOM      2  C   UNL     1       4.492   4.843  17.758  0.00  0.00    +0.000 C 
ATOM      3  N   UNL     1       3.992   3.604  18.127  0.00  0.00    +0.000 N 
ATOM      4  H   UNL     1       4.407   2.783  17.712  0.00  0.00    +0.000 HD
ENDROOT
BRANCH   2   5
ATOM      5  C   UNL     1       5.411   4.866  16.589  0.00  0.00    +0.000 A 
ATOM      6  C   UNL     1       6.738   5.299  16.684  0.00  0.00    +0.000 A 
ATOM      7  C   UNL     1       7.575   5.214  15.567  0.00  0.00    +0.000 A 
ATOM      8  C   UNL     1       7.093   4.697  14.362  0.00  0.00    +0.000 A 
ATOM      9  C   UNL     1       5.771   4.265  14.273  0.00  0.00    +0.000 A 
ATOM     10 BR   UNL     1       5.121   3.546  12.651  0.00  0.00    +0.000 Br
ATOM     11  C   UNL     1       4.929   4.346  15.377  0.00  0.00    +0.000 A 
ENDBRANCH   2   5
BRANCH   3  12
ATOM     12  C   UNL     1       3.085   3.382  19.193  0.00  0.00    +0.000 A 
ATOM     13  C   UNL     1       3.479   2.895  20.441  0.00  0.00    +0.000 A 
ATOM     14  C   UNL     1       2.540   2.657  21.446  0.00  0.00    +0.000 A 
ATOM     15  C   UNL     1       1.192   2.915  21.216  0.00  0.00    +0.000 A 
ATOM     16  C   UNL     1       0.788   3.429  19.987  0.00  0.00    +0.000 A 
ATOM     17  C   UNL     1       1.732   3.674  18.983  0.00  0.00    +0.000 A 
ENDBRANCH   3  12
TORSDOF 2
ENDMDL
MODEL 6
REMARK VINA RESULT:      -6.5      1.155      1.221
REMARK  Name = 
REMARK  2 active torsions:
REMARK  status: ('A' for Active; 'I' for Inactive)
REMARK    1  A    between atoms: C_2  and  C_10
REMARK    2  A    between atoms: N_3  and  C_4
REMARK                            x       y       z     vdW  Elec       q    Type
REMARK                         _______ _______ _______ _____ _____    ______ ____
ROOT
ATOM      1  O   UNL     1       5.719   4.061  18.588  0.00  0.00    +0.000 OA
ATOM      2  C   UNL     1       5.041   4.186  17.574  0.00  0.00    +0.000 C 
ATOM      3  N   UNL     1       3.666   4.038  17.481  0.00  0.00    +0.000 N 
ATOM      4  H   UNL     1       3.260   3.949  16.561  0.00  0.00    +0.000 HD
ENDROOT
BRANCH   2   5
ATOM      5  C   UNL     1       5.766   4.465  16.306  0.00  0.00    +0.000 A 
ATOM      6  C   UNL     1       6.973   5.170  16.270  0.00  0.00    +0.000 A 
ATOM      7  C   UNL     1       7.649   5.324  15.055  0.00  0.00    +0.000 A 
ATOM      8  C   UNL     1       7.125   4.774  13.883  0.00  0.00    +0.000 A 
ATOM      9  C   UNL     1       5.923   4.070  13.924  0.00  0.00    +0.000 A 
ATOM     10 BR   UNL     1       5.222   3.306  12.344  0.00  0.00    +0.000 Br
ATOM     11  C   UNL     1       5.242   3.912  15.126  0.00  0.00    +0.000 A 
ENDBRANCH   2   5
BRANCH   3  12
ATOM     12  C   UNL     1       2.801   3.796  18.578  0.00  0.00    +0.000 A 
ATOM     13  C   UNL     1       2.359   2.520  18.933  0.00  0.00    +0.000 A 
ATOM     14  C   UNL     1       1.477   2.339  19.999  0.00  0.00    +0.000 A 
ATOM     15  C   UNL     1       1.033   3.437  20.731  0.00  0.00    +0.000 A 
ATOM     16  C   UNL     1       1.489   4.711  20.407  0.00  0.00    +0.000 A 
ATOM     17  C   UNL     1       2.379   4.890  19.342  0.00  0.00    +0.000 A 
ENDBRANCH   3  12
TORSDOF 2
ENDMDL
MODEL 7
REMARK VINA RESULT:      -6.5      4.955      6.280
REMARK  Name = 
REMARK  2 active torsions:
REMARK  status: ('A' for Active; 'I' for Inactive)
REMARK    1  A    between atoms: C_2  and  C_10
REMARK    2  A    between atoms: N_3  and  C_4
REMARK                            x       y       z     vdW  Elec       q    Type
REMARK                         _______ _______ _______ _____ _____    ______ ____
ROOT
ATOM      1  O   UNL     1       3.754   6.664  17.938  0.00  0.00    +0.000 OA
ATOM      2  C   UNL     1       2.765   6.621  18.661  0.00  0.00    +0.000 C 
ATOM      3  N   UNL     1       2.152   5.478  19.150  0.00  0.00    +0.000 N 
ATOM      4  H   UNL     1       1.228   5.569  19.546  0.00  0.00    +0.000 HD
ENDROOT
BRANCH   2   5
ATOM      5  C   UNL     1       2.121   7.917  19.002  0.00  0.00    +0.000 A 
ATOM      6  C   UNL     1       1.915   8.927  18.056  0.00  0.00    +0.000 A 
ATOM      7  C   UNL     1       1.225  10.088  18.420  0.00  0.00    +0.000 A 
ATOM      8  C   UNL     1       0.741  10.239  19.722  0.00  0.00    +0.000 A 
ATOM      9  C   UNL     1       0.947   9.231  20.661  0.00  0.00    +0.000 A 
ATOM     10 BR   UNL     1       0.275   9.424  22.416  0.00  0.00    +0.000 Br
ATOM     11  C   UNL     1       1.632   8.073  20.309  0.00  0.00    +0.000 A 
ENDBRANCH   2   5
BRANCH   3  12
ATOM     12  C   UNL     1       2.628   4.158  18.956  0.00  0.00    +0.000 A 
ATOM     13  C   UNL     1       3.598   3.569  19.770  0.00  0.00    +0.000 A 
ATOM     14  C   UNL     1       4.061   2.278  19.513  0.00  0.00    +0.000 A 
ATOM     15  C   UNL     1       3.549   1.554  18.440  0.00  0.00    +0.000 A 
ATOM     16  C   UNL     1       2.559   2.117  17.638  0.00  0.00    +0.000 A 
ATOM     17  C   UNL     1       2.092   3.409  17.901  0.00  0.00    +0.000 A 
ENDBRANCH   3  12
TORSDOF 2
ENDMDL
MODEL 8
REMARK VINA RESULT:      -6.4      2.550      6.474
REMARK  Name = 
REMARK  2 active torsions:
REMARK  status: ('A' for Active; 'I' for Inactive)
REMARK    1  A    between atoms: C_2  and  C_10
REMARK    2  A    between atoms: N_3  and  C_4
REMARK                            x       y       z     vdW  Elec       q    Type
REMARK                         _______ _______ _______ _____ _____    ______ ____
ROOT
ATOM      1  O   UNL     1       4.944   6.611  15.973  0.00  0.00    +0.000 OA
ATOM      2  C   UNL     1       4.726   5.450  16.303  0.00  0.00    +0.000 C 
ATOM      3  N   UNL     1       5.106   4.312  15.609  0.00  0.00    +0.000 N 
ATOM      4  H   UNL     1       4.679   3.434  15.868  0.00  0.00    +0.000 HD
ENDROOT
BRANCH   2   5
ATOM      5  C   UNL     1       3.926   5.238  17.538  0.00  0.00    +0.000 A 
ATOM      6  C   UNL     1       3.904   6.162  18.588  0.00  0.00    +0.000 A 
ATOM      7  C   UNL     1       3.062   5.945  19.684  0.00  0.00    +0.000 A 
ATOM      8  C   UNL     1       2.244   4.814  19.731  0.00  0.00    +0.000 A 
ATOM      9  C   UNL     1       2.268   3.897  18.681  0.00  0.00    +0.000 A 
ATOM     10 BR   UNL     1       1.147   2.376  18.733  0.00  0.00    +0.000 Br
ATOM     11  C   UNL     1       3.101   4.102  17.587  0.00  0.00    +0.000 A 
ENDBRANCH   2   5
BRANCH   3  12
ATOM     12  C   UNL     1       5.891   4.307  14.429  0.00  0.00    +0.000 A 
ATOM     13  C   UNL     1       7.081   5.026  14.302  0.00  0.00    +0.000 A 
ATOM     14  C   UNL     1       7.798   5.019  13.105  0.00  0.00    +0.000 A 
ATOM     15  C   UNL     1       7.336   4.280  12.020  0.00  0.00    +0.000 A 
ATOM     16  C   UNL     1       6.167   3.533  12.142  0.00  0.00    +0.000 A 
ATOM     17  C   UNL     1       5.453   3.537  13.346  0.00  0.00    +0.000 A 
ENDBRANCH   3  12
TORSDOF 2
ENDMDL
MODEL 9
REMARK VINA RESULT:      -6.4      4.928      6.127
REMARK  Name = 
REMARK  2 active torsions:
REMARK  status: ('A' for Active; 'I' for Inactive)
REMARK    1  A    between atoms: C_2  and  C_10
REMARK    2  A    between atoms: N_3  and  C_4
REMARK                            x       y       z     vdW  Elec       q    Type
REMARK                         _______ _______ _______ _____ _____    ______ ____
ROOT
ATOM      1  O   UNL     1       3.928   6.678  18.060  0.00  0.00    +0.000 OA
ATOM      2  C   UNL     1       2.851   6.623  18.643  0.00  0.00    +0.000 C 
ATOM      3  N   UNL     1       2.159   5.472  18.985  0.00  0.00    +0.000 N 
ATOM      4  H   UNL     1       1.191   5.565  19.261  0.00  0.00    +0.000 HD
ENDROOT
BRANCH   2   5
ATOM      5  C   UNL     1       2.191   7.915  18.966  0.00  0.00    +0.000 A 
ATOM      6  C   UNL     1       2.007   8.924  18.015  0.00  0.00    +0.000 A 
ATOM      7  C   UNL     1       1.301  10.081  18.360  0.00  0.00    +0.000 A 
ATOM      8  C   UNL     1       0.779  10.230  19.647  0.00  0.00    +0.000 A 
ATOM      9  C   UNL     1       0.963   9.222  20.591  0.00  0.00    +0.000 A 
ATOM     10 BR   UNL     1       0.240   9.411  22.327  0.00  0.00    +0.000 Br
ATOM     11  C   UNL     1       1.664   8.067  20.259  0.00  0.00    +0.000 A 
ENDBRANCH   2   5
BRANCH   3  12
ATOM     12  C   UNL     1       2.632   4.152  18.784  0.00  0.00    +0.000 A 
ATOM     13  C   UNL     1       2.273   3.372  17.683  0.00  0.00    +0.000 A 
ATOM     14  C   UNL     1       2.737   2.062  17.551  0.00  0.00    +0.000 A 
ATOM     15  C   UNL     1       3.577   1.519  18.518  0.00  0.00    +0.000 A 
ATOM     16  C   UNL     1       3.968   2.295  19.606  0.00  0.00    +0.000 A 
ATOM     17  C   UNL     1       3.507   3.611  19.733  0.00  0.00    +0.000 A 
ENDBRANCH   3  12
TORSDOF 2
ENDMDL
