MODEL 1
REMARK VINA RESULT:      -8.0      0.000      0.000
REMARK  Name = 
REMARK  5 active torsions:
REMARK  status: ('A' for Active; 'I' for Inactive)
REMARK    1  A    between atoms: C_4  and  C_5
REMARK    2  A    between atoms: C_5  and  C_6
REMARK    3  A    between atoms: C_6  and  C_7
REMARK    4  A    between atoms: N_9  and  C_10
REMARK    5  A    between atoms: C_10  and  C_11
REMARK                            x       y       z     vdW  Elec       q    Type
REMARK                         _______ _______ _______ _____ _____    ______ ____
ROOT
ATOM      1  C   UNL     1       7.983   7.297  18.133  0.00  0.00    +0.000 A 
ATOM      2  C   UNL     1       7.486   6.081  18.546  0.00  0.00    +0.000 A 
ATOM      3  N   UNL     1       7.009   5.509  17.403  0.00  0.00    +0.000 N 
ATOM      4  N   UNL     1       7.187   6.319  16.344  0.00  0.00    +0.000 NA
ATOM      5  N   UNL     1       7.795   7.416  16.779  0.00  0.00    +0.000 NA
ENDROOT
BRANCH   1   6
ATOM      6  C   UNL     1       8.584   8.414  18.914  0.00  0.00    +0.000 C 
BRANCH   6   7
ATOM      7  C   UNL     1       8.556   9.755  18.176  0.00  0.00    +0.000 C 
BRANCH   7  11
ATOM      8  C   UNL     1      11.538  12.489  19.661  0.00  0.00    +0.000 A 
ATOM      9  C   UNL     1      11.442  12.237  18.295  0.00  0.00    +0.000 A 
ATOM     10  C   UNL     1      10.476  11.351  17.814  0.00  0.00    +0.000 A 
ATOM     11  C   UNL     1       9.595  10.714  18.698  0.00  0.00    +0.000 A 
ATOM     12  C   UNL     1       9.704  10.969  20.071  0.00  0.00    +0.000 A 
ATOM     13  C   UNL     1      10.671  11.856  20.549  0.00  0.00    +0.000 A 
ENDBRANCH   7  11
ENDBRANCH   6   7
ENDBRANCH   1   6
BRANCH   3  14
ATOM     14  C   UNL     1       6.235   4.287  17.281  0.00  0.00    +0.000 C 
BRANCH  14  15
ATOM     15  C   UNL     1       4.754   4.511  17.455  0.00  0.00    +0.000 A 
ATOM     16  C   UNL     1       3.843   3.465  17.237  0.00  0.00    +0.000 A 
ATOM     17  C   UNL     1       2.478   3.655  17.465  0.00  0.00    +0.000 A 
ATOM     18  C   UNL     1       2.008   4.889  17.909  0.00  0.00    +0.000 A 
ATOM     19  C   UNL     1       2.900   5.938  18.120  0.00  0.00    +0.000 A 
ATOM     20  C   UNL     1       4.265   5.751  17.895  0.00  0.00    +0.000 A 
ENDBRANCH  14  15
ENDBRANCH   3  14
TORSDOF 5
ENDMDL
MODEL 2
REMARK VINA RESULT:      -8.0      0.166      1.091
REMARK  Name = 
REMARK  5 active torsions:
REMARK  status: ('A' for Active; 'I' for Inactive)
REMARK    1  A    between atoms: C_4  and  C_5
REMARK    2  A    between atoms: C_5  and  C_6
REMARK    3  A    between atoms: C_6  and  C_7
REMARK    4  A    between atoms: N_9  and  C_10
REMARK    5  A    between atoms: C_10  and  C_11
REMARK                            x       y       z     vdW  Elec       q    Type
REMARK                         _______ _______ _______ _____ _____    ______ ____
ROOT
ATOM      1  C   UNL     1       7.913   7.209  18.103  0.00  0.00    +0.000 A 
ATOM      2  C   UNL     1       7.387   6.011  18.531  0.00  0.00    +0.000 A 
ATOM      3  N   UNL     1       6.914   5.427  17.392  0.00  0.00    +0.000 N 
ATOM      4  N   UNL     1       7.123   6.214  16.321  0.00  0.00    +0.000 NA
ATOM      5  N   UNL     1       7.746   7.306  16.745  0.00  0.00    +0.000 NA
ENDROOT
BRANCH   1   6
ATOM      6  C   UNL     1       8.525   8.328  18.872  0.00  0.00    +0.000 C 
BRANCH   6   7
ATOM      7  C   UNL     1       8.526   9.657  18.112  0.00  0.00    +0.000 C 
BRANCH   7  11
ATOM      8  C   UNL     1      11.261  12.514  19.828  0.00  0.00    +0.000 A 
ATOM      9  C   UNL     1      10.404  11.787  20.651  0.00  0.00    +0.000 A 
ATOM     10  C   UNL     1       9.518  10.863  20.095  0.00  0.00    +0.000 A 
ATOM     11  C   UNL     1       9.487  10.654  18.710  0.00  0.00    +0.000 A 
ATOM     12  C   UNL     1      10.347  11.394  17.889  0.00  0.00    +0.000 A 
ATOM     13  C   UNL     1      11.232  12.318  18.448  0.00  0.00    +0.000 A 
ENDBRANCH   7  11
ENDBRANCH   6   7
ENDBRANCH   1   6
BRANCH   3  14
ATOM     14  C   UNL     1       6.118   4.218  17.281  0.00  0.00    +0.000 C 
BRANCH  14  15
ATOM     15  C   UNL     1       4.642   4.470  17.457  0.00  0.00    +0.000 A 
ATOM     16  C   UNL     1       3.713   3.435  17.265  0.00  0.00    +0.000 A 
ATOM     17  C   UNL     1       2.352   3.652  17.494  0.00  0.00    +0.000 A 
ATOM     18  C   UNL     1       1.905   4.903  17.913  0.00  0.00    +0.000 A 
ATOM     19  C   UNL     1       2.814   5.941  18.098  0.00  0.00    +0.000 A 
ATOM     20  C   UNL     1       4.175   5.727  17.872  0.00  0.00    +0.000 A 
ENDBRANCH  14  15
ENDBRANCH   3  14
TORSDOF 5
ENDMDL
MODEL 3
REMARK VINA RESULT:      -7.9      1.401      1.998
REMARK  Name = 
REMARK  5 active torsions:
REMARK  status: ('A' for Active; 'I' for Inactive)
REMARK    1  A    between atoms: C_4  and  C_5
REMARK    2  A    between atoms: C_5  and  C_6
REMARK    3  A    between atoms: C_6  and  C_7
REMARK    4  A    between atoms: N_9  and  C_10
REMARK    5  A    between atoms: C_10  and  C_11
REMARK                            x       y       z     vdW  Elec       q    Type
REMARK                         _______ _______ _______ _____ _____    ______ ____
ROOT
ATOM      1  C   UNL     1       7.426   6.421  18.196  0.00  0.00    +0.000 A 
ATOM      2  C   UNL     1       6.344   6.323  17.349  0.00  0.00    +0.000 A 
ATOM      3  N   UNL     1       6.006   5.002  17.390  0.00  0.00    +0.000 N 
ATOM      4  N   UNL     1       6.829   4.315  18.203  0.00  0.00    +0.000 NA
ATOM      5  N   UNL     1       7.698   5.180  18.712  0.00  0.00    +0.000 NA
ENDROOT
BRANCH   1   6
ATOM      6  C   UNL     1       8.288   7.587  18.535  0.00  0.00    +0.000 C 
BRANCH   6   7
ATOM      7  C   UNL     1       7.982   8.832  17.698  0.00  0.00    +0.000 C 
BRANCH   7  11
ATOM      8  C   UNL     1       9.722  12.401  19.376  0.00  0.00    +0.000 A 
ATOM      9  C   UNL     1       9.017  12.466  18.176  0.00  0.00    +0.000 A 
ATOM     10  C   UNL     1       8.454  11.310  17.633  0.00  0.00    +0.000 A 
ATOM     11  C   UNL     1       8.588  10.079  18.290  0.00  0.00    +0.000 A 
ATOM     12  C   UNL     1       9.305  10.022  19.492  0.00  0.00    +0.000 A 
ATOM     13  C   UNL     1       9.866  11.181  20.033  0.00  0.00    +0.000 A 
ENDBRANCH   7  11
ENDBRANCH   6   7
ENDBRANCH   1   6
BRANCH   3  14
ATOM     14  C   UNL     1       5.031   4.312  16.565  0.00  0.00    +0.000 C 
BRANCH  14  15
ATOM     15  C   UNL     1       3.816   3.869  17.340  0.00  0.00    +0.000 A 
ATOM     16  C   UNL     1       2.797   4.783  17.652  0.00  0.00    +0.000 A 
ATOM     17  C   UNL     1       1.640   4.358  18.310  0.00  0.00    +0.000 A 
ATOM     18  C   UNL     1       1.491   3.020  18.667  0.00  0.00    +0.000 A 
ATOM     19  C   UNL     1       2.498   2.105  18.373  0.00  0.00    +0.000 A 
ATOM     20  C   UNL     1       3.654   2.526  17.713  0.00  0.00    +0.000 A 
ENDBRANCH  14  15
ENDBRANCH   3  14
TORSDOF 5
ENDMDL
MODEL 4
REMARK VINA RESULT:      -7.8      1.413      1.777
REMARK  Name = 
REMARK  5 active torsions:
REMARK  status: ('A' for Active; 'I' for Inactive)
REMARK    1  A    between atoms: C_4  and  C_5
REMARK    2  A    between atoms: C_5  and  C_6
REMARK    3  A    between atoms: C_6  and  C_7
REMARK    4  A    between atoms: N_9  and  C_10
REMARK    5  A    between atoms: C_10  and  C_11
REMARK                            x       y       z     vdW  Elec       q    Type
REMARK                         _______ _______ _______ _____ _____    ______ ____
ROOT
ATOM      1  C   UNL     1       7.384   6.399  18.153  0.00  0.00    +0.000 A 
ATOM      2  C   UNL     1       6.329   6.304  17.272  0.00  0.00    +0.000 A 
ATOM      3  N   UNL     1       5.932   5.002  17.366  0.00  0.00    +0.000 N 
ATOM      4  N   UNL     1       6.694   4.324  18.243  0.00  0.00    +0.000 NA
ATOM      5  N   UNL     1       7.582   5.176  18.740  0.00  0.00    +0.000 NA
ENDROOT
BRANCH   1   6
ATOM      6  C   UNL     1       8.285   7.543  18.465  0.00  0.00    +0.000 C 
BRANCH   6   7
ATOM      7  C   UNL     1       7.948   8.813  17.679  0.00  0.00    +0.000 C 
BRANCH   7  11
ATOM      8  C   UNL     1       9.752  12.330  19.400  0.00  0.00    +0.000 A 
ATOM      9  C   UNL     1       9.074  12.416  18.186  0.00  0.00    +0.000 A 
ATOM     10  C   UNL     1       8.490  11.277  17.629  0.00  0.00    +0.000 A 
ATOM     11  C   UNL     1       8.576  10.042  18.286  0.00  0.00    +0.000 A 
ATOM     12  C   UNL     1       9.266   9.963  19.502  0.00  0.00    +0.000 A 
ATOM     13  C   UNL     1       9.848  11.105  20.057  0.00  0.00    +0.000 A 
ENDBRANCH   7  11
ENDBRANCH   6   7
ENDBRANCH   1   6
BRANCH   3  14
ATOM     14  C   UNL     1       4.957   4.313  16.540  0.00  0.00    +0.000 C 
BRANCH  14  15
ATOM     15  C   UNL     1       3.755   3.843  17.321  0.00  0.00    +0.000 A 
ATOM     16  C   UNL     1       3.649   2.505  17.730  0.00  0.00    +0.000 A 
ATOM     17  C   UNL     1       2.569   2.086  18.511  0.00  0.00    +0.000 A 
ATOM     18  C   UNL     1       1.585   2.997  18.889  0.00  0.00    +0.000 A 
ATOM     19  C   UNL     1       1.674   4.325  18.482  0.00  0.00    +0.000 A 
ATOM     20  C   UNL     1       2.753   4.747  17.703  0.00  0.00    +0.000 A 
ENDBRANCH  14  15
ENDBRANCH   3  14
TORSDOF 5
ENDMDL
MODEL 5
REMARK VINA RESULT:      -7.7      0.391      1.554
REMARK  Name = 
REMARK  5 active torsions:
REMARK  status: ('A' for Active; 'I' for Inactive)
REMARK    1  A    between atoms: C_4  and  C_5
REMARK    2  A    between atoms: C_5  and  C_6
REMARK    3  A    between atoms: C_6  and  C_7
REMARK    4  A    between atoms: N_9  and  C_10
REMARK    5  A    between atoms: C_10  and  C_11
REMARK                            x       y       z     vdW  Elec       q    Type
REMARK                         _______ _______ _______ _____ _____    ______ ____
ROOT
ATOM      1  C   UNL     1       7.859   7.378  18.063  0.00  0.00    +0.000 A 
ATOM      2  C   UNL     1       7.607   6.080  18.447  0.00  0.00    +0.000 A 
ATOM      3  N   UNL     1       6.841   5.575  17.437  0.00  0.00    +0.000 N 
ATOM      4  N   UNL     1       6.621   6.501  16.486  0.00  0.00    +0.000 NA
ATOM      5  N   UNL     1       7.251   7.609  16.855  0.00  0.00    +0.000 NA
ENDROOT
BRANCH   1   6
ATOM      6  C   UNL     1       8.588   8.471  18.764  0.00  0.00    +0.000 C 
BRANCH   6   7
ATOM      7  C   UNL     1       8.617   9.784  17.977  0.00  0.00    +0.000 C 
BRANCH   7  11
ATOM      8  C   UNL     1      11.009  12.795  19.924  0.00  0.00    +0.000 A 
ATOM      9  C   UNL     1      10.425  11.776  20.673  0.00  0.00    +0.000 A 
ATOM     10  C   UNL     1       9.650  10.802  20.042  0.00  0.00    +0.000 A 
ATOM     11  C   UNL     1       9.458  10.836  18.654  0.00  0.00    +0.000 A 
ATOM     12  C   UNL     1      10.044  11.867  17.911  0.00  0.00    +0.000 A 
ATOM     13  C   UNL     1      10.819  12.841  18.545  0.00  0.00    +0.000 A 
ENDBRANCH   7  11
ENDBRANCH   6   7
ENDBRANCH   1   6
BRANCH   3  14
ATOM     14  C   UNL     1       6.161   4.293  17.397  0.00  0.00    +0.000 C 
BRANCH  14  15
ATOM     15  C   UNL     1       4.672   4.413  17.601  0.00  0.00    +0.000 A 
ATOM     16  C   UNL     1       4.113   5.606  18.087  0.00  0.00    +0.000 A 
ATOM     17  C   UNL     1       2.728   5.741  18.211  0.00  0.00    +0.000 A 
ATOM     18  C   UNL     1       1.888   4.688  17.855  0.00  0.00    +0.000 A 
ATOM     19  C   UNL     1       2.430   3.496  17.380  0.00  0.00    +0.000 A 
ATOM     20  C   UNL     1       3.814   3.359  17.253  0.00  0.00    +0.000 A 
ENDBRANCH  14  15
ENDBRANCH   3  14
TORSDOF 5
ENDMDL
MODEL 6
REMARK VINA RESULT:      -7.7      4.843      6.668
REMARK  Name = 
REMARK  5 active torsions:
REMARK  status: ('A' for Active; 'I' for Inactive)
REMARK    1  A    between atoms: C_4  and  C_5
REMARK    2  A    between atoms: C_5  and  C_6
REMARK    3  A    between atoms: C_6  and  C_7
REMARK    4  A    between atoms: N_9  and  C_10
REMARK    5  A    between atoms: C_10  and  C_11
REMARK                            x       y       z     vdW  Elec       q    Type
REMARK                         _______ _______ _______ _____ _____    ______ ____
ROOT
ATOM      1  C   UNL     1       6.415   5.015  17.656  0.00  0.00    +0.000 A 
ATOM      2  C   UNL     1       5.259   5.763  17.662  0.00  0.00    +0.000 A 
ATOM      3  N   UNL     1       4.716   5.531  18.892  0.00  0.00    +0.000 N 
ATOM      4  N   UNL     1       5.479   4.685  19.607  0.00  0.00    +0.000 NA
ATOM      5  N   UNL     1       6.531   4.371  18.861  0.00  0.00    +0.000 NA
ENDROOT
BRANCH   1   6
ATOM      6  C   UNL     1       7.421   4.796  16.580  0.00  0.00    +0.000 C 
BRANCH   6   7
ATOM      7  C   UNL     1       7.184   5.664  15.342  0.00  0.00    +0.000 C 
BRANCH   7  11
ATOM      8  C   UNL     1       5.956   3.317  11.940  0.00  0.00    +0.000 A 
ATOM      9  C   UNL     1       5.155   3.367  13.079  0.00  0.00    +0.000 A 
ATOM     10  C   UNL     1       5.553   4.127  14.180  0.00  0.00    +0.000 A 
ATOM     11  C   UNL     1       6.755   4.847  14.148  0.00  0.00    +0.000 A 
ATOM     12  C   UNL     1       7.557   4.784  13.002  0.00  0.00    +0.000 A 
ATOM     13  C   UNL     1       7.156   4.024  11.902  0.00  0.00    +0.000 A 
ENDBRANCH   7  11
ENDBRANCH   6   7
ENDBRANCH   1   6
BRANCH   3  14
ATOM     14  C   UNL     1       3.412   5.945  19.377  0.00  0.00    +0.000 C 
BRANCH  14  15
ATOM     15  C   UNL     1       2.433   4.802  19.474  0.00  0.00    +0.000 A 
ATOM     16  C   UNL     1       1.958   4.169  18.315  0.00  0.00    +0.000 A 
ATOM     17  C   UNL     1       1.105   3.067  18.408  0.00  0.00    +0.000 A 
ATOM     18  C   UNL     1       0.716   2.587  19.656  0.00  0.00    +0.000 A 
ATOM     19  C   UNL     1       1.173   3.211  20.814  0.00  0.00    +0.000 A 
ATOM     20  C   UNL     1       2.027   4.312  20.725  0.00  0.00    +0.000 A 
ENDBRANCH  14  15
ENDBRANCH   3  14
TORSDOF 5
ENDMDL
MODEL 7
REMARK VINA RESULT:      -7.7      0.875      1.507
REMARK  Name = 
REMARK  5 active torsions:
REMARK  status: ('A' for Active; 'I' for Inactive)
REMARK    1  A    between atoms: C_4  and  C_5
REMARK    2  A    between atoms: C_5  and  C_6
REMARK    3  A    between atoms: C_6  and  C_7
REMARK    4  A    between atoms: N_9  and  C_10
REMARK    5  A    between atoms: C_10  and  C_11
REMARK                            x       y       z     vdW  Elec       q    Type
REMARK                         _______ _______ _______ _____ _____    ______ ____
ROOT
ATOM      1  C   UNL     1       7.780   7.915  17.795  0.00  0.00    +0.000 A 
ATOM      2  C   UNL     1       6.870   7.333  16.941  0.00  0.00    +0.000 A 
ATOM      3  N   UNL     1       6.761   6.050  17.394  0.00  0.00    +0.000 N 
ATOM      4  N   UNL     1       7.558   5.841  18.457  0.00  0.00    +0.000 NA
ATOM      5  N   UNL     1       8.180   6.984  18.718  0.00  0.00    +0.000 NA
ENDROOT
BRANCH   1   6
ATOM      6  C   UNL     1       8.370   9.283  17.795  0.00  0.00    +0.000 C 
BRANCH   6   7
ATOM      7  C   UNL     1       8.910   9.711  19.162  0.00  0.00    +0.000 C 
BRANCH   7  11
ATOM      8  C   UNL     1      11.819  12.875  18.835  0.00  0.00    +0.000 A 
ATOM      9  C   UNL     1      11.209  12.368  17.690  0.00  0.00    +0.000 A 
ATOM     10  C   UNL     1      10.267  11.343  17.796  0.00  0.00    +0.000 A 
ATOM     11  C   UNL     1       9.925  10.821  19.051  0.00  0.00    +0.000 A 
ATOM     12  C   UNL     1      10.549  11.333  20.195  0.00  0.00    +0.000 A 
ATOM     13  C   UNL     1      11.490  12.358  20.086  0.00  0.00    +0.000 A 
ENDBRANCH   7  11
ENDBRANCH   6   7
ENDBRANCH   1   6
BRANCH   3  14
ATOM     14  C   UNL     1       6.053   4.948  16.768  0.00  0.00    +0.000 C 
BRANCH  14  15
ATOM     15  C   UNL     1       4.620   4.836  17.227  0.00  0.00    +0.000 A 
ATOM     16  C   UNL     1       3.959   5.946  17.777  0.00  0.00    +0.000 A 
ATOM     17  C   UNL     1       2.612   5.861  18.139  0.00  0.00    +0.000 A 
ATOM     18  C   UNL     1       1.914   4.670  17.957  0.00  0.00    +0.000 A 
ATOM     19  C   UNL     1       2.560   3.559  17.421  0.00  0.00    +0.000 A 
ATOM     20  C   UNL     1       3.906   3.641  17.057  0.00  0.00    +0.000 A 
ENDBRANCH  14  15
ENDBRANCH   3  14
TORSDOF 5
ENDMDL
MODEL 8
REMARK VINA RESULT:      -7.5      5.077      7.894
REMARK  Name = 
REMARK  5 active torsions:
REMARK  status: ('A' for Active; 'I' for Inactive)
REMARK    1  A    between atoms: C_4  and  C_5
REMARK    2  A    between atoms: C_5  and  C_6
REMARK    3  A    between atoms: C_6  and  C_7
REMARK    4  A    between atoms: N_9  and  C_10
REMARK    5  A    between atoms: C_10  and  C_11
REMARK                            x       y       z     vdW  Elec       q    Type
REMARK                         _______ _______ _______ _____ _____    ______ ____
ROOT
ATOM      1  C   UNL     1       4.305   6.324  17.683  0.00  0.00    +0.000 A 
ATOM      2  C   UNL     1       5.132   5.223  17.652  0.00  0.00    +0.000 A 
ATOM      3  N   UNL     1       6.019   5.500  16.652  0.00  0.00    +0.000 N 
ATOM      4  N   UNL     1       5.757   6.693  16.088  0.00  0.00    +0.000 NA
ATOM      5  N   UNL     1       4.713   7.213  16.721  0.00  0.00    +0.000 NA
ENDROOT
BRANCH   1   6
ATOM      6  C   UNL     1       3.101   6.607  18.512  0.00  0.00    +0.000 C 
BRANCH   6   7
ATOM      7  C   UNL     1       1.932   5.660  18.229  0.00  0.00    +0.000 C 
BRANCH   7  11
ATOM      8  C   UNL     1       1.692   2.445  21.090  0.00  0.00    +0.000 A 
ATOM      9  C   UNL     1       1.470   2.193  19.738  0.00  0.00    +0.000 A 
ATOM     10  C   UNL     1       1.547   3.235  18.812  0.00  0.00    +0.000 A 
ATOM     11  C   UNL     1       1.853   4.537  19.232  0.00  0.00    +0.000 A 
ATOM     12  C   UNL     1       2.068   4.781  20.594  0.00  0.00    +0.000 A 
ATOM     13  C   UNL     1       1.990   3.737  21.518  0.00  0.00    +0.000 A 
ENDBRANCH   7  11
ENDBRANCH   6   7
ENDBRANCH   1   6
BRANCH   3  14
ATOM     14  C   UNL     1       7.017   4.612  16.084  0.00  0.00    +0.000 C 
BRANCH  14  15
ATOM     15  C   UNL     1       6.912   4.496  14.584  0.00  0.00    +0.000 A 
ATOM     16  C   UNL     1       7.760   5.241  13.749  0.00  0.00    +0.000 A 
ATOM     17  C   UNL     1       7.709   5.082  12.362  0.00  0.00    +0.000 A 
ATOM     18  C   UNL     1       6.810   4.182  11.795  0.00  0.00    +0.000 A 
ATOM     19  C   UNL     1       5.956   3.444  12.611  0.00  0.00    +0.000 A 
ATOM     20  C   UNL     1       6.007   3.599  13.997  0.00  0.00    +0.000 A 
ENDBRANCH  14  15
ENDBRANCH   3  14
TORSDOF 5
ENDMDL
MODEL 9
REMARK VINA RESULT:      -7.5      5.013      7.870
REMARK  Name = 
REMARK  5 active torsions:
REMARK  status: ('A' for Active; 'I' for Inactive)
REMARK    1  A    between atoms: C_4  and  C_5
REMARK    2  A    between atoms: C_5  and  C_6
REMARK    3  A    between atoms: C_6  and  C_7
REMARK    4  A    between atoms: N_9  and  C_10
REMARK    5  A    between atoms: C_10  and  C_11
REMARK                            x       y       z     vdW  Elec       q    Type
REMARK                         _______ _______ _______ _____ _____    ______ ____
ROOT
ATOM      1  C   UNL     1       4.198   6.274  17.542  0.00  0.00    +0.000 A 
ATOM      2  C   UNL     1       4.970   5.142  17.404  0.00  0.00    +0.000 A 
ATOM      3  N   UNL     1       6.084   5.575  16.747  0.00  0.00    +0.000 N 
ATOM      4  N   UNL     1       6.010   6.892  16.483  0.00  0.00    +0.000 NA
ATOM      5  N   UNL     1       4.860   7.334  16.976  0.00  0.00    +0.000 NA
ENDROOT
BRANCH   1   6
ATOM      6  C   UNL     1       2.836   6.454  18.118  0.00  0.00    +0.000 C 
BRANCH   6   7
ATOM      7  C   UNL     1       1.907   5.265  17.862  0.00  0.00    +0.000 C 
BRANCH   7  11
ATOM      8  C   UNL     1       1.553   2.689  21.301  0.00  0.00    +0.000 A 
ATOM      9  C   UNL     1       1.154   2.235  20.046  0.00  0.00    +0.000 A 
ATOM     10  C   UNL     1       1.269   3.070  18.933  0.00  0.00    +0.000 A 
ATOM     11  C   UNL     1       1.789   4.365  19.066  0.00  0.00    +0.000 A 
ATOM     12  C   UNL     1       2.180   4.814  20.333  0.00  0.00    +0.000 A 
ATOM     13  C   UNL     1       2.065   3.977  21.445  0.00  0.00    +0.000 A 
ENDBRANCH   7  11
ENDBRANCH   6   7
ENDBRANCH   1   6
BRANCH   3  14
ATOM     14  C   UNL     1       7.162   4.768  16.204  0.00  0.00    +0.000 C 
BRANCH  14  15
ATOM     15  C   UNL     1       7.037   4.549  14.717  0.00  0.00    +0.000 A 
ATOM     16  C   UNL     1       6.087   3.651  14.206  0.00  0.00    +0.000 A 
ATOM     17  C   UNL     1       5.925   3.499  12.827  0.00  0.00    +0.000 A 
ATOM     18  C   UNL     1       6.712   4.238  11.945  0.00  0.00    +0.000 A 
ATOM     19  C   UNL     1       7.665   5.124  12.439  0.00  0.00    +0.000 A 
ATOM     20  C   UNL     1       7.827   5.280  13.818  0.00  0.00    +0.000 A 
ENDBRANCH  14  15
ENDBRANCH   3  14
TORSDOF 5
ENDMDL
