MODEL 1
REMARK VINA RESULT:      -7.3      0.000      0.000
REMARK  Name = 
REMARK  10 active torsions:
REMARK  status: ('A' for Active; 'I' for Inactive)
REMARK    1  A    between atoms: C_1  and  C_2
REMARK    2  A    between atoms: C_2  and  C_3
REMARK    3  A    between atoms: C_3  and  N_4
REMARK    4  A    between atoms: N_4  and  C_5
REMARK    5  A    between atoms: N_4  and  C_15
REMARK    6  A    between atoms: C_5  and  C_6
REMARK    7  A    between atoms: N_10  and  C_11
REMARK    8  A    between atoms: C_11  and  C_12
REMARK    9  A    between atoms: C_12  and  O_13
REMARK   10  A    between atoms: O_13  and  C_14
REMARK                            x       y       z     vdW  Elec       q    Type
REMARK                         _______ _______ _______ _____ _____    ______ ____
ROOT
ATOM      1  N   UNL     1       3.368   4.169  19.274  0.00  0.00    +0.000 NA
ENDROOT
BRANCH   1   2
ATOM      2  C   UNL     1       3.314   5.654  19.403  0.00  0.00    +0.000 C 
ATOM      3  C   UNL     1       2.973   6.367  18.057  0.00  0.00    +0.000 C 
ATOM      4  C   UNL     1       2.338   7.646  18.506  0.00  0.00    +0.000 A 
ATOM      5  C   UNL     1       2.075   8.779  17.752  0.00  0.00    +0.000 A 
ATOM      6  C   UNL     1       1.409   9.845  18.364  0.00  0.00    +0.000 A 
ATOM      7  C   UNL     1       1.012   9.760  19.707  0.00  0.00    +0.000 A 
ATOM      8  C   UNL     1       1.277   8.610  20.454  0.00  0.00    +0.000 A 
ATOM      9  C   UNL     1       1.943   7.563  19.841  0.00  0.00    +0.000 A 
ATOM     10  C   UNL     1       2.267   6.215  20.411  0.00  0.00    +0.000 C 
ENDBRANCH   1   2
BRANCH   1  11
ATOM     11  C   UNL     1       2.529   3.707  18.154  0.00  0.00    +0.000 C 
BRANCH  11  13
ATOM     12  C   UNL     1       0.762   2.901  19.828  0.00  0.00    +0.000 C 
ATOM     13  C   UNL     1       1.453   2.662  18.493  0.00  0.00    +0.000 C 
ENDBRANCH  11  13
ENDBRANCH   1  11
BRANCH   1  14
ATOM     14  C   UNL     1       4.744   3.618  19.253  0.00  0.00    +0.000 C 
BRANCH  14  15
ATOM     15  C   UNL     1       5.833   4.493  18.682  0.00  0.00    +0.000 A 
ATOM     16  N   UNL     1       6.724   5.155  19.406  0.00  0.00    +0.000 NA
ATOM     17  C   UNL     1       7.587   5.748  18.532  0.00  0.00    +0.000 A 
ATOM     18  C   UNL     1       7.231   5.460  17.244  0.00  0.00    +0.000 A 
ATOM     19  N   UNL     1       6.136   4.634  17.340  0.00  0.00    +0.000 N 
BRANCH  19  20
ATOM     20  C   UNL     1       5.515   4.013  16.185  0.00  0.00    +0.000 C 
BRANCH  20  21
ATOM     21  C   UNL     1       6.415   4.072  14.952  0.00  0.00    +0.000 C 
BRANCH  21  22
ATOM     22  O   UNL     1       5.620   4.201  13.772  0.00  0.00    +0.000 OA
ATOM     23  C   UNL     1       6.178   3.453  12.697  0.00  0.00    +0.000 C 
ENDBRANCH  21  22
ENDBRANCH  20  21
ENDBRANCH  19  20
ENDBRANCH  14  15
ENDBRANCH   1  14
TORSDOF 8
ENDMDL
MODEL 2
REMARK VINA RESULT:      -7.2      2.510      4.766
REMARK  Name = 
REMARK  10 active torsions:
REMARK  status: ('A' for Active; 'I' for Inactive)
REMARK    1  A    between atoms: C_1  and  C_2
REMARK    2  A    between atoms: C_2  and  C_3
REMARK    3  A    between atoms: C_3  and  N_4
REMARK    4  A    between atoms: N_4  and  C_5
REMARK    5  A    between atoms: N_4  and  C_15
REMARK    6  A    between atoms: C_5  and  C_6
REMARK    7  A    between atoms: N_10  and  C_11
REMARK    8  A    between atoms: C_11  and  C_12
REMARK    9  A    between atoms: C_12  and  O_13
REMARK   10  A    between atoms: O_13  and  C_14
REMARK                            x       y       z     vdW  Elec       q    Type
REMARK                         _______ _______ _______ _____ _____    ______ ____
ROOT
ATOM      1  N   UNL     1       5.765   4.866  16.609  0.00  0.00    +0.000 NA
ENDROOT
BRANCH   1   2
ATOM      2  C   UNL     1       4.360   4.906  17.107  0.00  0.00    +0.000 C 
ATOM      3  C   UNL     1       3.685   3.498  17.131  0.00  0.00    +0.000 C 
ATOM      4  C   UNL     1       2.653   3.638  18.206  0.00  0.00    +0.000 A 
ATOM      5  C   UNL     1       1.590   2.794  18.484  0.00  0.00    +0.000 A 
ATOM      6  C   UNL     1       0.781   3.083  19.586  0.00  0.00    +0.000 A 
ATOM      7  C   UNL     1       1.050   4.200  20.393  0.00  0.00    +0.000 A 
ATOM      8  C   UNL     1       2.129   5.040  20.107  0.00  0.00    +0.000 A 
ATOM      9  C   UNL     1       2.919   4.747  19.009  0.00  0.00    +0.000 A 
ATOM     10  C   UNL     1       4.162   5.450  18.553  0.00  0.00    +0.000 C 
ENDBRANCH   1   2
BRANCH   1  11
ATOM     11  C   UNL     1       6.709   4.616  17.714  0.00  0.00    +0.000 C 
BRANCH  11  13
ATOM     12  C   UNL     1       7.287   7.094  17.405  0.00  0.00    +0.000 C 
ATOM     13  C   UNL     1       7.621   5.788  18.112  0.00  0.00    +0.000 C 
ENDBRANCH  11  13
ENDBRANCH   1  11
BRANCH   1  14
ATOM     14  C   UNL     1       5.964   3.972  15.443  0.00  0.00    +0.000 C 
BRANCH  14  15
ATOM     15  C   UNL     1       6.726   4.528  14.265  0.00  0.00    +0.000 A 
ATOM     16  N   UNL     1       7.701   5.421  14.353  0.00  0.00    +0.000 NA
ATOM     17  C   UNL     1       8.195   5.597  13.094  0.00  0.00    +0.000 A 
ATOM     18  C   UNL     1       7.519   4.810  12.204  0.00  0.00    +0.000 A 
ATOM     19  N   UNL     1       6.608   4.105  12.954  0.00  0.00    +0.000 N 
BRANCH  19  20
ATOM     20  C   UNL     1       5.759   3.070  12.392  0.00  0.00    +0.000 C 
BRANCH  20  21
ATOM     21  C   UNL     1       4.411   3.624  11.934  0.00  0.00    +0.000 C 
BRANCH  21  22
ATOM     22  O   UNL     1       3.937   2.885  10.808  0.00  0.00    +0.000 OA
ATOM     23  C   UNL     1       3.111   3.695   9.977  0.00  0.00    +0.000 C 
ENDBRANCH  21  22
ENDBRANCH  20  21
ENDBRANCH  19  20
ENDBRANCH  14  15
ENDBRANCH   1  14
TORSDOF 8
ENDMDL
MODEL 3
REMARK VINA RESULT:      -7.0      1.473      3.986
REMARK  Name = 
REMARK  10 active torsions:
REMARK  status: ('A' for Active; 'I' for Inactive)
REMARK    1  A    between atoms: C_1  and  C_2
REMARK    2  A    between atoms: C_2  and  C_3
REMARK    3  A    between atoms: C_3  and  N_4
REMARK    4  A    between atoms: N_4  and  C_5
REMARK    5  A    between atoms: N_4  and  C_15
REMARK    6  A    between atoms: C_5  and  C_6
REMARK    7  A    between atoms: N_10  and  C_11
REMARK    8  A    between atoms: C_11  and  C_12
REMARK    9  A    between atoms: C_12  and  O_13
REMARK   10  A    between atoms: O_13  and  C_14
REMARK                            x       y       z     vdW  Elec       q    Type
REMARK                         _______ _______ _______ _____ _____    ______ ____
ROOT
ATOM      1  N   UNL     1       3.603   6.708  17.140  0.00  0.00    +0.000 NA
ENDROOT
BRANCH   1   2
ATOM      2  C   UNL     1       3.464   5.479  17.972  0.00  0.00    +0.000 C 
ATOM      3  C   UNL     1       3.377   5.788  19.500  0.00  0.00    +0.000 C 
ATOM      4  C   UNL     1       2.613   4.619  20.037  0.00  0.00    +0.000 A 
ATOM      5  C   UNL     1       2.463   4.230  21.359  0.00  0.00    +0.000 A 
ATOM      6  C   UNL     1       1.644   3.135  21.642  0.00  0.00    +0.000 A 
ATOM      7  C   UNL     1       0.984   2.453  20.608  0.00  0.00    +0.000 A 
ATOM      8  C   UNL     1       1.136   2.859  19.279  0.00  0.00    +0.000 A 
ATOM      9  C   UNL     1       1.955   3.941  19.010  0.00  0.00    +0.000 A 
ATOM     10  C   UNL     1       2.210   4.599  17.688  0.00  0.00    +0.000 C 
ENDBRANCH   1   2
BRANCH   1  11
ATOM     11  C   UNL     1       3.254   7.913  17.916  0.00  0.00    +0.000 C 
BRANCH  11  13
ATOM     12  C   UNL     1       1.655   9.881  18.290  0.00  0.00    +0.000 C 
ATOM     13  C   UNL     1       1.865   8.516  17.650  0.00  0.00    +0.000 C 
ENDBRANCH  11  13
ENDBRANCH   1  11
BRANCH   1  14
ATOM     14  C   UNL     1       4.904   6.812  16.435  0.00  0.00    +0.000 C 
BRANCH  14  15
ATOM     15  C   UNL     1       6.084   6.100  17.050  0.00  0.00    +0.000 A 
ATOM     16  N   UNL     1       6.761   6.536  18.103  0.00  0.00    +0.000 NA
ATOM     17  C   UNL     1       7.683   5.578  18.407  0.00  0.00    +0.000 A 
ATOM     18  C   UNL     1       7.588   4.531  17.533  0.00  0.00    +0.000 A 
ATOM     19  N   UNL     1       6.548   4.848  16.692  0.00  0.00    +0.000 N 
BRANCH  19  20
ATOM     20  C   UNL     1       6.051   3.936  15.677  0.00  0.00    +0.000 C 
BRANCH  20  21
ATOM     21  C   UNL     1       6.534   4.320  14.280  0.00  0.00    +0.000 C 
BRANCH  21  22
ATOM     22  O   UNL     1       5.567   3.928  13.304  0.00  0.00    +0.000 OA
ATOM     23  C   UNL     1       6.183   3.228  12.228  0.00  0.00    +0.000 C 
ENDBRANCH  21  22
ENDBRANCH  20  21
ENDBRANCH  19  20
ENDBRANCH  14  15
ENDBRANCH   1  14
TORSDOF 8
ENDMDL
MODEL 4
REMARK VINA RESULT:      -6.9      0.847      1.567
REMARK  Name = 
REMARK  10 active torsions:
REMARK  status: ('A' for Active; 'I' for Inactive)
REMARK    1  A    between atoms: C_1  and  C_2
REMARK    2  A    between atoms: C_2  and  C_3
REMARK    3  A    between atoms: C_3  and  N_4
REMARK    4  A    between atoms: N_4  and  C_5
REMARK    5  A    between atoms: N_4  and  C_15
REMARK    6  A    between atoms: C_5  and  C_6
REMARK    7  A    between atoms: N_10  and  C_11
REMARK    8  A    between atoms: C_11  and  C_12
REMARK    9  A    between atoms: C_12  and  O_13
REMARK   10  A    between atoms: O_13  and  C_14
REMARK                            x       y       z     vdW  Elec       q    Type
REMARK                         _______ _______ _______ _____ _____    ______ ____
ROOT
ATOM      1  N   UNL     1       3.381   4.649  19.795  0.00  0.00    +0.000 NA
ENDROOT
BRANCH   1   2
ATOM      2  C   UNL     1       2.404   5.719  19.443  0.00  0.00    +0.000 C 
ATOM      3  C   UNL     1       2.065   6.651  20.649  0.00  0.00    +0.000 C 
ATOM      4  C   UNL     1       1.671   7.933  19.983  0.00  0.00    +0.000 A 
ATOM      5  C   UNL     1       1.027   9.024  20.545  0.00  0.00    +0.000 A 
ATOM      6  C   UNL     1       0.813  10.152  19.749  0.00  0.00    +0.000 A 
ATOM      7  C   UNL     1       1.250  10.177  18.416  0.00  0.00    +0.000 A 
ATOM      8  C   UNL     1       1.904   9.073  17.863  0.00  0.00    +0.000 A 
ATOM      9  C   UNL     1       2.104   7.958  18.657  0.00  0.00    +0.000 A 
ATOM     10  C   UNL     1       2.840   6.698  18.312  0.00  0.00    +0.000 C 
ENDBRANCH   1   2
BRANCH   1  11
ATOM     11  C   UNL     1       2.694   3.477  20.368  0.00  0.00    +0.000 C 
BRANCH  11  13
ATOM     12  C   UNL     1       0.761   2.466  19.021  0.00  0.00    +0.000 C 
ATOM     13  C   UNL     1       1.174   3.401  20.149  0.00  0.00    +0.000 C 
ENDBRANCH  11  13
ENDBRANCH   1  11
BRANCH   1  14
ATOM     14  C   UNL     1       4.321   4.310  18.699  0.00  0.00    +0.000 C 
BRANCH  14  15
ATOM     15  C   UNL     1       5.669   4.989  18.708  0.00  0.00    +0.000 A 
ATOM     16  N   UNL     1       6.446   5.107  19.775  0.00  0.00    +0.000 NA
ATOM     17  C   UNL     1       7.606   5.691  19.361  0.00  0.00    +0.000 A 
ATOM     18  C   UNL     1       7.556   5.949  18.019  0.00  0.00    +0.000 A 
ATOM     19  N   UNL     1       6.338   5.471  17.598  0.00  0.00    +0.000 N 
BRANCH  19  20
ATOM     20  C   UNL     1       5.938   5.456  16.203  0.00  0.00    +0.000 C 
BRANCH  20  21
ATOM     21  C   UNL     1       6.456   4.218  15.473  0.00  0.00    +0.000 C 
BRANCH  21  22
ATOM     22  O   UNL     1       6.845   4.562  14.142  0.00  0.00    +0.000 OA
ATOM     23  C   UNL     1       6.187   3.734  13.189  0.00  0.00    +0.000 C 
ENDBRANCH  21  22
ENDBRANCH  20  21
ENDBRANCH  19  20
ENDBRANCH  14  15
ENDBRANCH   1  14
TORSDOF 8
ENDMDL
MODEL 5
REMARK VINA RESULT:      -6.9      0.910      1.125
REMARK  Name = 
REMARK  10 active torsions:
REMARK  status: ('A' for Active; 'I' for Inactive)
REMARK    1  A    between atoms: C_1  and  C_2
REMARK    2  A    between atoms: C_2  and  C_3
REMARK    3  A    between atoms: C_3  and  N_4
REMARK    4  A    between atoms: N_4  and  C_5
REMARK    5  A    between atoms: N_4  and  C_15
REMARK    6  A    between atoms: C_5  and  C_6
REMARK    7  A    between atoms: N_10  and  C_11
REMARK    8  A    between atoms: C_11  and  C_12
REMARK    9  A    between atoms: C_12  and  O_13
REMARK   10  A    between atoms: O_13  and  C_14
REMARK                            x       y       z     vdW  Elec       q    Type
REMARK                         _______ _______ _______ _____ _____    ______ ____
ROOT
ATOM      1  N   UNL     1       3.383   4.085  19.236  0.00  0.00    +0.000 NA
ENDROOT
BRANCH   1   2
ATOM      2  C   UNL     1       3.329   5.570  19.369  0.00  0.00    +0.000 C 
ATOM      3  C   UNL     1       2.914   6.282  18.044  0.00  0.00    +0.000 C 
ATOM      4  C   UNL     1       2.298   7.558  18.527  0.00  0.00    +0.000 A 
ATOM      5  C   UNL     1       1.989   8.690  17.789  0.00  0.00    +0.000 A 
ATOM      6  C   UNL     1       1.352   9.752  18.436  0.00  0.00    +0.000 A 
ATOM      7  C   UNL     1       1.028   9.665  19.799  0.00  0.00    +0.000 A 
ATOM      8  C   UNL     1       1.337   8.515  20.530  0.00  0.00    +0.000 A 
ATOM      9  C   UNL     1       1.974   7.472  19.881  0.00  0.00    +0.000 A 
ATOM     10  C   UNL     1       2.334   6.125  20.431  0.00  0.00    +0.000 C 
ENDBRANCH   1   2
BRANCH   1  11
ATOM     11  C   UNL     1       2.572   3.629  18.092  0.00  0.00    +0.000 C 
BRANCH  11  13
ATOM     12  C   UNL     1       0.875   2.852  19.850  0.00  0.00    +0.000 C 
ATOM     13  C   UNL     1       1.381   2.712  18.422  0.00  0.00    +0.000 C 
ENDBRANCH  11  13
ENDBRANCH   1  11
BRANCH   1  14
ATOM     14  C   UNL     1       4.757   3.530  19.248  0.00  0.00    +0.000 C 
BRANCH  14  15
ATOM     15  C   UNL     1       5.888   4.473  18.914  0.00  0.00    +0.000 A 
ATOM     16  N   UNL     1       6.532   5.220  19.800  0.00  0.00    +0.000 NA
ATOM     17  C   UNL     1       7.535   5.855  19.131  0.00  0.00    +0.000 A 
ATOM     18  C   UNL     1       7.520   5.507  17.809  0.00  0.00    +0.000 A 
ATOM     19  N   UNL     1       6.494   4.602  17.678  0.00  0.00    +0.000 N 
BRANCH  19  20
ATOM     20  C   UNL     1       6.213   3.905  16.437  0.00  0.00    +0.000 C 
BRANCH  20  21
ATOM     21  C   UNL     1       5.123   4.602  15.625  0.00  0.00    +0.000 C 
BRANCH  21  22
ATOM     22  O   UNL     1       5.666   5.740  14.954  0.00  0.00    +0.000 OA
ATOM     23  C   UNL     1       5.082   6.946  15.439  0.00  0.00    +0.000 C 
ENDBRANCH  21  22
ENDBRANCH  20  21
ENDBRANCH  19  20
ENDBRANCH  14  15
ENDBRANCH   1  14
TORSDOF 8
ENDMDL
MODEL 6
REMARK VINA RESULT:      -6.7      2.284      4.935
REMARK  Name = 
REMARK  10 active torsions:
REMARK  status: ('A' for Active; 'I' for Inactive)
REMARK    1  A    between atoms: C_1  and  C_2
REMARK    2  A    between atoms: C_2  and  C_3
REMARK    3  A    between atoms: C_3  and  N_4
REMARK    4  A    between atoms: N_4  and  C_5
REMARK    5  A    between atoms: N_4  and  C_15
REMARK    6  A    between atoms: C_5  and  C_6
REMARK    7  A    between atoms: N_10  and  C_11
REMARK    8  A    between atoms: C_11  and  C_12
REMARK    9  A    between atoms: C_12  and  O_13
REMARK   10  A    between atoms: O_13  and  C_14
REMARK                            x       y       z     vdW  Elec       q    Type
REMARK                         _______ _______ _______ _____ _____    ______ ____
ROOT
ATOM      1  N   UNL     1       3.354   6.966  17.241  0.00  0.00    +0.000 NA
ENDROOT
BRANCH   1   2
ATOM      2  C   UNL     1       3.297   5.697  18.021  0.00  0.00    +0.000 C 
ATOM      3  C   UNL     1       3.222   5.935  19.562  0.00  0.00    +0.000 C 
ATOM      4  C   UNL     1       2.532   4.703  20.059  0.00  0.00    +0.000 A 
ATOM      5  C   UNL     1       2.428   4.251  21.366  0.00  0.00    +0.000 A 
ATOM      6  C   UNL     1       1.674   3.101  21.613  0.00  0.00    +0.000 A 
ATOM      7  C   UNL     1       1.034   2.429  20.561  0.00  0.00    +0.000 A 
ATOM      8  C   UNL     1       1.140   2.899  19.249  0.00  0.00    +0.000 A 
ATOM      9  C   UNL     1       1.894   4.035  19.015  0.00  0.00    +0.000 A 
ATOM     10  C   UNL     1       2.089   4.762  17.718  0.00  0.00    +0.000 C 
ENDBRANCH   1   2
BRANCH   1  11
ATOM     11  C   UNL     1       3.023   8.124  18.093  0.00  0.00    +0.000 C 
BRANCH  11  13
ATOM     12  C   UNL     1       1.054   9.560  18.889  0.00  0.00    +0.000 C 
ATOM     13  C   UNL     1       1.764   8.917  17.706  0.00  0.00    +0.000 C 
ENDBRANCH  11  13
ENDBRANCH   1  11
BRANCH   1  14
ATOM     14  C   UNL     1       4.607   7.139  16.466  0.00  0.00    +0.000 C 
BRANCH  14  15
ATOM     15  C   UNL     1       5.502   5.934  16.318  0.00  0.00    +0.000 A 
ATOM     16  N   UNL     1       5.375   5.012  15.374  0.00  0.00    +0.000 NA
ATOM     17  C   UNL     1       6.418   4.147  15.518  0.00  0.00    +0.000 A 
ATOM     18  C   UNL     1       7.208   4.525  16.568  0.00  0.00    +0.000 A 
ATOM     19  N   UNL     1       6.644   5.680  17.055  0.00  0.00    +0.000 N 
BRANCH  19  20
ATOM     20  C   UNL     1       7.250   6.465  18.116  0.00  0.00    +0.000 C 
BRANCH  20  21
ATOM     21  C   UNL     1       7.767   7.809  17.607  0.00  0.00    +0.000 C 
BRANCH  21  22
ATOM     22  O   UNL     1       8.575   8.432  18.608  0.00  0.00    +0.000 OA
ATOM     23  C   UNL     1       8.668   9.836  18.388  0.00  0.00    +0.000 C 
ENDBRANCH  21  22
ENDBRANCH  20  21
ENDBRANCH  19  20
ENDBRANCH  14  15
ENDBRANCH   1  14
TORSDOF 8
ENDMDL
MODEL 7
REMARK VINA RESULT:      -6.7      2.556      4.962
REMARK  Name = 
REMARK  10 active torsions:
REMARK  status: ('A' for Active; 'I' for Inactive)
REMARK    1  A    between atoms: C_1  and  C_2
REMARK    2  A    between atoms: C_2  and  C_3
REMARK    3  A    between atoms: C_3  and  N_4
REMARK    4  A    between atoms: N_4  and  C_5
REMARK    5  A    between atoms: N_4  and  C_15
REMARK    6  A    between atoms: C_5  and  C_6
REMARK    7  A    between atoms: N_10  and  C_11
REMARK    8  A    between atoms: C_11  and  C_12
REMARK    9  A    between atoms: C_12  and  O_13
REMARK   10  A    between atoms: O_13  and  C_14
REMARK                            x       y       z     vdW  Elec       q    Type
REMARK                         _______ _______ _______ _____ _____    ______ ____
ROOT
ATOM      1  N   UNL     1       5.294   4.975  16.179  0.00  0.00    +0.000 NA
ENDROOT
BRANCH   1   2
ATOM      2  C   UNL     1       4.598   4.374  17.353  0.00  0.00    +0.000 C 
ATOM      3  C   UNL     1       3.836   5.432  18.212  0.00  0.00    +0.000 C 
ATOM      4  C   UNL     1       2.748   4.625  18.851  0.00  0.00    +0.000 A 
ATOM      5  C   UNL     1       1.930   4.984  19.911  0.00  0.00    +0.000 A 
ATOM      6  C   UNL     1       0.928   4.095  20.306  0.00  0.00    +0.000 A 
ATOM      7  C   UNL     1       0.753   2.874  19.637  0.00  0.00    +0.000 A 
ATOM      8  C   UNL     1       1.579   2.527  18.565  0.00  0.00    +0.000 A 
ATOM      9  C   UNL     1       2.574   3.412  18.186  0.00  0.00    +0.000 A 
ATOM     10  C   UNL     1       3.522   3.294  17.031  0.00  0.00    +0.000 C 
ENDBRANCH   1   2
BRANCH   1  11
ATOM     11  C   UNL     1       6.082   6.155  16.580  0.00  0.00    +0.000 C 
BRANCH  11  13
ATOM     12  C   UNL     1       7.841   7.172  18.144  0.00  0.00    +0.000 C 
ATOM     13  C   UNL     1       7.242   5.901  17.558  0.00  0.00    +0.000 C 
ENDBRANCH  11  13
ENDBRANCH   1  11
BRANCH   1  14
ATOM     14  C   UNL     1       6.061   3.996  15.370  0.00  0.00    +0.000 C 
BRANCH  14  15
ATOM     15  C   UNL     1       6.754   4.513  14.133  0.00  0.00    +0.000 A 
ATOM     16  N   UNL     1       7.752   5.386  14.139  0.00  0.00    +0.000 NA
ATOM     17  C   UNL     1       8.165   5.527  12.847  0.00  0.00    +0.000 A 
ATOM     18  C   UNL     1       7.416   4.737  12.019  0.00  0.00    +0.000 A 
ATOM     19  N   UNL     1       6.542   4.067  12.842  0.00  0.00    +0.000 N 
BRANCH  19  20
ATOM     20  C   UNL     1       5.637   3.040  12.359  0.00  0.00    +0.000 C 
BRANCH  20  21
ATOM     21  C   UNL     1       4.330   3.631  11.837  0.00  0.00    +0.000 C 
BRANCH  21  22
ATOM     22  O   UNL     1       3.866   2.877  10.715  0.00  0.00    +0.000 OA
ATOM     23  C   UNL     1       3.088   3.689   9.841  0.00  0.00    +0.000 C 
ENDBRANCH  21  22
ENDBRANCH  20  21
ENDBRANCH  19  20
ENDBRANCH  14  15
ENDBRANCH   1  14
TORSDOF 8
ENDMDL
MODEL 8
REMARK VINA RESULT:      -6.7      1.156      1.259
REMARK  Name = 
REMARK  10 active torsions:
REMARK  status: ('A' for Active; 'I' for Inactive)
REMARK    1  A    between atoms: C_1  and  C_2
REMARK    2  A    between atoms: C_2  and  C_3
REMARK    3  A    between atoms: C_3  and  N_4
REMARK    4  A    between atoms: N_4  and  C_5
REMARK    5  A    between atoms: N_4  and  C_15
REMARK    6  A    between atoms: C_5  and  C_6
REMARK    7  A    between atoms: N_10  and  C_11
REMARK    8  A    between atoms: C_11  and  C_12
REMARK    9  A    between atoms: C_12  and  O_13
REMARK   10  A    between atoms: O_13  and  C_14
REMARK                            x       y       z     vdW  Elec       q    Type
REMARK                         _______ _______ _______ _____ _____    ______ ____
ROOT
ATOM      1  N   UNL     1       3.037   4.903  19.564  0.00  0.00    +0.000 NA
ENDROOT
BRANCH   1   2
ATOM      2  C   UNL     1       2.922   6.389  19.623  0.00  0.00    +0.000 C 
ATOM      3  C   UNL     1       2.425   7.012  18.280  0.00  0.00    +0.000 C 
ATOM      4  C   UNL     1       1.771   8.284  18.722  0.00  0.00    +0.000 A 
ATOM      5  C   UNL     1       1.385   9.361  17.940  0.00  0.00    +0.000 A 
ATOM      6  C   UNL     1       0.726  10.428  18.557  0.00  0.00    +0.000 A 
ATOM      7  C   UNL     1       0.458  10.399  19.934  0.00  0.00    +0.000 A 
ATOM      8  C   UNL     1       0.846   9.304  20.711  0.00  0.00    +0.000 A 
ATOM      9  C   UNL     1       1.504   8.256  20.091  0.00  0.00    +0.000 A 
ATOM     10  C   UNL     1       1.945   6.957  20.695  0.00  0.00    +0.000 C 
ENDBRANCH   1   2
BRANCH   1  11
ATOM     11  C   UNL     1       1.720   4.281  19.338  0.00  0.00    +0.000 C 
BRANCH  11  13
ATOM     12  C   UNL     1       1.716   2.971  21.542  0.00  0.00    +0.000 C 
ATOM     13  C   UNL     1       1.471   2.935  20.040  0.00  0.00    +0.000 C 
ENDBRANCH  11  13
ENDBRANCH   1  11
BRANCH   1  14
ATOM     14  C   UNL     1       4.090   4.418  18.639  0.00  0.00    +0.000 C 
BRANCH  14  15
ATOM     15  C   UNL     1       5.419   5.133  18.665  0.00  0.00    +0.000 A 
ATOM     16  N   UNL     1       6.369   4.924  19.565  0.00  0.00    +0.000 NA
ATOM     17  C   UNL     1       7.440   5.684  19.199  0.00  0.00    +0.000 A 
ATOM     18  C   UNL     1       7.158   6.383  18.058  0.00  0.00    +0.000 A 
ATOM     19  N   UNL     1       5.886   6.006  17.700  0.00  0.00    +0.000 N 
BRANCH  19  20
ATOM     20  C   UNL     1       5.251   6.448  16.472  0.00  0.00    +0.000 C 
BRANCH  20  21
ATOM     21  C   UNL     1       5.867   5.786  15.241  0.00  0.00    +0.000 C 
BRANCH  21  22
ATOM     22  O   UNL     1       5.592   4.384  15.250  0.00  0.00    +0.000 OA
ATOM     23  C   UNL     1       6.189   3.740  14.129  0.00  0.00    +0.000 C 
ENDBRANCH  21  22
ENDBRANCH  20  21
ENDBRANCH  19  20
ENDBRANCH  14  15
ENDBRANCH   1  14
TORSDOF 8
ENDMDL
MODEL 9
REMARK VINA RESULT:      -6.7      3.235      6.913
REMARK  Name = 
REMARK  10 active torsions:
REMARK  status: ('A' for Active; 'I' for Inactive)
REMARK    1  A    between atoms: C_1  and  C_2
REMARK    2  A    between atoms: C_2  and  C_3
REMARK    3  A    between atoms: C_3  and  N_4
REMARK    4  A    between atoms: N_4  and  C_5
REMARK    5  A    between atoms: N_4  and  C_15
REMARK    6  A    between atoms: C_5  and  C_6
REMARK    7  A    between atoms: N_10  and  C_11
REMARK    8  A    between atoms: C_11  and  C_12
REMARK    9  A    between atoms: C_12  and  O_13
REMARK   10  A    between atoms: O_13  and  C_14
REMARK                            x       y       z     vdW  Elec       q    Type
REMARK                         _______ _______ _______ _____ _____    ______ ____
ROOT
ATOM      1  N   UNL     1       2.031   5.250  19.519  0.00  0.00    +0.000 NA
ENDROOT
BRANCH   1   2
ATOM      2  C   UNL     1       3.239   4.576  18.962  0.00  0.00    +0.000 C 
ATOM      3  C   UNL     1       3.260   4.563  17.401  0.00  0.00    +0.000 C 
ATOM      4  C   UNL     1       4.721   4.489  17.085  0.00  0.00    +0.000 A 
ATOM      5  C   UNL     1       5.318   4.190  15.871  0.00  0.00    +0.000 A 
ATOM      6  C   UNL     1       6.711   4.242  15.784  0.00  0.00    +0.000 A 
ATOM      7  C   UNL     1       7.482   4.597  16.902  0.00  0.00    +0.000 A 
ATOM      8  C   UNL     1       6.868   4.903  18.119  0.00  0.00    +0.000 A 
ATOM      9  C   UNL     1       5.488   4.842  18.196  0.00  0.00    +0.000 A 
ATOM     10  C   UNL     1       4.612   5.196  19.359  0.00  0.00    +0.000 C 
ENDBRANCH   1   2
BRANCH   1  11
ATOM     11  C   UNL     1       1.234   4.314  20.334  0.00  0.00    +0.000 C 
BRANCH  11  13
ATOM     12  C   UNL     1       0.664   2.264  18.903  0.00  0.00    +0.000 C 
ATOM     13  C   UNL     1       1.464   2.816  20.074  0.00  0.00    +0.000 C 
ENDBRANCH  11  13
ENDBRANCH   1  11
BRANCH   1  14
ATOM     14  C   UNL     1       2.321   6.533  20.203  0.00  0.00    +0.000 C 
BRANCH  14  15
ATOM     15  C   UNL     1       1.984   7.804  19.462  0.00  0.00    +0.000 A 
ATOM     16  N   UNL     1       2.194   7.999  18.167  0.00  0.00    +0.000 NA
ATOM     17  C   UNL     1       1.676   9.222  17.860  0.00  0.00    +0.000 A 
ATOM     18  C   UNL     1       1.140   9.805  18.974  0.00  0.00    +0.000 A 
ATOM     19  N   UNL     1       1.305   8.889  19.985  0.00  0.00    +0.000 N 
BRANCH  19  20
ATOM     20  C   UNL     1       0.768   9.084  21.319  0.00  0.00    +0.000 C 
BRANCH  20  21
ATOM     21  C   UNL     1      -0.296  10.179  21.352  0.00  0.00    +0.000 C 
BRANCH  21  22
ATOM     22  O   UNL     1       0.018  11.136  22.364  0.00  0.00    +0.000 OA
ATOM     23  C   UNL     1      -1.165  11.735  22.884  0.00  0.00    +0.000 C 
ENDBRANCH  21  22
ENDBRANCH  20  21
ENDBRANCH  19  20
ENDBRANCH  14  15
ENDBRANCH   1  14
TORSDOF 8
ENDMDL
