MODEL 1
REMARK VINA RESULT:      -8.2      0.000      0.000
REMARK  Name = 
REMARK  5 active torsions:
REMARK  status: ('A' for Active; 'I' for Inactive)
REMARK    1  A    between atoms: C_1  and  N_2
REMARK    2  A    between atoms: N_5  and  C_6
REMARK    3  A    between atoms: C_6  and  C_7
REMARK    4  A    between atoms: C_15  and  C_16
REMARK    5  A    between atoms: C_19  and  O_20
REMARK                            x       y       z     vdW  Elec       q    Type
REMARK                         _______ _______ _______ _____ _____    ______ ____
ROOT
ATOM      1  C   UNL     1       0.251  10.168  20.027  0.00  0.00    +0.000 A 
ATOM      2  C   UNL     1       0.240   9.305  21.155  0.00  0.00    +0.000 A 
ATOM      3  C   UNL     1       0.994   8.131  21.189  0.00  0.00    +0.000 A 
ATOM      4  C   UNL     1       1.738   7.836  20.073  0.00  0.00    +0.000 A 
ATOM      5  C   UNL     1       1.740   8.654  18.911  0.00  0.00    +0.000 A 
ATOM      6  C   UNL     1       1.009   9.831  18.892  0.00  0.00    +0.000 A 
ATOM      7  C   UNL     1       2.584   8.064  17.763  0.00  0.00    +0.000 C 
ATOM      8  C   UNL     1       3.070   6.851  18.486  0.00  0.00    +0.000 A 
ATOM      9  C   UNL     1       3.873   5.711  18.303  0.00  0.00    +0.000 A 
ATOM     10  N   UNL     1       3.931   4.993  19.452  0.00  0.00    +0.000 NA
ATOM     11  N   UNL     1       3.127   5.654  20.320  0.00  0.00    +0.000 N 
ATOM     12  C   UNL     1       2.595   6.753  19.761  0.00  0.00    +0.000 A 
ATOM     13  H   UNL     1       3.012   5.286  21.258  0.00  0.00    +0.000 HD
ENDROOT
BRANCH   9  14
ATOM     14  C   UNL     1       4.575   5.279  17.095  0.00  0.00    +0.000 A 
ATOM     15  C   UNL     1       4.761   3.914  16.822  0.00  0.00    +0.000 A 
ATOM     16  C   UNL     1       5.417   3.501  15.664  0.00  0.00    +0.000 A 
ATOM     17  C   UNL     1       5.891   4.459  14.768  0.00  0.00    +0.000 A 
ATOM     18  C   UNL     1       5.710   5.811  15.017  0.00  0.00    +0.000 A 
ATOM     19  C   UNL     1       5.055   6.221  16.174  0.00  0.00    +0.000 A 
BRANCH  17  20
ATOM     20  O   UNL     1       6.536   4.105  13.624  0.00  0.00    +0.000 OA
ATOM     21  H   UNL     1       5.957   4.304  12.869  0.00  0.00    +0.000 HD
ENDBRANCH  17  20
ENDBRANCH   9  14
BRANCH   1  22
ATOM     22  C   UNL     1      -0.552  11.456  20.076  0.00  0.00    +0.000 C 
BRANCH  22  27
ATOM     23  C   UNL     1      -0.142  16.020  18.713  0.00  0.00    +0.000 C 
ATOM     24  N   UNL     1      -0.017  15.114  19.849  0.00  0.00    +0.000 NA
ATOM     25  C   UNL     1       1.048  14.118  19.627  0.00  0.00    +0.000 C 
ATOM     26  C   UNL     1       1.150  13.084  20.775  0.00  0.00    +0.000 C 
ATOM     27  N   UNL     1      -0.119  12.402  21.118  0.00  0.00    +0.000 NA
ATOM     28  C   UNL     1      -1.145  13.454  21.328  0.00  0.00    +0.000 C 
ATOM     29  C   UNL     1      -1.295  14.446  20.149  0.00  0.00    +0.000 C 
ENDBRANCH  22  27
ENDBRANCH   1  22
TORSDOF 4
ENDMDL
MODEL 2
REMARK VINA RESULT:      -8.2      0.394      1.009
REMARK  Name = 
REMARK  5 active torsions:
REMARK  status: ('A' for Active; 'I' for Inactive)
REMARK    1  A    between atoms: C_1  and  N_2
REMARK    2  A    between atoms: N_5  and  C_6
REMARK    3  A    between atoms: C_6  and  C_7
REMARK    4  A    between atoms: C_15  and  C_16
REMARK    5  A    between atoms: C_19  and  O_20
REMARK                            x       y       z     vdW  Elec       q    Type
REMARK                         _______ _______ _______ _____ _____    ______ ____
ROOT
ATOM      1  C   UNL     1       0.359  10.508  19.930  0.00  0.00    +0.000 A 
ATOM      2  C   UNL     1       0.220   9.666  21.067  0.00  0.00    +0.000 A 
ATOM      3  C   UNL     1       0.866   8.432  21.150  0.00  0.00    +0.000 A 
ATOM      4  C   UNL     1       1.633   8.057  20.075  0.00  0.00    +0.000 A 
ATOM      5  C   UNL     1       1.761   8.853  18.905  0.00  0.00    +0.000 A 
ATOM      6  C   UNL     1       1.137  10.089  18.837  0.00  0.00    +0.000 A 
ATOM      7  C   UNL     1       2.603   8.175  17.806  0.00  0.00    +0.000 C 
ATOM      8  C   UNL     1       2.947   6.935  18.565  0.00  0.00    +0.000 A 
ATOM      9  C   UNL     1       3.655   5.727  18.434  0.00  0.00    +0.000 A 
ATOM     10  N   UNL     1       3.596   5.025  19.592  0.00  0.00    +0.000 NA
ATOM     11  N   UNL     1       2.814   5.767  20.413  0.00  0.00    +0.000 N 
ATOM     12  C   UNL     1       2.406   6.899  19.817  0.00  0.00    +0.000 A 
ATOM     13  H   UNL     1       2.624   5.425  21.348  0.00  0.00    +0.000 HD
ENDROOT
BRANCH   9  14
ATOM     14  C   UNL     1       4.373   5.217  17.266  0.00  0.00    +0.000 A 
ATOM     15  C   UNL     1       4.949   6.098  16.337  0.00  0.00    +0.000 A 
ATOM     16  C   UNL     1       5.646   5.614  15.231  0.00  0.00    +0.000 A 
ATOM     17  C   UNL     1       5.770   4.237  15.051  0.00  0.00    +0.000 A 
ATOM     18  C   UNL     1       5.214   3.351  15.961  0.00  0.00    +0.000 A 
ATOM     19  C   UNL     1       4.519   3.838  17.065  0.00  0.00    +0.000 A 
BRANCH  17  20
ATOM     20  O   UNL     1       6.441   3.717  13.988  0.00  0.00    +0.000 OA
ATOM     21  H   UNL     1       6.223   2.773  13.917  0.00  0.00    +0.000 HD
ENDBRANCH  17  20
ENDBRANCH   9  14
BRANCH   1  22
ATOM     22  C   UNL     1      -0.330  11.861  19.926  0.00  0.00    +0.000 C 
BRANCH  22  27
ATOM     23  C   UNL     1      -0.317  16.436  18.539  0.00  0.00    +0.000 C 
ATOM     24  N   UNL     1       0.017  15.537  19.638  0.00  0.00    +0.000 NA
ATOM     25  C   UNL     1       1.075  14.585  19.250  0.00  0.00    +0.000 C 
ATOM     26  C   UNL     1       1.393  13.557  20.363  0.00  0.00    +0.000 C 
ATOM     27  N   UNL     1       0.220  12.825  20.894  0.00  0.00    +0.000 NA
ATOM     28  C   UNL     1      -0.803  13.835  21.265  0.00  0.00    +0.000 C 
ATOM     29  C   UNL     1      -1.172  14.819  20.127  0.00  0.00    +0.000 C 
ENDBRANCH  22  27
ENDBRANCH   1  22
TORSDOF 4
ENDMDL
MODEL 3
REMARK VINA RESULT:      -8.2      4.212      9.822
REMARK  Name = 
REMARK  5 active torsions:
REMARK  status: ('A' for Active; 'I' for Inactive)
REMARK    1  A    between atoms: C_1  and  N_2
REMARK    2  A    between atoms: N_5  and  C_6
REMARK    3  A    between atoms: C_6  and  C_7
REMARK    4  A    between atoms: C_15  and  C_16
REMARK    5  A    between atoms: C_19  and  O_20
REMARK                            x       y       z     vdW  Elec       q    Type
REMARK                         _______ _______ _______ _____ _____    ______ ____
ROOT
ATOM      1  C   UNL     1       2.631   7.266  19.159  0.00  0.00    +0.000 A 
ATOM      2  C   UNL     1       2.714   7.991  17.939  0.00  0.00    +0.000 A 
ATOM      3  C   UNL     1       1.990   9.166  17.733  0.00  0.00    +0.000 A 
ATOM      4  C   UNL     1       1.179   9.586  18.758  0.00  0.00    +0.000 A 
ATOM      5  C   UNL     1       1.039   8.865  19.975  0.00  0.00    +0.000 A 
ATOM      6  C   UNL     1       1.778   7.711  20.184  0.00  0.00    +0.000 A 
ATOM      7  C   UNL     1       0.005   9.493  20.930  0.00  0.00    +0.000 C 
ATOM      8  C   UNL     1      -0.351  10.670  20.082  0.00  0.00    +0.000 A 
ATOM      9  C   UNL     1      -1.179  11.806  20.070  0.00  0.00    +0.000 A 
ATOM     10  N   UNL     1      -0.963  12.528  18.943  0.00  0.00    +0.000 NA
ATOM     11  N   UNL     1      -0.049  11.817  18.240  0.00  0.00    +0.000 N 
ATOM     12  C   UNL     1       0.317  10.702  18.893  0.00  0.00    +0.000 A 
ATOM     13  H   UNL     1       0.261  12.171  17.342  0.00  0.00    +0.000 HD
ENDROOT
BRANCH   9  14
ATOM     14  C   UNL     1      -2.159  12.225  21.071  0.00  0.00    +0.000 A 
ATOM     15  C   UNL     1      -3.395  12.769  20.683  0.00  0.00    +0.000 A 
ATOM     16  C   UNL     1      -4.336  13.154  21.636  0.00  0.00    +0.000 A 
ATOM     17  C   UNL     1      -4.043  12.995  22.990  0.00  0.00    +0.000 A 
ATOM     18  C   UNL     1      -2.831  12.454  23.392  0.00  0.00    +0.000 A 
ATOM     19  C   UNL     1      -1.893  12.069  22.439  0.00  0.00    +0.000 A 
BRANCH  17  20
ATOM     20  O   UNL     1      -4.929  13.356  23.956  0.00  0.00    +0.000 OA
ATOM     21  H   UNL     1      -4.611  13.017  24.809  0.00  0.00    +0.000 HD
ENDBRANCH  17  20
ENDBRANCH   9  14
BRANCH   1  22
ATOM     22  C   UNL     1       3.485   6.023  19.337  0.00  0.00    +0.000 C 
BRANCH  22  27
ATOM     23  C   UNL     1       1.619   2.329  21.730  0.00  0.00    +0.000 C 
ATOM     24  N   UNL     1       1.950   2.825  20.399  0.00  0.00    +0.000 NA
ATOM     25  C   UNL     1       3.404   3.020  20.245  0.00  0.00    +0.000 C 
ATOM     26  C   UNL     1       3.784   3.630  18.873  0.00  0.00    +0.000 C 
ATOM     27  N   UNL     1       3.063   4.874  18.519  0.00  0.00    +0.000 NA
ATOM     28  C   UNL     1       1.613   4.612  18.694  0.00  0.00    +0.000 C 
ATOM     29  C   UNL     1       1.225   4.068  20.091  0.00  0.00    +0.000 C 
ENDBRANCH  22  27
ENDBRANCH   1  22
TORSDOF 4
ENDMDL
MODEL 4
REMARK VINA RESULT:      -8.2      0.837      1.435
REMARK  Name = 
REMARK  5 active torsions:
REMARK  status: ('A' for Active; 'I' for Inactive)
REMARK    1  A    between atoms: C_1  and  N_2
REMARK    2  A    between atoms: N_5  and  C_6
REMARK    3  A    between atoms: C_6  and  C_7
REMARK    4  A    between atoms: C_15  and  C_16
REMARK    5  A    between atoms: C_19  and  O_20
REMARK                            x       y       z     vdW  Elec       q    Type
REMARK                         _______ _______ _______ _____ _____    ______ ____
ROOT
ATOM      1  C   UNL     1       0.022  10.390  19.957  0.00  0.00    +0.000 A 
ATOM      2  C   UNL     1      -0.031   9.547  21.100  0.00  0.00    +0.000 A 
ATOM      3  C   UNL     1       0.720   8.373  21.182  0.00  0.00    +0.000 A 
ATOM      4  C   UNL     1       1.503   8.058  20.099  0.00  0.00    +0.000 A 
ATOM      5  C   UNL     1       1.549   8.855  18.923  0.00  0.00    +0.000 A 
ATOM      6  C   UNL     1       0.820  10.032  18.857  0.00  0.00    +0.000 A 
ATOM      7  C   UNL     1       2.433   8.244  17.818  0.00  0.00    +0.000 C 
ATOM      8  C   UNL     1       2.890   7.042  18.579  0.00  0.00    +0.000 A 
ATOM      9  C   UNL     1       3.698   5.899  18.446  0.00  0.00    +0.000 A 
ATOM     10  N   UNL     1       3.713   5.202  19.609  0.00  0.00    +0.000 NA
ATOM     11  N   UNL     1       2.880   5.880  20.436  0.00  0.00    +0.000 N 
ATOM     12  C   UNL     1       2.369   6.968  19.838  0.00  0.00    +0.000 A 
ATOM     13  H   UNL     1       2.730   5.528  21.375  0.00  0.00    +0.000 HD
ENDROOT
BRANCH   9  14
ATOM     14  C   UNL     1       4.442   5.445  17.273  0.00  0.00    +0.000 A 
ATOM     15  C   UNL     1       4.688   4.078  17.063  0.00  0.00    +0.000 A 
ATOM     16  C   UNL     1       5.384   3.643  15.936  0.00  0.00    +0.000 A 
ATOM     17  C   UNL     1       5.839   4.580  15.009  0.00  0.00    +0.000 A 
ATOM     18  C   UNL     1       5.600   5.933  15.196  0.00  0.00    +0.000 A 
ATOM     19  C   UNL     1       4.904   6.365  16.321  0.00  0.00    +0.000 A 
BRANCH  17  20
ATOM     20  O   UNL     1       6.523   4.204  13.895  0.00  0.00    +0.000 OA
ATOM     21  H   UNL     1       7.475   4.253  14.085  0.00  0.00    +0.000 HD
ENDBRANCH  17  20
ENDBRANCH   9  14
BRANCH   1  22
ATOM     22  C   UNL     1      -0.779  11.679  19.954  0.00  0.00    +0.000 C 
BRANCH  22  27
ATOM     23  C   UNL     1      -2.168  15.212  22.861  0.00  0.00    +0.000 C 
ATOM     24  N   UNL     1      -1.162  14.819  21.880  0.00  0.00    +0.000 NA
ATOM     25  C   UNL     1      -1.764  14.599  20.552  0.00  0.00    +0.000 C 
ATOM     26  C   UNL     1      -0.739  14.095  19.507  0.00  0.00    +0.000 C 
ATOM     27  N   UNL     1       0.039  12.903  19.916  0.00  0.00    +0.000 NA
ATOM     28  C   UNL     1       0.616  13.188  21.253  0.00  0.00    +0.000 C 
ATOM     29  C   UNL     1      -0.420  13.625  22.318  0.00  0.00    +0.000 C 
ENDBRANCH  22  27
ENDBRANCH   1  22
TORSDOF 4
ENDMDL
MODEL 5
REMARK VINA RESULT:      -8.1      1.004      1.711
REMARK  Name = 
REMARK  5 active torsions:
REMARK  status: ('A' for Active; 'I' for Inactive)
REMARK    1  A    between atoms: C_1  and  N_2
REMARK    2  A    between atoms: N_5  and  C_6
REMARK    3  A    between atoms: C_6  and  C_7
REMARK    4  A    between atoms: C_15  and  C_16
REMARK    5  A    between atoms: C_19  and  O_20
REMARK                            x       y       z     vdW  Elec       q    Type
REMARK                         _______ _______ _______ _____ _____    ______ ____
ROOT
ATOM      1  C   UNL     1       0.173  10.861  19.596  0.00  0.00    +0.000 A 
ATOM      2  C   UNL     1       0.010  10.104  20.788  0.00  0.00    +0.000 A 
ATOM      3  C   UNL     1       0.652   8.878  20.972  0.00  0.00    +0.000 A 
ATOM      4  C   UNL     1       1.438   8.426  19.941  0.00  0.00    +0.000 A 
ATOM      5  C   UNL     1       1.590   9.135  18.719  0.00  0.00    +0.000 A 
ATOM      6  C   UNL     1       0.971  10.364  18.551  0.00  0.00    +0.000 A 
ATOM      7  C   UNL     1       2.451   8.378  17.689  0.00  0.00    +0.000 C 
ATOM      8  C   UNL     1       2.777   7.196  18.541  0.00  0.00    +0.000 A 
ATOM      9  C   UNL     1       3.485   5.981  18.512  0.00  0.00    +0.000 A 
ATOM     10  N   UNL     1       3.402   5.365  19.716  0.00  0.00    +0.000 NA
ATOM     11  N   UNL     1       2.606   6.165  20.466  0.00  0.00    +0.000 N 
ATOM     12  C   UNL     1       2.212   7.251  19.782  0.00  0.00    +0.000 A 
ATOM     13  H   UNL     1       2.397   5.891  21.420  0.00  0.00    +0.000 HD
ENDROOT
BRANCH   9  14
ATOM     14  C   UNL     1       4.223   5.387  17.398  0.00  0.00    +0.000 A 
ATOM     15  C   UNL     1       4.892   6.199  16.467  0.00  0.00    +0.000 A 
ATOM     16  C   UNL     1       5.609   5.634  15.413  0.00  0.00    +0.000 A 
ATOM     17  C   UNL     1       5.659   4.246  15.287  0.00  0.00    +0.000 A 
ATOM     18  C   UNL     1       5.011   3.429  16.200  0.00  0.00    +0.000 A 
ATOM     19  C   UNL     1       4.296   3.995  17.252  0.00  0.00    +0.000 A 
BRANCH  17  20
ATOM     20  O   UNL     1       6.346   3.649  14.276  0.00  0.00    +0.000 OA
ATOM     21  H   UNL     1       5.723   3.444  13.558  0.00  0.00    +0.000 HD
ENDBRANCH  17  20
ENDBRANCH   9  14
BRANCH   1  22
ATOM     22  C   UNL     1      -0.511  12.212  19.481  0.00  0.00    +0.000 C 
BRANCH  22  27
ATOM     23  C   UNL     1      -0.877  15.980  22.401  0.00  0.00    +0.000 C 
ATOM     24  N   UNL     1      -0.150  15.442  21.257  0.00  0.00    +0.000 NA
ATOM     25  C   UNL     1      -1.041  15.243  20.099  0.00  0.00    +0.000 C 
ATOM     26  C   UNL     1      -0.320  14.590  18.894  0.00  0.00    +0.000 C 
ATOM     27  N   UNL     1       0.401  13.334  19.202  0.00  0.00    +0.000 NA
ATOM     28  C   UNL     1       1.277  13.599  20.370  0.00  0.00    +0.000 C 
ATOM     29  C   UNL     1       0.542  14.187  21.600  0.00  0.00    +0.000 C 
ENDBRANCH  22  27
ENDBRANCH   1  22
TORSDOF 4
ENDMDL
MODEL 6
REMARK VINA RESULT:      -8.1      1.108      1.732
REMARK  Name = 
REMARK  5 active torsions:
REMARK  status: ('A' for Active; 'I' for Inactive)
REMARK    1  A    between atoms: C_1  and  N_2
REMARK    2  A    between atoms: N_5  and  C_6
REMARK    3  A    between atoms: C_6  and  C_7
REMARK    4  A    between atoms: C_15  and  C_16
REMARK    5  A    between atoms: C_19  and  O_20
REMARK                            x       y       z     vdW  Elec       q    Type
REMARK                         _______ _______ _______ _____ _____    ______ ____
ROOT
ATOM      1  C   UNL     1       0.253   9.970  20.524  0.00  0.00    +0.000 A 
ATOM      2  C   UNL     1       0.191   8.987  21.548  0.00  0.00    +0.000 A 
ATOM      3  C   UNL     1       0.916   7.797  21.467  0.00  0.00    +0.000 A 
ATOM      4  C   UNL     1       1.682   7.609  20.343  0.00  0.00    +0.000 A 
ATOM      5  C   UNL     1       1.734   8.551  19.280  0.00  0.00    +0.000 A 
ATOM      6  C   UNL     1       1.032   9.742  19.376  0.00  0.00    +0.000 A 
ATOM      7  C   UNL     1       2.593   8.071  18.094  0.00  0.00    +0.000 C 
ATOM      8  C   UNL     1       3.031   6.771  18.687  0.00  0.00    +0.000 A 
ATOM      9  C   UNL     1       3.812   5.638  18.397  0.00  0.00    +0.000 A 
ATOM     10  N   UNL     1       3.822   4.796  19.459  0.00  0.00    +0.000 NA
ATOM     11  N   UNL     1       3.012   5.377  20.376  0.00  0.00    +0.000 N 
ATOM     12  C   UNL     1       2.520   6.545  19.932  0.00  0.00    +0.000 A 
ATOM     13  H   UNL     1       2.863   4.910  21.264  0.00  0.00    +0.000 HD
ENDROOT
BRANCH   9  14
ATOM     14  C   UNL     1       4.535   5.325  17.165  0.00  0.00    +0.000 A 
ATOM     15  C   UNL     1       4.916   6.345  16.277  0.00  0.00    +0.000 A 
ATOM     16  C   UNL     1       5.618   6.050  15.110  0.00  0.00    +0.000 A 
ATOM     17  C   UNL     1       5.945   4.725  14.826  0.00  0.00    +0.000 A 
ATOM     18  C   UNL     1       5.584   3.705  15.693  0.00  0.00    +0.000 A 
ATOM     19  C   UNL     1       4.883   4.002  16.858  0.00  0.00    +0.000 A 
BRANCH  17  20
ATOM     20  O   UNL     1       6.630   4.387  13.700  0.00  0.00    +0.000 OA
ATOM     21  H   UNL     1       7.068   5.183  13.355  0.00  0.00    +0.000 HD
ENDBRANCH  17  20
ENDBRANCH   9  14
BRANCH   1  22
ATOM     22  C   UNL     1      -0.520  11.266  20.698  0.00  0.00    +0.000 C 
BRANCH  22  27
ATOM     23  C   UNL     1      -3.351  14.972  21.751  0.00  0.00    +0.000 C 
ATOM     24  N   UNL     1      -2.180  14.221  22.190  0.00  0.00    +0.000 NA
ATOM     25  C   UNL     1      -1.085  14.311  21.207  0.00  0.00    +0.000 C 
ATOM     26  C   UNL     1       0.143  13.453  21.600  0.00  0.00    +0.000 C 
ATOM     27  N   UNL     1      -0.154  12.034  21.901  0.00  0.00    +0.000 NA
ATOM     28  C   UNL     1      -1.259  12.013  22.891  0.00  0.00    +0.000 C 
ATOM     29  C   UNL     1      -2.515  12.814  22.466  0.00  0.00    +0.000 C 
ENDBRANCH  22  27
ENDBRANCH   1  22
TORSDOF 4
ENDMDL
MODEL 7
REMARK VINA RESULT:      -8.1      4.389     10.170
REMARK  Name = 
REMARK  5 active torsions:
REMARK  status: ('A' for Active; 'I' for Inactive)
REMARK    1  A    between atoms: C_1  and  N_2
REMARK    2  A    between atoms: N_5  and  C_6
REMARK    3  A    between atoms: C_6  and  C_7
REMARK    4  A    between atoms: C_15  and  C_16
REMARK    5  A    between atoms: C_19  and  O_20
REMARK                            x       y       z     vdW  Elec       q    Type
REMARK                         _______ _______ _______ _____ _____    ______ ____
ROOT
ATOM      1  C   UNL     1       2.109   7.031  19.733  0.00  0.00    +0.000 A 
ATOM      2  C   UNL     1       2.226   7.767  18.524  0.00  0.00    +0.000 A 
ATOM      3  C   UNL     1       1.738   9.070  18.408  0.00  0.00    +0.000 A 
ATOM      4  C   UNL     1       1.123   9.605  19.512  0.00  0.00    +0.000 A 
ATOM      5  C   UNL     1       0.951   8.883  20.724  0.00  0.00    +0.000 A 
ATOM      6  C   UNL     1       1.459   7.599  20.842  0.00  0.00    +0.000 A 
ATOM      7  C   UNL     1       0.154   9.669  21.784  0.00  0.00    +0.000 C 
ATOM      8  C   UNL     1      -0.032  10.923  20.994  0.00  0.00    +0.000 A 
ATOM      9  C   UNL     1      -0.614  12.201  21.080  0.00  0.00    +0.000 A 
ATOM     10  N   UNL     1      -0.359  12.905  19.950  0.00  0.00    +0.000 NA
ATOM     11  N   UNL     1       0.326  12.052  19.151  0.00  0.00    +0.000 N 
ATOM     12  C   UNL     1       0.519  10.864  19.747  0.00  0.00    +0.000 A 
ATOM     13  H   UNL     1       0.620  12.370  18.234  0.00  0.00    +0.000 HD
ENDROOT
BRANCH   9  14
ATOM     14  C   UNL     1      -1.396  12.770  22.177  0.00  0.00    +0.000 A 
ATOM     15  C   UNL     1      -2.638  12.220  22.534  0.00  0.00    +0.000 A 
ATOM     16  C   UNL     1      -3.377  12.751  23.589  0.00  0.00    +0.000 A 
ATOM     17  C   UNL     1      -2.872  13.842  24.296  0.00  0.00    +0.000 A 
ATOM     18  C   UNL     1      -1.644  14.394  23.963  0.00  0.00    +0.000 A 
ATOM     19  C   UNL     1      -0.908  13.861  22.910  0.00  0.00    +0.000 A 
BRANCH  17  20
ATOM     20  O   UNL     1      -3.556  14.395  25.334  0.00  0.00    +0.000 OA
ATOM     21  H   UNL     1      -4.488  14.492  25.073  0.00  0.00    +0.000 HD
ENDBRANCH  17  20
ENDBRANCH   9  14
BRANCH   1  22
ATOM     22  C   UNL     1       2.709   5.637  19.809  0.00  0.00    +0.000 C 
BRANCH  22  27
ATOM     23  C   UNL     1       3.829   1.204  18.413  0.00  0.00    +0.000 C 
ATOM     24  N   UNL     1       2.844   1.998  19.140  0.00  0.00    +0.000 NA
ATOM     25  C   UNL     1       2.174   2.966  18.252  0.00  0.00    +0.000 C 
ATOM     26  C   UNL     1       1.184   3.886  19.008  0.00  0.00    +0.000 C 
ATOM     27  N   UNL     1       1.751   4.583  20.184  0.00  0.00    +0.000 NA
ATOM     28  C   UNL     1       2.408   3.559  21.033  0.00  0.00    +0.000 C 
ATOM     29  C   UNL     1       3.449   2.685  20.292  0.00  0.00    +0.000 C 
ENDBRANCH  22  27
ENDBRANCH   1  22
TORSDOF 4
ENDMDL
MODEL 8
REMARK VINA RESULT:      -8.1      4.131     10.187
REMARK  Name = 
REMARK  5 active torsions:
REMARK  status: ('A' for Active; 'I' for Inactive)
REMARK    1  A    between atoms: C_1  and  N_2
REMARK    2  A    between atoms: N_5  and  C_6
REMARK    3  A    between atoms: C_6  and  C_7
REMARK    4  A    between atoms: C_15  and  C_16
REMARK    5  A    between atoms: C_19  and  O_20
REMARK                            x       y       z     vdW  Elec       q    Type
REMARK                         _______ _______ _______ _____ _____    ______ ____
ROOT
ATOM      1  C   UNL     1       2.174   7.620  19.253  0.00  0.00    +0.000 A 
ATOM      2  C   UNL     1       1.979   8.303  18.022  0.00  0.00    +0.000 A 
ATOM      3  C   UNL     1       1.287   9.513  17.954  0.00  0.00    +0.000 A 
ATOM      4  C   UNL     1       0.786  10.010  19.132  0.00  0.00    +0.000 A 
ATOM      5  C   UNL     1       0.924   9.334  20.375  0.00  0.00    +0.000 A 
ATOM      6  C   UNL     1       1.634   8.145  20.440  0.00  0.00    +0.000 A 
ATOM      7  C   UNL     1       0.200  10.050  21.532  0.00  0.00    +0.000 C 
ATOM      8  C   UNL     1      -0.300  11.221  20.751  0.00  0.00    +0.000 A 
ATOM      9  C   UNL     1      -1.046  12.404  20.900  0.00  0.00    +0.000 A 
ATOM     10  N   UNL     1      -1.088  13.078  19.724  0.00  0.00    +0.000 NA
ATOM     11  N   UNL     1      -0.420  12.294  18.845  0.00  0.00    +0.000 N 
ATOM     12  C   UNL     1       0.044  11.179  19.431  0.00  0.00    +0.000 A 
ATOM     13  H   UNL     1      -0.331  12.603  17.883  0.00  0.00    +0.000 HD
ENDROOT
BRANCH   9  14
ATOM     14  C   UNL     1      -1.717  12.909  22.097  0.00  0.00    +0.000 A 
ATOM     15  C   UNL     1      -1.105  13.880  22.907  0.00  0.00    +0.000 A 
ATOM     16  C   UNL     1      -1.749  14.374  24.039  0.00  0.00    +0.000 A 
ATOM     17  C   UNL     1      -3.017  13.896  24.368  0.00  0.00    +0.000 A 
ATOM     18  C   UNL     1      -3.640  12.943  23.577  0.00  0.00    +0.000 A 
ATOM     19  C   UNL     1      -2.995  12.452  22.445  0.00  0.00    +0.000 A 
BRANCH  17  20
ATOM     20  O   UNL     1      -3.685  14.348  25.463  0.00  0.00    +0.000 OA
ATOM     21  H   UNL     1      -3.824  15.305  25.367  0.00  0.00    +0.000 HD
ENDBRANCH  17  20
ENDBRANCH   9  14
BRANCH   1  22
ATOM     22  C   UNL     1       2.981   6.334  19.263  0.00  0.00    +0.000 C 
BRANCH  22  27
ATOM     23  C   UNL     1       4.528   1.900  20.158  0.00  0.00    +0.000 C 
ATOM     24  N   UNL     1       3.655   2.693  19.299  0.00  0.00    +0.000 NA
ATOM     25  C   UNL     1       4.427   3.658  18.494  0.00  0.00    +0.000 C 
ATOM     26  C   UNL     1       3.525   4.578  17.635  0.00  0.00    +0.000 C 
ATOM     27  N   UNL     1       2.456   5.280  18.380  0.00  0.00    +0.000 NA
ATOM     28  C   UNL     1       1.719   4.258  19.167  0.00  0.00    +0.000 C 
ATOM     29  C   UNL     1       2.615   3.385  20.079  0.00  0.00    +0.000 C 
ENDBRANCH  22  27
ENDBRANCH   1  22
TORSDOF 4
ENDMDL
MODEL 9
REMARK VINA RESULT:      -8.1      4.111     10.122
REMARK  Name = 
REMARK  5 active torsions:
REMARK  status: ('A' for Active; 'I' for Inactive)
REMARK    1  A    between atoms: C_1  and  N_2
REMARK    2  A    between atoms: N_5  and  C_6
REMARK    3  A    between atoms: C_6  and  C_7
REMARK    4  A    between atoms: C_15  and  C_16
REMARK    5  A    between atoms: C_19  and  O_20
REMARK                            x       y       z     vdW  Elec       q    Type
REMARK                         _______ _______ _______ _____ _____    ______ ____
ROOT
ATOM      1  C   UNL     1       2.292   7.631  19.193  0.00  0.00    +0.000 A 
ATOM      2  C   UNL     1       2.271   8.326  17.954  0.00  0.00    +0.000 A 
ATOM      3  C   UNL     1       1.502   9.476  17.770  0.00  0.00    +0.000 A 
ATOM      4  C   UNL     1       0.750   9.900  18.838  0.00  0.00    +0.000 A 
ATOM      5  C   UNL     1       0.714   9.206  20.079  0.00  0.00    +0.000 A 
ATOM      6  C   UNL     1       1.498   8.079  20.264  0.00  0.00    +0.000 A 
ATOM      7  C   UNL     1      -0.271   9.830  21.087  0.00  0.00    +0.000 C 
ATOM      8  C   UNL     1      -0.717  10.976  20.237  0.00  0.00    +0.000 A 
ATOM      9  C   UNL     1      -1.577  12.088  20.255  0.00  0.00    +0.000 A 
ATOM     10  N   UNL     1      -1.458  12.786  19.099  0.00  0.00    +0.000 NA
ATOM     11  N   UNL     1      -0.574  12.082  18.352  0.00  0.00    +0.000 N 
ATOM     12  C   UNL     1      -0.132  10.995  19.004  0.00  0.00    +0.000 A 
ATOM     13  H   UNL     1      -0.335  12.422  17.427  0.00  0.00    +0.000 HD
ENDROOT
BRANCH   9  14
ATOM     14  C   UNL     1      -2.498  12.506  21.310  0.00  0.00    +0.000 A 
ATOM     15  C   UNL     1      -3.821  12.868  21.007  0.00  0.00    +0.000 A 
ATOM     16  C   UNL     1      -4.705  13.252  22.014  0.00  0.00    +0.000 A 
ATOM     17  C   UNL     1      -4.266  13.274  23.337  0.00  0.00    +0.000 A 
ATOM     18  C   UNL     1      -2.966  12.913  23.657  0.00  0.00    +0.000 A 
ATOM     19  C   UNL     1      -2.085  12.530  22.650  0.00  0.00    +0.000 A 
BRANCH  17  20
ATOM     20  O   UNL     1      -5.091  13.641  24.354  0.00  0.00    +0.000 OA
ATOM     21  H   UNL     1      -5.677  12.893  24.561  0.00  0.00    +0.000 HD
ENDBRANCH  17  20
ENDBRANCH   9  14
BRANCH   1  22
ATOM     22  C   UNL     1       3.191   6.416  19.343  0.00  0.00    +0.000 C 
BRANCH  22  27
ATOM     23  C   UNL     1       4.482   1.859  19.993  0.00  0.00    +0.000 C 
ATOM     24  N   UNL     1       4.118   2.849  18.985  0.00  0.00    +0.000 NA
ATOM     25  C   UNL     1       5.094   3.953  18.940  0.00  0.00    +0.000 C 
ATOM     26  C   UNL     1       4.692   5.067  17.943  0.00  0.00    +0.000 C 
ATOM     27  N   UNL     1       3.325   5.605  18.121  0.00  0.00    +0.000 NA
ATOM     28  C   UNL     1       2.395   4.449  18.158  0.00  0.00    +0.000 C 
ATOM     29  C   UNL     1       2.758   3.368  19.206  0.00  0.00    +0.000 C 
ENDBRANCH  22  27
ENDBRANCH   1  22
TORSDOF 4
ENDMDL
