MODEL 1
REMARK VINA RESULT:      -7.6      0.000      0.000
REMARK  Name = 
REMARK  5 active torsions:
REMARK  status: ('A' for Active; 'I' for Inactive)
REMARK    1  A    between atoms: S_2  and  C_4
REMARK    2  A    between atoms: S_2  and  C_14
REMARK    3  A    between atoms: C_4  and  C_5
REMARK    4  A    between atoms: C_5  and  C_8
REMARK    5  A    between atoms: N_6  and  O_7
REMARK                            x       y       z     vdW  Elec       q    Type
REMARK                         _______ _______ _______ _____ _____    ______ ____
ROOT
ATOM      1  C   UNL     1       6.740   4.462  17.442  0.00  0.00    +0.000 C 
ENDROOT
BRANCH   1   3
ATOM      2  O   UNL     1       5.248   6.370  16.357  0.00  0.00    +0.000 OA
ATOM      3  S   UNL     1       6.571   5.783  16.265  0.00  0.00    +0.000 S 
ATOM      4  O   UNL     1       7.757   6.618  16.344  0.00  0.00    +0.000 OA
BRANCH   3   5
ATOM      5  C   UNL     1       6.639   4.959  14.677  0.00  0.00    +0.000 A 
ATOM      6  C   UNL     1       5.641   4.041  14.335  0.00  0.00    +0.000 A 
ATOM      7  C   UNL     1       5.634   3.475  13.057  0.00  0.00    +0.000 A 
ATOM      8  C   UNL     1       6.609   3.831  12.126  0.00  0.00    +0.000 A 
ATOM      9  C   UNL     1       7.601   4.751  12.469  0.00  0.00    +0.000 A 
ATOM     10  C   UNL     1       7.616   5.323  13.745  0.00  0.00    +0.000 A 
ENDBRANCH   3   5
ENDBRANCH   1   3
BRANCH   1  11
ATOM     11  C   UNL     1       5.726   4.639  18.559  0.00  0.00    +0.000 C 
ATOM     12  N   UNL     1       6.034   5.109  19.736  0.00  0.00    +0.000 NA
BRANCH  11  13
ATOM     13  C   UNL     1       4.290   4.251  18.330  0.00  0.00    +0.000 A 
ATOM     14  C   UNL     1       3.282   5.087  18.841  0.00  0.00    +0.000 A 
ATOM     15  C   UNL     1       1.933   4.772  18.664  0.00  0.00    +0.000 A 
ATOM     16  C   UNL     1       1.574   3.622  17.968  0.00  0.00    +0.000 A 
ATOM     17  C   UNL     1       2.563   2.797  17.438  0.00  0.00    +0.000 A 
ATOM     18  C   UNL     1       3.917   3.109  17.613  0.00  0.00    +0.000 A 
ENDBRANCH  11  13
BRANCH  12  19
ATOM     19  O   UNL     1       7.390   5.417  19.851  0.00  0.00    +0.000 OA
ATOM     20  H   UNL     1       7.795   4.532  19.932  0.00  0.00    +0.000 HD
ENDBRANCH  12  19
ENDBRANCH   1  11
TORSDOF 5
ENDMDL
MODEL 2
REMARK VINA RESULT:      -7.6      0.544      1.200
REMARK  Name = 
REMARK  5 active torsions:
REMARK  status: ('A' for Active; 'I' for Inactive)
REMARK    1  A    between atoms: S_2  and  C_4
REMARK    2  A    between atoms: S_2  and  C_14
REMARK    3  A    between atoms: C_4  and  C_5
REMARK    4  A    between atoms: C_5  and  C_8
REMARK    5  A    between atoms: N_6  and  O_7
REMARK                            x       y       z     vdW  Elec       q    Type
REMARK                         _______ _______ _______ _____ _____    ______ ____
ROOT
ATOM      1  C   UNL     1       6.322   4.278  17.269  0.00  0.00    +0.000 C 
ENDROOT
BRANCH   1   3
ATOM      2  O   UNL     1       5.089   6.328  16.117  0.00  0.00    +0.000 OA
ATOM      3  S   UNL     1       6.381   5.671  16.166  0.00  0.00    +0.000 S 
ATOM      4  O   UNL     1       7.585   6.430  16.457  0.00  0.00    +0.000 OA
BRANCH   3   5
ATOM      5  C   UNL     1       6.626   4.935  14.552  0.00  0.00    +0.000 A 
ATOM      6  C   UNL     1       5.738   3.954  14.102  0.00  0.00    +0.000 A 
ATOM      7  C   UNL     1       5.864   3.453  12.804  0.00  0.00    +0.000 A 
ATOM      8  C   UNL     1       6.863   3.937  11.959  0.00  0.00    +0.000 A 
ATOM      9  C   UNL     1       7.744   4.920  12.409  0.00  0.00    +0.000 A 
ATOM     10  C   UNL     1       7.626   5.427  13.707  0.00  0.00    +0.000 A 
ENDBRANCH   3   5
ENDBRANCH   1   3
BRANCH   1  11
ATOM     11  C   UNL     1       5.651   4.684  18.570  0.00  0.00    +0.000 C 
ATOM     12  N   UNL     1       6.302   5.187  19.583  0.00  0.00    +0.000 NA
BRANCH  11  13
ATOM     13  C   UNL     1       4.167   4.499  18.733  0.00  0.00    +0.000 A 
ATOM     14  C   UNL     1       3.489   3.687  17.808  0.00  0.00    +0.000 A 
ATOM     15  C   UNL     1       2.110   3.486  17.907  0.00  0.00    +0.000 A 
ATOM     16  C   UNL     1       1.393   4.088  18.937  0.00  0.00    +0.000 A 
ATOM     17  C   UNL     1       2.058   4.877  19.874  0.00  0.00    +0.000 A 
ATOM     18  C   UNL     1       3.440   5.080  19.778  0.00  0.00    +0.000 A 
ENDBRANCH  11  13
BRANCH  12  19
ATOM     19  O   UNL     1       7.671   5.297  19.337  0.00  0.00    +0.000 OA
ATOM     20  H   UNL     1       7.702   5.328  18.362  0.00  0.00    +0.000 HD
ENDBRANCH  12  19
ENDBRANCH   1  11
TORSDOF 5
ENDMDL
MODEL 3
REMARK VINA RESULT:      -7.5      0.547      1.627
REMARK  Name = 
REMARK  5 active torsions:
REMARK  status: ('A' for Active; 'I' for Inactive)
REMARK    1  A    between atoms: S_2  and  C_4
REMARK    2  A    between atoms: S_2  and  C_14
REMARK    3  A    between atoms: C_4  and  C_5
REMARK    4  A    between atoms: C_5  and  C_8
REMARK    5  A    between atoms: N_6  and  O_7
REMARK                            x       y       z     vdW  Elec       q    Type
REMARK                         _______ _______ _______ _____ _____    ______ ____
ROOT
ATOM      1  C   UNL     1       6.282   4.292  17.242  0.00  0.00    +0.000 C 
ENDROOT
BRANCH   1   3
ATOM      2  O   UNL     1       5.091   6.438  16.231  0.00  0.00    +0.000 OA
ATOM      3  S   UNL     1       6.348   5.716  16.181  0.00  0.00    +0.000 S 
ATOM      4  O   UNL     1       7.605   6.404  16.419  0.00  0.00    +0.000 OA
BRANCH   3   5
ATOM      5  C   UNL     1       6.457   5.023  14.533  0.00  0.00    +0.000 A 
ATOM      6  C   UNL     1       7.542   5.356  13.717  0.00  0.00    +0.000 A 
ATOM      7  C   UNL     1       7.684   4.737  12.473  0.00  0.00    +0.000 A 
ATOM      8  C   UNL     1       6.756   3.785  12.052  0.00  0.00    +0.000 A 
ATOM      9  C   UNL     1       5.677   3.451  12.871  0.00  0.00    +0.000 A 
ATOM     10  C   UNL     1       5.526   4.065  14.118  0.00  0.00    +0.000 A 
ENDBRANCH   3   5
ENDBRANCH   1   3
BRANCH   1  11
ATOM     11  C   UNL     1       5.621   4.665  18.558  0.00  0.00    +0.000 C 
ATOM     12  N   UNL     1       6.278   5.150  19.576  0.00  0.00    +0.000 NA
BRANCH  11  13
ATOM     13  C   UNL     1       4.139   4.467  18.730  0.00  0.00    +0.000 A 
ATOM     14  C   UNL     1       3.453   3.692  17.780  0.00  0.00    +0.000 A 
ATOM     15  C   UNL     1       2.077   3.481  17.887  0.00  0.00    +0.000 A 
ATOM     16  C   UNL     1       1.370   4.036  18.949  0.00  0.00    +0.000 A 
ATOM     17  C   UNL     1       2.042   4.788  19.910  0.00  0.00    +0.000 A 
ATOM     18  C   UNL     1       3.422   5.001  19.807  0.00  0.00    +0.000 A 
ENDBRANCH  11  13
BRANCH  12  19
ATOM     19  O   UNL     1       7.644   5.274  19.321  0.00  0.00    +0.000 OA
ATOM     20  H   UNL     1       7.675   6.069  18.754  0.00  0.00    +0.000 HD
ENDBRANCH  12  19
ENDBRANCH   1  11
TORSDOF 5
ENDMDL
MODEL 4
REMARK VINA RESULT:      -7.5      0.124      1.118
REMARK  Name = 
REMARK  5 active torsions:
REMARK  status: ('A' for Active; 'I' for Inactive)
REMARK    1  A    between atoms: S_2  and  C_4
REMARK    2  A    between atoms: S_2  and  C_14
REMARK    3  A    between atoms: C_4  and  C_5
REMARK    4  A    between atoms: C_5  and  C_8
REMARK    5  A    between atoms: N_6  and  O_7
REMARK                            x       y       z     vdW  Elec       q    Type
REMARK                         _______ _______ _______ _____ _____    ______ ____
ROOT
ATOM      1  C   UNL     1       6.628   4.418  17.363  0.00  0.00    +0.000 C 
ENDROOT
BRANCH   1   3
ATOM      2  O   UNL     1       5.223   6.457  16.407  0.00  0.00    +0.000 OA
ATOM      3  S   UNL     1       6.515   5.813  16.268  0.00  0.00    +0.000 S 
ATOM      4  O   UNL     1       7.741   6.583  16.384  0.00  0.00    +0.000 OA
BRANCH   3   5
ATOM      5  C   UNL     1       6.531   5.082  14.633  0.00  0.00    +0.000 A 
ATOM      6  C   UNL     1       7.549   5.423  13.737  0.00  0.00    +0.000 A 
ATOM      7  C   UNL     1       7.623   4.777  12.501  0.00  0.00    +0.000 A 
ATOM      8  C   UNL     1       6.695   3.791  12.166  0.00  0.00    +0.000 A 
ATOM      9  C   UNL     1       5.684   3.450  13.064  0.00  0.00    +0.000 A 
ATOM     10  C   UNL     1       5.601   4.090  14.305  0.00  0.00    +0.000 A 
ENDBRANCH   3   5
ENDBRANCH   1   3
BRANCH   1  11
ATOM     11  C   UNL     1       5.640   4.582  18.504  0.00  0.00    +0.000 C 
ATOM     12  N   UNL     1       5.970   5.060  19.672  0.00  0.00    +0.000 NA
BRANCH  11  13
ATOM     13  C   UNL     1       4.204   4.171  18.313  0.00  0.00    +0.000 A 
ATOM     14  C   UNL     1       3.195   5.047  18.746  0.00  0.00    +0.000 A 
ATOM     15  C   UNL     1       1.846   4.714  18.599  0.00  0.00    +0.000 A 
ATOM     16  C   UNL     1       1.490   3.505  18.010  0.00  0.00    +0.000 A 
ATOM     17  C   UNL     1       2.482   2.638  17.556  0.00  0.00    +0.000 A 
ATOM     18  C   UNL     1       3.835   2.968  17.702  0.00  0.00    +0.000 A 
ENDBRANCH  11  13
BRANCH  12  19
ATOM     19  O   UNL     1       7.323   5.390  19.753  0.00  0.00    +0.000 OA
ATOM     20  H   UNL     1       7.628   5.224  18.840  0.00  0.00    +0.000 HD
ENDBRANCH  12  19
ENDBRANCH   1  11
TORSDOF 5
ENDMDL
MODEL 5
REMARK VINA RESULT:      -7.4      3.592      4.966
REMARK  Name = 
REMARK  5 active torsions:
REMARK  status: ('A' for Active; 'I' for Inactive)
REMARK    1  A    between atoms: S_2  and  C_4
REMARK    2  A    between atoms: S_2  and  C_14
REMARK    3  A    between atoms: C_4  and  C_5
REMARK    4  A    between atoms: C_5  and  C_8
REMARK    5  A    between atoms: N_6  and  O_7
REMARK                            x       y       z     vdW  Elec       q    Type
REMARK                         _______ _______ _______ _____ _____    ______ ____
ROOT
ATOM      1  C   UNL     1       2.631   2.897  20.224  0.00  0.00    +0.000 C 
ENDROOT
BRANCH   1   3
ATOM      2  O   UNL     1       5.104   1.956  20.440  0.00  0.00    +0.000 OA
ATOM      3  S   UNL     1       4.091   2.248  19.444  0.00  0.00    +0.000 S 
ATOM      4  O   UNL     1       3.682   1.235  18.486  0.00  0.00    +0.000 OA
BRANCH   3   5
ATOM      5  C   UNL     1       4.718   3.625  18.487  0.00  0.00    +0.000 A 
ATOM      6  C   UNL     1       5.408   4.654  19.133  0.00  0.00    +0.000 A 
ATOM      7  C   UNL     1       5.988   5.676  18.377  0.00  0.00    +0.000 A 
ATOM      8  C   UNL     1       5.888   5.663  16.986  0.00  0.00    +0.000 A 
ATOM      9  C   UNL     1       5.203   4.632  16.343  0.00  0.00    +0.000 A 
ATOM     10  C   UNL     1       4.620   3.604  17.091  0.00  0.00    +0.000 A 
ENDBRANCH   3   5
ENDBRANCH   1   3
BRANCH   1  11
ATOM     11  C   UNL     1       1.821   3.690  19.214  0.00  0.00    +0.000 C 
ATOM     12  N   UNL     1       1.015   3.136  18.350  0.00  0.00    +0.000 NA
BRANCH  11  13
ATOM     13  C   UNL     1       1.940   5.190  19.175  0.00  0.00    +0.000 A 
ATOM     14  C   UNL     1       1.853   5.899  20.386  0.00  0.00    +0.000 A 
ATOM     15  C   UNL     1       1.950   7.292  20.408  0.00  0.00    +0.000 A 
ATOM     16  C   UNL     1       2.143   7.994  19.222  0.00  0.00    +0.000 A 
ATOM     17  C   UNL     1       2.253   7.301  18.018  0.00  0.00    +0.000 A 
ATOM     18  C   UNL     1       2.156   5.904  17.991  0.00  0.00    +0.000 A 
ENDBRANCH  11  13
BRANCH  12  19
ATOM     19  O   UNL     1       0.994   1.745  18.455  0.00  0.00    +0.000 OA
ATOM     20  H   UNL     1       1.126   1.468  17.528  0.00  0.00    +0.000 HD
ENDBRANCH  12  19
ENDBRANCH   1  11
TORSDOF 5
ENDMDL
MODEL 6
REMARK VINA RESULT:      -7.4      3.601      5.039
REMARK  Name = 
REMARK  5 active torsions:
REMARK  status: ('A' for Active; 'I' for Inactive)
REMARK    1  A    between atoms: S_2  and  C_4
REMARK    2  A    between atoms: S_2  and  C_14
REMARK    3  A    between atoms: C_4  and  C_5
REMARK    4  A    between atoms: C_5  and  C_8
REMARK    5  A    between atoms: N_6  and  O_7
REMARK                            x       y       z     vdW  Elec       q    Type
REMARK                         _______ _______ _______ _____ _____    ______ ____
ROOT
ATOM      1  C   UNL     1       2.565   2.847  20.160  0.00  0.00    +0.000 C 
ENDROOT
BRANCH   1   3
ATOM      2  O   UNL     1       5.047   1.949  20.440  0.00  0.00    +0.000 OA
ATOM      3  S   UNL     1       4.054   2.222  19.419  0.00  0.00    +0.000 S 
ATOM      4  O   UNL     1       3.688   1.201  18.453  0.00  0.00    +0.000 OA
BRANCH   3   5
ATOM      5  C   UNL     1       4.682   3.609  18.475  0.00  0.00    +0.000 A 
ATOM      6  C   UNL     1       5.372   4.632  19.131  0.00  0.00    +0.000 A 
ATOM      7  C   UNL     1       5.953   5.661  18.385  0.00  0.00    +0.000 A 
ATOM      8  C   UNL     1       5.853   5.662  16.994  0.00  0.00    +0.000 A 
ATOM      9  C   UNL     1       5.167   4.637  16.342  0.00  0.00    +0.000 A 
ATOM     10  C   UNL     1       4.583   3.602  17.080  0.00  0.00    +0.000 A 
ENDBRANCH   3   5
ENDBRANCH   1   3
BRANCH   1  11
ATOM     11  C   UNL     1       1.812   3.701  19.154  0.00  0.00    +0.000 C 
ATOM     12  N   UNL     1       1.057   3.199  18.215  0.00  0.00    +0.000 NA
BRANCH  11  13
ATOM     13  C   UNL     1       1.930   5.200  19.212  0.00  0.00    +0.000 A 
ATOM     14  C   UNL     1       2.119   5.902  18.010  0.00  0.00    +0.000 A 
ATOM     15  C   UNL     1       2.242   7.293  18.005  0.00  0.00    +0.000 A 
ATOM     16  C   UNL     1       2.170   8.001  19.201  0.00  0.00    +0.000 A 
ATOM     17  C   UNL     1       1.960   7.318  20.397  0.00  0.00    +0.000 A 
ATOM     18  C   UNL     1       1.836   5.923  20.406  0.00  0.00    +0.000 A 
ENDBRANCH  11  13
BRANCH  12  19
ATOM     19  O   UNL     1       1.032   1.805  18.236  0.00  0.00    +0.000 OA
ATOM     20  H   UNL     1       1.894   1.591  18.641  0.00  0.00    +0.000 HD
ENDBRANCH  12  19
ENDBRANCH   1  11
TORSDOF 5
ENDMDL
MODEL 7
REMARK VINA RESULT:      -7.4      3.646      4.968
REMARK  Name = 
REMARK  5 active torsions:
REMARK  status: ('A' for Active; 'I' for Inactive)
REMARK    1  A    between atoms: S_2  and  C_4
REMARK    2  A    between atoms: S_2  and  C_14
REMARK    3  A    between atoms: C_4  and  C_5
REMARK    4  A    between atoms: C_5  and  C_8
REMARK    5  A    between atoms: N_6  and  O_7
REMARK                            x       y       z     vdW  Elec       q    Type
REMARK                         _______ _______ _______ _____ _____    ______ ____
ROOT
ATOM      1  C   UNL     1       2.579   2.904  20.147  0.00  0.00    +0.000 C 
ENDROOT
BRANCH   1   3
ATOM      2  O   UNL     1       5.011   1.881  20.440  0.00  0.00    +0.000 OA
ATOM      3  S   UNL     1       4.047   2.222  19.412  0.00  0.00    +0.000 S 
ATOM      4  O   UNL     1       3.644   1.239  18.421  0.00  0.00    +0.000 OA
BRANCH   3   5
ATOM      5  C   UNL     1       4.754   3.593  18.503  0.00  0.00    +0.000 A 
ATOM      6  C   UNL     1       4.632   3.632  17.111  0.00  0.00    +0.000 A 
ATOM      7  C   UNL     1       5.090   4.750  16.410  0.00  0.00    +0.000 A 
ATOM      8  C   UNL     1       5.656   5.826  17.095  0.00  0.00    +0.000 A 
ATOM      9  C   UNL     1       5.771   5.786  18.485  0.00  0.00    +0.000 A 
ATOM     10  C   UNL     1       5.315   4.672  19.196  0.00  0.00    +0.000 A 
ENDBRANCH   3   5
ENDBRANCH   1   3
BRANCH   1  11
ATOM     11  C   UNL     1       1.813   3.706  19.109  0.00  0.00    +0.000 C 
ATOM     12  N   UNL     1       1.037   3.159  18.214  0.00  0.00    +0.000 NA
BRANCH  11  13
ATOM     13  C   UNL     1       1.942   5.205  19.079  0.00  0.00    +0.000 A 
ATOM     14  C   UNL     1       1.954   5.899  20.301  0.00  0.00    +0.000 A 
ATOM     15  C   UNL     1       2.065   7.291  20.333  0.00  0.00    +0.000 A 
ATOM     16  C   UNL     1       2.174   8.006  19.144  0.00  0.00    +0.000 A 
ATOM     17  C   UNL     1       2.186   7.327  17.927  0.00  0.00    +0.000 A 
ATOM     18  C   UNL     1       2.075   5.932  17.891  0.00  0.00    +0.000 A 
ENDBRANCH  11  13
BRANCH  12  19
ATOM     19  O   UNL     1       1.003   1.768  18.314  0.00  0.00    +0.000 OA
ATOM     20  H   UNL     1       0.180   1.619  18.820  0.00  0.00    +0.000 HD
ENDBRANCH  12  19
ENDBRANCH   1  11
TORSDOF 5
ENDMDL
MODEL 8
REMARK VINA RESULT:      -7.4      3.660      5.038
REMARK  Name = 
REMARK  5 active torsions:
REMARK  status: ('A' for Active; 'I' for Inactive)
REMARK    1  A    between atoms: S_2  and  C_4
REMARK    2  A    between atoms: S_2  and  C_14
REMARK    3  A    between atoms: C_4  and  C_5
REMARK    4  A    between atoms: C_5  and  C_8
REMARK    5  A    between atoms: N_6  and  O_7
REMARK                            x       y       z     vdW  Elec       q    Type
REMARK                         _______ _______ _______ _____ _____    ______ ____
ROOT
ATOM      1  C   UNL     1       2.586   2.869  20.167  0.00  0.00    +0.000 C 
ENDROOT
BRANCH   1   3
ATOM      2  O   UNL     1       5.029   1.868  20.445  0.00  0.00    +0.000 OA
ATOM      3  S   UNL     1       4.057   2.205  19.422  0.00  0.00    +0.000 S 
ATOM      4  O   UNL     1       3.660   1.224  18.428  0.00  0.00    +0.000 OA
BRANCH   3   5
ATOM      5  C   UNL     1       4.747   3.589  18.519  0.00  0.00    +0.000 A 
ATOM      6  C   UNL     1       4.613   3.638  17.129  0.00  0.00    +0.000 A 
ATOM      7  C   UNL     1       5.058   4.765  16.433  0.00  0.00    +0.000 A 
ATOM      8  C   UNL     1       5.622   5.839  17.122  0.00  0.00    +0.000 A 
ATOM      9  C   UNL     1       5.749   5.789  18.510  0.00  0.00    +0.000 A 
ATOM     10  C   UNL     1       5.307   4.665  19.216  0.00  0.00    +0.000 A 
ENDBRANCH   3   5
ENDBRANCH   1   3
BRANCH   1  11
ATOM     11  C   UNL     1       1.823   3.695  19.145  0.00  0.00    +0.000 C 
ATOM     12  N   UNL     1       1.055   3.168  18.231  0.00  0.00    +0.000 NA
BRANCH  11  13
ATOM     13  C   UNL     1       1.948   5.195  19.155  0.00  0.00    +0.000 A 
ATOM     14  C   UNL     1       2.044   5.865  17.924  0.00  0.00    +0.000 A 
ATOM     15  C   UNL     1       2.169   7.256  17.875  0.00  0.00    +0.000 A 
ATOM     16  C   UNL     1       2.191   7.993  19.054  0.00  0.00    +0.000 A 
ATOM     17  C   UNL     1       2.074   7.342  20.280  0.00  0.00    +0.000 A 
ATOM     18  C   UNL     1       1.949   5.948  20.334  0.00  0.00    +0.000 A 
ENDBRANCH  11  13
BRANCH  12  19
ATOM     19  O   UNL     1       1.025   1.775  18.295  0.00  0.00    +0.000 OA
ATOM     20  H   UNL     1       1.270   1.523  17.384  0.00  0.00    +0.000 HD
ENDBRANCH  12  19
ENDBRANCH   1  11
TORSDOF 5
ENDMDL
MODEL 9
REMARK VINA RESULT:      -7.3      1.386      5.433
REMARK  Name = 
REMARK  5 active torsions:
REMARK  status: ('A' for Active; 'I' for Inactive)
REMARK    1  A    between atoms: S_2  and  C_4
REMARK    2  A    between atoms: S_2  and  C_14
REMARK    3  A    between atoms: C_4  and  C_5
REMARK    4  A    between atoms: C_5  and  C_8
REMARK    5  A    between atoms: N_6  and  O_7
REMARK                            x       y       z     vdW  Elec       q    Type
REMARK                         _______ _______ _______ _____ _____    ______ ____
ROOT
ATOM      1  C   UNL     1       6.287   4.569  17.246  0.00  0.00    +0.000 C 
ENDROOT
BRANCH   1   3
ATOM      2  O   UNL     1       5.174   5.858  19.282  0.00  0.00    +0.000 OA
ATOM      3  S   UNL     1       4.907   5.471  17.910  0.00  0.00    +0.000 S 
ATOM      4  O   UNL     1       4.497   6.461  16.930  0.00  0.00    +0.000 OA
BRANCH   3   5
ATOM      5  C   UNL     1       3.593   4.258  17.983  0.00  0.00    +0.000 A 
ATOM      6  C   UNL     1       3.891   2.907  17.779  0.00  0.00    +0.000 A 
ATOM      7  C   UNL     1       2.888   1.948  17.938  0.00  0.00    +0.000 A 
ATOM      8  C   UNL     1       1.600   2.334  18.309  0.00  0.00    +0.000 A 
ATOM      9  C   UNL     1       1.306   3.682  18.516  0.00  0.00    +0.000 A 
ATOM     10  C   UNL     1       2.304   4.649  18.360  0.00  0.00    +0.000 A 
ENDBRANCH   3   5
ENDBRANCH   1   3
BRANCH   1  11
ATOM     11  C   UNL     1       6.917   5.360  16.112  0.00  0.00    +0.000 C 
ATOM     12  N   UNL     1       7.555   6.483  16.292  0.00  0.00    +0.000 NA
BRANCH  11  13
ATOM     13  C   UNL     1       6.807   4.854  14.699  0.00  0.00    +0.000 A 
ATOM     14  C   UNL     1       5.763   3.967  14.386  0.00  0.00    +0.000 A 
ATOM     15  C   UNL     1       5.617   3.460  13.092  0.00  0.00    +0.000 A 
ATOM     16  C   UNL     1       6.509   3.840  12.094  0.00  0.00    +0.000 A 
ATOM     17  C   UNL     1       7.535   4.736  12.386  0.00  0.00    +0.000 A 
ATOM     18  C   UNL     1       7.684   5.246  13.681  0.00  0.00    +0.000 A 
ENDBRANCH  11  13
BRANCH  12  19
ATOM     19  O   UNL     1       7.582   6.874  17.631  0.00  0.00    +0.000 OA
ATOM     20  H   UNL     1       8.504   7.180  17.737  0.00  0.00    +0.000 HD
ENDBRANCH  12  19
ENDBRANCH   1  11
TORSDOF 5
ENDMDL
