MODEL 1
REMARK VINA RESULT:      -7.3      0.000      0.000
REMARK  Name = 
REMARK  8 active torsions:
REMARK  status: ('A' for Active; 'I' for Inactive)
REMARK    1  A    between atoms: C_1  and  C_2
REMARK    2  A    between atoms: C_2  and  C_3
REMARK    3  A    between atoms: C_3  and  C_4
REMARK    4  A    between atoms: C_4  and  C_5
REMARK    5  A    between atoms: C_5  and  C_6
REMARK    6  A    between atoms: C_9  and  C_10
REMARK    7  A    between atoms: C_16  and  O_17
REMARK    8  A    between atoms: O_17  and  C_18
REMARK                            x       y       z     vdW  Elec       q    Type
REMARK                         _______ _______ _______ _____ _____    ______ ____
ROOT
ATOM      1  C   UNL     1       3.046   5.487  19.881  0.00  0.00    +0.000 A 
ATOM      2  C   UNL     1       4.026   4.808  19.155  0.00  0.00    +0.000 A 
ATOM      3  C   UNL     1       4.594   5.354  18.010  0.00  0.00    +0.000 A 
ATOM      4  C   UNL     1       4.219   6.601  17.513  0.00  0.00    +0.000 A 
ATOM      5  C   UNL     1       4.797   7.211  16.270  0.00  0.00    +0.000 C 
ATOM      6  C   UNL     1       3.242   7.300  18.244  0.00  0.00    +0.000 A 
ATOM      7  C   UNL     1       2.675   6.760  19.413  0.00  0.00    +0.000 A 
ATOM      8  O   UNL     1       1.744   7.460  20.148  0.00  0.00    +0.000 OA
ATOM      9  C   UNL     1       1.345   8.663  19.636  0.00  0.00    +0.000 A 
ATOM     10  C   UNL     1       0.354   9.366  20.323  0.00  0.00    +0.000 A 
ATOM     11  C   UNL     1      -0.084  10.609  19.856  0.00  0.00    +0.000 A 
ATOM     12  C   UNL     1       0.477  11.137  18.690  0.00  0.00    +0.000 A 
ATOM     13  C   UNL     1       1.464  10.427  18.000  0.00  0.00    +0.000 A 
ATOM     14  C   UNL     1       1.895   9.191  18.477  0.00  0.00    +0.000 A 
ATOM     15  O   UNL     1       2.864   8.536  17.766  0.00  0.00    +0.000 OA
ATOM     16  C   UNL     1       5.589   4.398  17.504  0.00  0.00    +0.000 C 
ATOM     17  O   UNL     1       6.292   4.503  16.520  0.00  0.00    +0.000 OA
ATOM     18  O   UNL     1       5.595   3.334  18.359  0.00  0.00    +0.000 OA
ATOM     19  C   UNL     1       4.626   3.480  19.409  0.00  0.00    +0.000 C 
ENDROOT
BRANCH  11  20
ATOM     20  O   UNL     1      -1.055  11.201  20.617  0.00  0.00    +0.000 OA
ATOM     21  C   UNL     1      -1.935  12.100  19.954  0.00  0.00    +0.000 C 
ENDBRANCH  11  20
BRANCH   1  22
ATOM     22  C   UNL     1       2.424   4.885  21.120  0.00  0.00    +0.000 C 
BRANCH  22  23
ATOM     23  C   UNL     1       1.162   4.073  20.814  0.00  0.00    +0.000 C 
BRANCH  23  24
ATOM     24  C   UNL     1       1.411   2.572  20.960  0.00  0.00    +0.000 C 
BRANCH  24  26
ATOM     25  C   UNL     1       0.918   2.770  18.499  0.00  0.00    +0.000 C 
ATOM     26  C   UNL     1       1.531   1.909  19.589  0.00  0.00    +0.000 C 
ENDBRANCH  24  26
ENDBRANCH  23  24
ENDBRANCH  22  23
ENDBRANCH   1  22
TORSDOF 5
ENDMDL
MODEL 2
REMARK VINA RESULT:      -7.2      1.702      4.187
REMARK  Name = 
REMARK  8 active torsions:
REMARK  status: ('A' for Active; 'I' for Inactive)
REMARK    1  A    between atoms: C_1  and  C_2
REMARK    2  A    between atoms: C_2  and  C_3
REMARK    3  A    between atoms: C_3  and  C_4
REMARK    4  A    between atoms: C_4  and  C_5
REMARK    5  A    between atoms: C_5  and  C_6
REMARK    6  A    between atoms: C_9  and  C_10
REMARK    7  A    between atoms: C_16  and  O_17
REMARK    8  A    between atoms: O_17  and  C_18
REMARK                            x       y       z     vdW  Elec       q    Type
REMARK                         _______ _______ _______ _____ _____    ______ ____
ROOT
ATOM      1  C   UNL     1       3.890   6.130  17.392  0.00  0.00    +0.000 A 
ATOM      2  C   UNL     1       3.892   4.799  17.815  0.00  0.00    +0.000 A 
ATOM      3  C   UNL     1       3.132   4.377  18.899  0.00  0.00    +0.000 A 
ATOM      4  C   UNL     1       2.331   5.251  19.633  0.00  0.00    +0.000 A 
ATOM      5  C   UNL     1       1.514   4.834  20.821  0.00  0.00    +0.000 C 
ATOM      6  C   UNL     1       2.311   6.591  19.209  0.00  0.00    +0.000 A 
ATOM      7  C   UNL     1       3.064   7.021  18.101  0.00  0.00    +0.000 A 
ATOM      8  O   UNL     1       3.016   8.326  17.664  0.00  0.00    +0.000 OA
ATOM      9  C   UNL     1       2.266   9.190  18.410  0.00  0.00    +0.000 A 
ATOM     10  C   UNL     1       2.250  10.534  18.031  0.00  0.00    +0.000 A 
ATOM     11  C   UNL     1       1.488  11.462  18.748  0.00  0.00    +0.000 A 
ATOM     12  C   UNL     1       0.747  11.031  19.851  0.00  0.00    +0.000 A 
ATOM     13  C   UNL     1       0.771   9.686  20.233  0.00  0.00    +0.000 A 
ATOM     14  C   UNL     1       1.531   8.770  19.510  0.00  0.00    +0.000 A 
ATOM     15  O   UNL     1       1.519   7.465  19.923  0.00  0.00    +0.000 OA
ATOM     16  C   UNL     1       3.351   2.934  19.065  0.00  0.00    +0.000 C 
ATOM     17  O   UNL     1       2.873   2.199  19.905  0.00  0.00    +0.000 OA
ATOM     18  O   UNL     1       4.209   2.542  18.079  0.00  0.00    +0.000 OA
ATOM     19  C   UNL     1       4.633   3.644  17.262  0.00  0.00    +0.000 C 
ENDROOT
BRANCH  11  20
ATOM     20  O   UNL     1       1.552  12.745  18.276  0.00  0.00    +0.000 OA
ATOM     21  C   UNL     1       2.683  13.517  18.660  0.00  0.00    +0.000 C 
ENDBRANCH  11  20
BRANCH   1  22
ATOM     22  C   UNL     1       4.725   6.586  16.218  0.00  0.00    +0.000 C 
BRANCH  22  23
ATOM     23  C   UNL     1       6.225   6.364  16.436  0.00  0.00    +0.000 C 
BRANCH  23  24
ATOM     24  C   UNL     1       6.821   7.424  17.362  0.00  0.00    +0.000 C 
BRANCH  24  26
ATOM     25  C   UNL     1       7.654   5.279  18.382  0.00  0.00    +0.000 C 
ATOM     26  C   UNL     1       7.795   6.789  18.353  0.00  0.00    +0.000 C 
ENDBRANCH  24  26
ENDBRANCH  23  24
ENDBRANCH  22  23
ENDBRANCH   1  22
TORSDOF 5
ENDMDL
MODEL 3
REMARK VINA RESULT:      -7.0      1.546      4.037
REMARK  Name = 
REMARK  8 active torsions:
REMARK  status: ('A' for Active; 'I' for Inactive)
REMARK    1  A    between atoms: C_1  and  C_2
REMARK    2  A    between atoms: C_2  and  C_3
REMARK    3  A    between atoms: C_3  and  C_4
REMARK    4  A    between atoms: C_4  and  C_5
REMARK    5  A    between atoms: C_5  and  C_6
REMARK    6  A    between atoms: C_9  and  C_10
REMARK    7  A    between atoms: C_16  and  O_17
REMARK    8  A    between atoms: O_17  and  C_18
REMARK                            x       y       z     vdW  Elec       q    Type
REMARK                         _______ _______ _______ _____ _____    ______ ____
ROOT
ATOM      1  C   UNL     1       3.501   6.195  17.790  0.00  0.00    +0.000 A 
ATOM      2  C   UNL     1       3.751   4.832  17.960  0.00  0.00    +0.000 A 
ATOM      3  C   UNL     1       3.257   4.131  19.055  0.00  0.00    +0.000 A 
ATOM      4  C   UNL     1       2.493   4.742  20.048  0.00  0.00    +0.000 A 
ATOM      5  C   UNL     1       1.961   4.021  21.251  0.00  0.00    +0.000 C 
ATOM      6  C   UNL     1       2.224   6.112  19.879  0.00  0.00    +0.000 A 
ATOM      7  C   UNL     1       2.706   6.823  18.765  0.00  0.00    +0.000 A 
ATOM      8  O   UNL     1       2.413   8.156  18.583  0.00  0.00    +0.000 OA
ATOM      9  C   UNL     1       1.701   8.763  19.579  0.00  0.00    +0.000 A 
ATOM     10  C   UNL     1       1.445  10.131  19.454  0.00  0.00    +0.000 A 
ATOM     11  C   UNL     1       0.709  10.803  20.435  0.00  0.00    +0.000 A 
ATOM     12  C   UNL     1       0.237  10.094  21.543  0.00  0.00    +0.000 A 
ATOM     13  C   UNL     1       0.503   8.727  21.668  0.00  0.00    +0.000 A 
ATOM     14  C   UNL     1       1.235   8.066  20.684  0.00  0.00    +0.000 A 
ATOM     15  O   UNL     1       1.466   6.728  20.852  0.00  0.00    +0.000 OA
ATOM     16  C   UNL     1       3.687   2.733  18.922  0.00  0.00    +0.000 C 
ATOM     17  O   UNL     1       3.465   1.809  19.679  0.00  0.00    +0.000 OA
ATOM     18  O   UNL     1       4.400   2.640  17.762  0.00  0.00    +0.000 OA
ATOM     19  C   UNL     1       4.526   3.908  17.102  0.00  0.00    +0.000 C 
ENDROOT
BRANCH  11  20
ATOM     20  O   UNL     1       0.520  12.138  20.198  0.00  0.00    +0.000 OA
ATOM     21  C   UNL     1       1.585  13.011  20.552  0.00  0.00    +0.000 C 
ENDBRANCH  11  20
BRANCH   1  22
ATOM     22  C   UNL     1       4.049   6.954  16.604  0.00  0.00    +0.000 C 
BRANCH  22  23
ATOM     23  C   UNL     1       5.519   6.632  16.320  0.00  0.00    +0.000 C 
BRANCH  23  24
ATOM     24  C   UNL     1       6.440   7.232  17.382  0.00  0.00    +0.000 C 
BRANCH  24  26
ATOM     25  C   UNL     1       7.171   5.649  19.199  0.00  0.00    +0.000 C 
ATOM     26  C   UNL     1       7.488   6.213  17.826  0.00  0.00    +0.000 C 
ENDBRANCH  24  26
ENDBRANCH  23  24
ENDBRANCH  22  23
ENDBRANCH   1  22
TORSDOF 5
ENDMDL
MODEL 4
REMARK VINA RESULT:      -7.0      1.300      1.557
REMARK  Name = 
REMARK  8 active torsions:
REMARK  status: ('A' for Active; 'I' for Inactive)
REMARK    1  A    between atoms: C_1  and  C_2
REMARK    2  A    between atoms: C_2  and  C_3
REMARK    3  A    between atoms: C_3  and  C_4
REMARK    4  A    between atoms: C_4  and  C_5
REMARK    5  A    between atoms: C_5  and  C_6
REMARK    6  A    between atoms: C_9  and  C_10
REMARK    7  A    between atoms: C_16  and  O_17
REMARK    8  A    between atoms: O_17  and  C_18
REMARK                            x       y       z     vdW  Elec       q    Type
REMARK                         _______ _______ _______ _____ _____    ______ ____
ROOT
ATOM      1  C   UNL     1       2.786   5.251  20.235  0.00  0.00    +0.000 A 
ATOM      2  C   UNL     1       3.591   4.821  19.178  0.00  0.00    +0.000 A 
ATOM      3  C   UNL     1       3.852   5.635  18.082  0.00  0.00    +0.000 A 
ATOM      4  C   UNL     1       3.324   6.921  17.965  0.00  0.00    +0.000 A 
ATOM      5  C   UNL     1       3.569   7.818  16.788  0.00  0.00    +0.000 C 
ATOM      6  C   UNL     1       2.522   7.369  19.030  0.00  0.00    +0.000 A 
ATOM      7  C   UNL     1       2.268   6.557  20.150  0.00  0.00    +0.000 A 
ATOM      8  O   UNL     1       1.512   7.009  21.208  0.00  0.00    +0.000 OA
ATOM      9  C   UNL     1       0.960   8.252  21.072  0.00  0.00    +0.000 A 
ATOM     10  C   UNL     1       0.133   8.712  22.100  0.00  0.00    +0.000 A 
ATOM     11  C   UNL     1      -0.448   9.982  22.024  0.00  0.00    +0.000 A 
ATOM     12  C   UNL     1      -0.198  10.783  20.906  0.00  0.00    +0.000 A 
ATOM     13  C   UNL     1       0.623  10.315  19.875  0.00  0.00    +0.000 A 
ATOM     14  C   UNL     1       1.200   9.050  19.963  0.00  0.00    +0.000 A 
ATOM     15  O   UNL     1       1.997   8.640  18.929  0.00  0.00    +0.000 OA
ATOM     16  C   UNL     1       4.733   4.892  17.172  0.00  0.00    +0.000 C 
ATOM     17  O   UNL     1       5.179   5.255  16.102  0.00  0.00    +0.000 OA
ATOM     18  O   UNL     1       4.980   3.681  17.751  0.00  0.00    +0.000 OA
ATOM     19  C   UNL     1       4.282   3.526  18.996  0.00  0.00    +0.000 C 
ENDROOT
BRANCH  11  20
ATOM     20  O   UNL     1      -1.233  10.320  23.093  0.00  0.00    +0.000 OA
ATOM     21  C   UNL     1      -1.769  11.637  23.106  0.00  0.00    +0.000 C 
ENDBRANCH  11  20
BRANCH   1  22
ATOM     22  C   UNL     1       2.497   4.359  21.419  0.00  0.00    +0.000 C 
BRANCH  22  23
ATOM     23  C   UNL     1       1.521   3.227  21.085  0.00  0.00    +0.000 C 
BRANCH  23  24
ATOM     24  C   UNL     1       0.536   3.639  19.992  0.00  0.00    +0.000 C 
BRANCH  24  26
ATOM     25  C   UNL     1       1.687   1.638  18.988  0.00  0.00    +0.000 C 
ATOM     26  C   UNL     1       0.548   2.629  18.845  0.00  0.00    +0.000 C 
ENDBRANCH  24  26
ENDBRANCH  23  24
ENDBRANCH  22  23
ENDBRANCH   1  22
TORSDOF 5
ENDMDL
MODEL 5
REMARK VINA RESULT:      -6.9      1.743      4.138
REMARK  Name = 
REMARK  8 active torsions:
REMARK  status: ('A' for Active; 'I' for Inactive)
REMARK    1  A    between atoms: C_1  and  C_2
REMARK    2  A    between atoms: C_2  and  C_3
REMARK    3  A    between atoms: C_3  and  C_4
REMARK    4  A    between atoms: C_4  and  C_5
REMARK    5  A    between atoms: C_5  and  C_6
REMARK    6  A    between atoms: C_9  and  C_10
REMARK    7  A    between atoms: C_16  and  O_17
REMARK    8  A    between atoms: O_17  and  C_18
REMARK                            x       y       z     vdW  Elec       q    Type
REMARK                         _______ _______ _______ _____ _____    ______ ____
ROOT
ATOM      1  C   UNL     1       3.814   6.084  17.557  0.00  0.00    +0.000 A 
ATOM      2  C   UNL     1       3.826   4.762  18.005  0.00  0.00    +0.000 A 
ATOM      3  C   UNL     1       3.071   4.356  19.099  0.00  0.00    +0.000 A 
ATOM      4  C   UNL     1       2.265   5.238  19.818  0.00  0.00    +0.000 A 
ATOM      5  C   UNL     1       1.453   4.838  21.015  0.00  0.00    +0.000 C 
ATOM      6  C   UNL     1       2.235   6.570  19.368  0.00  0.00    +0.000 A 
ATOM      7  C   UNL     1       2.984   6.984  18.250  0.00  0.00    +0.000 A 
ATOM      8  O   UNL     1       2.927   8.279  17.788  0.00  0.00    +0.000 OA
ATOM      9  C   UNL     1       2.172   9.153  18.520  0.00  0.00    +0.000 A 
ATOM     10  C   UNL     1       2.147  10.489  18.115  0.00  0.00    +0.000 A 
ATOM     11  C   UNL     1       1.380  11.425  18.815  0.00  0.00    +0.000 A 
ATOM     12  C   UNL     1       0.643  11.011  19.928  0.00  0.00    +0.000 A 
ATOM     13  C   UNL     1       0.677   9.673  20.336  0.00  0.00    +0.000 A 
ATOM     14  C   UNL     1       1.442   8.749  19.628  0.00  0.00    +0.000 A 
ATOM     15  O   UNL     1       1.439   7.452  20.067  0.00  0.00    +0.000 OA
ATOM     16  C   UNL     1       3.299   2.918  19.292  0.00  0.00    +0.000 C 
ATOM     17  O   UNL     1       2.827   2.195  20.147  0.00  0.00    +0.000 OA
ATOM     18  O   UNL     1       4.158   2.512  18.312  0.00  0.00    +0.000 OA
ATOM     19  C   UNL     1       4.574   3.601  17.474  0.00  0.00    +0.000 C 
ENDROOT
BRANCH  11  20
ATOM     20  O   UNL     1       1.434  12.700  18.319  0.00  0.00    +0.000 OA
ATOM     21  C   UNL     1       2.716  13.311  18.253  0.00  0.00    +0.000 C 
ENDBRANCH  11  20
BRANCH   1  22
ATOM     22  C   UNL     1       4.644   6.523  16.373  0.00  0.00    +0.000 C 
BRANCH  22  23
ATOM     23  C   UNL     1       6.147   6.526  16.672  0.00  0.00    +0.000 C 
BRANCH  23  24
ATOM     24  C   UNL     1       6.896   5.527  15.790  0.00  0.00    +0.000 C 
BRANCH  24  26
ATOM     25  C   UNL     1       6.247   3.754  14.125  0.00  0.00    +0.000 C 
ATOM     26  C   UNL     1       6.089   5.207  14.532  0.00  0.00    +0.000 C 
ENDBRANCH  24  26
ENDBRANCH  23  24
ENDBRANCH  22  23
ENDBRANCH   1  22
TORSDOF 5
ENDMDL
MODEL 6
REMARK VINA RESULT:      -6.7      1.709      4.112
REMARK  Name = 
REMARK  8 active torsions:
REMARK  status: ('A' for Active; 'I' for Inactive)
REMARK    1  A    between atoms: C_1  and  C_2
REMARK    2  A    between atoms: C_2  and  C_3
REMARK    3  A    between atoms: C_3  and  C_4
REMARK    4  A    between atoms: C_4  and  C_5
REMARK    5  A    between atoms: C_5  and  C_6
REMARK    6  A    between atoms: C_9  and  C_10
REMARK    7  A    between atoms: C_16  and  O_17
REMARK    8  A    between atoms: O_17  and  C_18
REMARK                            x       y       z     vdW  Elec       q    Type
REMARK                         _______ _______ _______ _____ _____    ______ ____
ROOT
ATOM      1  C   UNL     1       3.405   5.843  17.948  0.00  0.00    +0.000 A 
ATOM      2  C   UNL     1       3.481   4.452  18.036  0.00  0.00    +0.000 A 
ATOM      3  C   UNL     1       2.801   3.746  19.021  0.00  0.00    +0.000 A 
ATOM      4  C   UNL     1       2.013   4.377  19.982  0.00  0.00    +0.000 A 
ATOM      5  C   UNL     1       1.282   3.647  21.070  0.00  0.00    +0.000 C 
ATOM      6  C   UNL     1       1.919   5.777  19.895  0.00  0.00    +0.000 A 
ATOM      7  C   UNL     1       2.590   6.497  18.890  0.00  0.00    +0.000 A 
ATOM      8  O   UNL     1       2.470   7.864  18.784  0.00  0.00    +0.000 OA
ATOM      9  C   UNL     1       1.733   8.486  19.753  0.00  0.00    +0.000 A 
ATOM     10  C   UNL     1       1.646   9.879  19.711  0.00  0.00    +0.000 A 
ATOM     11  C   UNL     1       0.894  10.570  20.667  0.00  0.00    +0.000 A 
ATOM     12  C   UNL     1       0.234   9.851  21.667  0.00  0.00    +0.000 A 
ATOM     13  C   UNL     1       0.330   8.456  21.711  0.00  0.00    +0.000 A 
ATOM     14  C   UNL     1       1.079   7.779  20.752  0.00  0.00    +0.000 A 
ATOM     15  O   UNL     1       1.139   6.414  20.837  0.00  0.00    +0.000 OA
ATOM     16  C   UNL     1       3.082   2.317  18.822  0.00  0.00    +0.000 C 
ATOM     17  O   UNL     1       2.680   1.379  19.480  0.00  0.00    +0.000 OA
ATOM     18  O   UNL     1       3.895   2.216  17.730  0.00  0.00    +0.000 OA
ATOM     19  C   UNL     1       4.230   3.501  17.185  0.00  0.00    +0.000 C 
ENDROOT
BRANCH  11  20
ATOM     20  O   UNL     1       0.883  11.930  20.518  0.00  0.00    +0.000 OA
ATOM     21  C   UNL     1       1.041  12.434  19.198  0.00  0.00    +0.000 C 
ENDBRANCH  11  20
BRANCH   1  22
ATOM     22  C   UNL     1       4.154   6.608  16.881  0.00  0.00    +0.000 C 
BRANCH  22  23
ATOM     23  C   UNL     1       5.625   6.840  17.239  0.00  0.00    +0.000 C 
BRANCH  23  24
ATOM     24  C   UNL     1       6.557   6.052  16.319  0.00  0.00    +0.000 C 
BRANCH  24  26
ATOM     25  C   UNL     1       6.535   4.426  14.398  0.00  0.00    +0.000 C 
ATOM     26  C   UNL     1       5.811   5.575  15.074  0.00  0.00    +0.000 C 
ENDBRANCH  24  26
ENDBRANCH  23  24
ENDBRANCH  22  23
ENDBRANCH   1  22
TORSDOF 5
ENDMDL
MODEL 7
REMARK VINA RESULT:      -6.6      1.451      6.063
REMARK  Name = 
REMARK  8 active torsions:
REMARK  status: ('A' for Active; 'I' for Inactive)
REMARK    1  A    between atoms: C_1  and  C_2
REMARK    2  A    between atoms: C_2  and  C_3
REMARK    3  A    between atoms: C_3  and  C_4
REMARK    4  A    between atoms: C_4  and  C_5
REMARK    5  A    between atoms: C_5  and  C_6
REMARK    6  A    between atoms: C_9  and  C_10
REMARK    7  A    between atoms: C_16  and  O_17
REMARK    8  A    between atoms: O_17  and  C_18
REMARK                            x       y       z     vdW  Elec       q    Type
REMARK                         _______ _______ _______ _____ _____    ______ ____
ROOT
ATOM      1  C   UNL     1       1.854   6.659  20.277  0.00  0.00    +0.000 A 
ATOM      2  C   UNL     1       1.141   7.780  20.704  0.00  0.00    +0.000 A 
ATOM      3  C   UNL     1       1.148   8.967  19.981  0.00  0.00    +0.000 A 
ATOM      4  C   UNL     1       1.869   9.115  18.797  0.00  0.00    +0.000 A 
ATOM      5  C   UNL     1       1.915  10.387  18.002  0.00  0.00    +0.000 C 
ATOM      6  C   UNL     1       2.581   7.988  18.351  0.00  0.00    +0.000 A 
ATOM      7  C   UNL     1       2.564   6.777  19.068  0.00  0.00    +0.000 A 
ATOM      8  O   UNL     1       3.232   5.664  18.613  0.00  0.00    +0.000 OA
ATOM      9  C   UNL     1       3.974   5.822  17.476  0.00  0.00    +0.000 A 
ATOM     10  C   UNL     1       4.716   4.729  17.024  0.00  0.00    +0.000 A 
ATOM     11  C   UNL     1       5.482   4.827  15.858  0.00  0.00    +0.000 A 
ATOM     12  C   UNL     1       5.500   6.033  15.152  0.00  0.00    +0.000 A 
ATOM     13  C   UNL     1       4.762   7.129  15.612  0.00  0.00    +0.000 A 
ATOM     14  C   UNL     1       4.001   7.018  16.773  0.00  0.00    +0.000 A 
ATOM     15  O   UNL     1       3.295   8.118  17.179  0.00  0.00    +0.000 OA
ATOM     16  C   UNL     1       0.296   9.929  20.692  0.00  0.00    +0.000 C 
ATOM     17  O   UNL     1       0.052  11.079  20.386  0.00  0.00    +0.000 OA
ATOM     18  O   UNL     1      -0.200   9.291  21.792  0.00  0.00    +0.000 OA
ATOM     19  C   UNL     1       0.298   7.950  21.908  0.00  0.00    +0.000 C 
ENDROOT
BRANCH  11  20
ATOM     20  O   UNL     1       6.160   3.689  15.518  0.00  0.00    +0.000 OA
ATOM     21  C   UNL     1       6.396   3.470  14.132  0.00  0.00    +0.000 C 
ENDBRANCH  11  20
BRANCH   1  22
ATOM     22  C   UNL     1       1.852   5.373  21.071  0.00  0.00    +0.000 C 
BRANCH  22  23
ATOM     23  C   UNL     1       0.908   4.317  20.488  0.00  0.00    +0.000 C 
BRANCH  23  24
ATOM     24  C   UNL     1       1.376   2.901  20.820  0.00  0.00    +0.000 C 
BRANCH  24  26
ATOM     25  C   UNL     1       1.330   2.911  18.303  0.00  0.00    +0.000 C 
ATOM     26  C   UNL     1       1.729   2.136  19.545  0.00  0.00    +0.000 C 
ENDBRANCH  24  26
ENDBRANCH  23  24
ENDBRANCH  22  23
ENDBRANCH   1  22
TORSDOF 5
ENDMDL
MODEL 8
REMARK VINA RESULT:      -6.4      2.284      8.122
REMARK  Name = 
REMARK  8 active torsions:
REMARK  status: ('A' for Active; 'I' for Inactive)
REMARK    1  A    between atoms: C_1  and  C_2
REMARK    2  A    between atoms: C_2  and  C_3
REMARK    3  A    between atoms: C_3  and  C_4
REMARK    4  A    between atoms: C_4  and  C_5
REMARK    5  A    between atoms: C_5  and  C_6
REMARK    6  A    between atoms: C_9  and  C_10
REMARK    7  A    between atoms: C_16  and  O_17
REMARK    8  A    between atoms: O_17  and  C_18
REMARK                            x       y       z     vdW  Elec       q    Type
REMARK                         _______ _______ _______ _____ _____    ______ ____
ROOT
ATOM      1  C   UNL     1      -0.470  11.290  19.363  0.00  0.00    +0.000 A 
ATOM      2  C   UNL     1      -1.200  11.840  20.418  0.00  0.00    +0.000 A 
ATOM      3  C   UNL     1      -1.182  11.276  21.689  0.00  0.00    +0.000 A 
ATOM      4  C   UNL     1      -0.446  10.129  21.985  0.00  0.00    +0.000 A 
ATOM      5  C   UNL     1      -0.419   9.483  23.339  0.00  0.00    +0.000 C 
ATOM      6  C   UNL     1       0.303   9.574  20.932  0.00  0.00    +0.000 A 
ATOM      7  C   UNL     1       0.303  10.150  19.648  0.00  0.00    +0.000 A 
ATOM      8  O   UNL     1       1.063   9.627  18.627  0.00  0.00    +0.000 OA
ATOM      9  C   UNL     1       1.749   8.478  18.907  0.00  0.00    +0.000 A 
ATOM     10  C   UNL     1       2.477   7.886  17.873  0.00  0.00    +0.000 A 
ATOM     11  C   UNL     1       3.210   6.718  18.104  0.00  0.00    +0.000 A 
ATOM     12  C   UNL     1       3.203   6.146  19.379  0.00  0.00    +0.000 A 
ATOM     13  C   UNL     1       2.465   6.737  20.410  0.00  0.00    +0.000 A 
ATOM     14  C   UNL     1       1.741   7.902  20.169  0.00  0.00    +0.000 A 
ATOM     15  O   UNL     1       1.038   8.442  21.213  0.00  0.00    +0.000 OA
ATOM     16  C   UNL     1      -2.034  12.099  22.556  0.00  0.00    +0.000 C 
ATOM     17  O   UNL     1      -2.283  11.933  23.733  0.00  0.00    +0.000 OA
ATOM     18  O   UNL     1      -2.515  13.124  21.793  0.00  0.00    +0.000 OA
ATOM     19  C   UNL     1      -2.076  13.032  20.429  0.00  0.00    +0.000 C 
ENDROOT
BRANCH  11  20
ATOM     20  O   UNL     1       3.885   6.237  17.015  0.00  0.00    +0.000 OA
ATOM     21  C   UNL     1       4.805   5.177  17.243  0.00  0.00    +0.000 C 
ENDBRANCH  11  20
BRANCH   1  22
ATOM     22  C   UNL     1      -0.501  11.901  17.981  0.00  0.00    +0.000 C 
BRANCH  22  23
ATOM     23  C   UNL     1      -1.832  11.670  17.260  0.00  0.00    +0.000 C 
BRANCH  23  24
ATOM     24  C   UNL     1      -2.059  10.189  16.960  0.00  0.00    +0.000 C 
BRANCH  24  26
ATOM     25  C   UNL     1      -4.297  10.836  17.912  0.00  0.00    +0.000 C 
ATOM     26  C   UNL     1      -3.342   9.693  17.624  0.00  0.00    +0.000 C 
ENDBRANCH  24  26
ENDBRANCH  23  24
ENDBRANCH  22  23
ENDBRANCH   1  22
TORSDOF 5
ENDMDL
MODEL 9
REMARK VINA RESULT:      -6.3      0.940      1.199
REMARK  Name = 
REMARK  8 active torsions:
REMARK  status: ('A' for Active; 'I' for Inactive)
REMARK    1  A    between atoms: C_1  and  C_2
REMARK    2  A    between atoms: C_2  and  C_3
REMARK    3  A    between atoms: C_3  and  C_4
REMARK    4  A    between atoms: C_4  and  C_5
REMARK    5  A    between atoms: C_5  and  C_6
REMARK    6  A    between atoms: C_9  and  C_10
REMARK    7  A    between atoms: C_16  and  O_17
REMARK    8  A    between atoms: O_17  and  C_18
REMARK                            x       y       z     vdW  Elec       q    Type
REMARK                         _______ _______ _______ _____ _____    ______ ____
ROOT
ATOM      1  C   UNL     1       2.786   5.592  19.394  0.00  0.00    +0.000 A 
ATOM      2  C   UNL     1       3.628   4.825  18.587  0.00  0.00    +0.000 A 
ATOM      3  C   UNL     1       4.238   5.356  17.456  0.00  0.00    +0.000 A 
ATOM      4  C   UNL     1       4.042   6.676  17.054  0.00  0.00    +0.000 A 
ATOM      5  C   UNL     1       4.668   7.275  15.829  0.00  0.00    +0.000 C 
ATOM      6  C   UNL     1       3.206   7.462  17.866  0.00  0.00    +0.000 A 
ATOM      7  C   UNL     1       2.599   6.936  19.022  0.00  0.00    +0.000 A 
ATOM      8  O   UNL     1       1.809   7.716  19.836  0.00  0.00    +0.000 OA
ATOM      9  C   UNL     1       1.583   8.997  19.417  0.00  0.00    +0.000 A 
ATOM     10  C   UNL     1       0.731   9.793  20.186  0.00  0.00    +0.000 A 
ATOM     11  C   UNL     1       0.474  11.117  19.815  0.00  0.00    +0.000 A 
ATOM     12  C   UNL     1       1.073  11.633  18.663  0.00  0.00    +0.000 A 
ATOM     13  C   UNL     1       1.919  10.830  17.890  0.00  0.00    +0.000 A 
ATOM     14  C   UNL     1       2.170   9.514  18.271  0.00  0.00    +0.000 A 
ATOM     15  O   UNL     1       3.007   8.771  17.482  0.00  0.00    +0.000 OA
ATOM     16  C   UNL     1       5.058   4.298  16.852  0.00  0.00    +0.000 C 
ATOM     17  O   UNL     1       5.739   4.363  15.848  0.00  0.00    +0.000 OA
ATOM     18  O   UNL     1       4.929   3.190  17.638  0.00  0.00    +0.000 OA
ATOM     19  C   UNL     1       4.026   3.407  18.733  0.00  0.00    +0.000 C 
ENDROOT
BRANCH  11  20
ATOM     20  O   UNL     1      -0.372  11.794  20.651  0.00  0.00    +0.000 OA
ATOM     21  C   UNL     1      -0.450  11.339  21.995  0.00  0.00    +0.000 C 
ENDBRANCH  11  20
BRANCH   1  22
ATOM     22  C   UNL     1       2.118   5.009  20.617  0.00  0.00    +0.000 C 
BRANCH  22  23
ATOM     23  C   UNL     1       0.801   4.297  20.290  0.00  0.00    +0.000 C 
BRANCH  23  24
ATOM     24  C   UNL     1       0.910   2.788  20.506  0.00  0.00    +0.000 C 
BRANCH  24  26
ATOM     25  C   UNL     1       3.004   1.981  21.646  0.00  0.00    +0.000 C 
ATOM     26  C   UNL     1       1.585   2.482  21.842  0.00  0.00    +0.000 C 
ENDBRANCH  24  26
ENDBRANCH  23  24
ENDBRANCH  22  23
ENDBRANCH   1  22
TORSDOF 5
ENDMDL
