MODEL 1
REMARK VINA RESULT:      -6.9      0.000      0.000
REMARK  Name = 
REMARK  8 active torsions:
REMARK  status: ('A' for Active; 'I' for Inactive)
REMARK    1  A    between atoms: C_1  and  C_2
REMARK    2  A    between atoms: C_5  and  O_6
REMARK    3  A    between atoms: C_7  and  C_8
REMARK    4  A    between atoms: C_7  and  C_9
REMARK    5  A    between atoms: C_9  and  O_10
REMARK    6  A    between atoms: C_13  and  O_14
REMARK    7  A    between atoms: C_15  and  C_16
REMARK    8  A    between atoms: C_20  and  C_21
REMARK                            x       y       z     vdW  Elec       q    Type
REMARK                         _______ _______ _______ _____ _____    ______ ____
ROOT
ATOM      1  C   UNL     1      -4.321  12.300  21.513  0.00  0.00    +0.000 C 
ATOM      2  C   UNL     1      -4.270  12.927  20.062  0.00  0.00    +0.000 C 
ATOM      3  C   UNL     1      -4.187  14.458  20.439  0.00  0.00    +0.000 C 
ATOM      4  C   UNL     1      -5.525  14.938  21.088  0.00  0.00    +0.000 C 
ATOM      5  C   UNL     1      -6.735  14.773  20.176  0.00  0.00    +0.000 C 
ATOM      6  C   UNL     1      -6.871  13.371  19.508  0.00  0.00    +0.000 C 
ATOM      7  C   UNL     1      -7.426  12.259  20.418  0.00  0.00    +0.000 C 
ATOM      8  C   UNL     1      -5.457  12.964  18.984  0.00  0.00    +0.000 C 
ATOM      9  C   UNL     1      -5.493  11.858  17.934  0.00  0.00    +0.000 C 
ATOM     10  C   UNL     1      -4.153  11.758  17.215  0.00  0.00    +0.000 C 
ATOM     11  C   UNL     1      -3.088  11.230  18.178  0.00  0.00    +0.000 C 
ATOM     12  C   UNL     1      -3.399   9.730  18.492  0.00  0.00    +0.000 C 
ATOM     13  O   UNL     1      -1.818  11.198  17.476  0.00  0.00    +0.000 OA
ATOM     14  C   UNL     1      -0.744  11.026  18.326  0.00  0.00    +0.000 A 
ATOM     15  C   UNL     1       0.123   9.922  18.050  0.00  0.00    +0.000 A 
ATOM     16  C   UNL     1       0.970   9.533  19.012  0.00  0.00    +0.000 A 
ATOM     17  O   UNL     1       1.054  10.191  20.261  0.00  0.00    +0.000 OA
ATOM     18  C   UNL     1       0.273  11.283  20.531  0.00  0.00    +0.000 A 
ATOM     19  O   UNL     1       0.209  11.766  21.655  0.00  0.00    +0.000 OA
ATOM     20  C   UNL     1      -0.592  11.739  19.445  0.00  0.00    +0.000 A 
ATOM     21  C   UNL     1      -1.663  12.741  19.590  0.00  0.00    +0.000 C 
ATOM     22  O   UNL     1      -1.439  13.928  19.770  0.00  0.00    +0.000 OA
ATOM     23  C   UNL     1      -3.022  12.114  19.477  0.00  0.00    +0.000 C 
ENDROOT
BRANCH  16  24
ATOM     24  C   UNL     1       1.894   8.415  18.864  0.00  0.00    +0.000 A 
ATOM     25  C   UNL     1       1.917   7.422  19.840  0.00  0.00    +0.000 A 
ATOM     26  C   UNL     1       2.759   6.343  19.650  0.00  0.00    +0.000 A 
ATOM     27  N   UNL     1       3.568   6.201  18.579  0.00  0.00    +0.000 NA
ATOM     28  C   UNL     1       3.530   7.181  17.650  0.00  0.00    +0.000 A 
ATOM     29  C   UNL     1       2.721   8.301  17.746  0.00  0.00    +0.000 A 
ENDBRANCH  16  24
BRANCH   5  30
ATOM     30  O   UNL     1      -7.917  15.116  20.899  0.00  0.00    +0.000 OA
ATOM     31  H   UNL     1      -7.685  15.901  21.435  0.00  0.00    +0.000 HD
ENDBRANCH   5  30
BRANCH  10  32
ATOM     32  O   UNL     1      -4.306  10.932  16.056  0.00  0.00    +0.000 OA
ATOM     33  H   UNL     1      -3.453  10.519  15.835  0.00  0.00    +0.000 HD
ENDBRANCH  10  32
BRANCH   6  34
ATOM     34  C   UNL     1      -7.903  13.559  18.341  0.00  0.00    +0.000 C 
BRANCH  34  35
ATOM     35  O   UNL     1      -7.867  14.889  17.821  0.00  0.00    +0.000 OA
ATOM     36  H   UNL     1      -6.935  15.094  17.618  0.00  0.00    +0.000 HD
ENDBRANCH  34  35
ENDBRANCH   6  34
TORSDOF 5
ENDMDL
MODEL 2
REMARK VINA RESULT:      -6.7      1.975      2.776
REMARK  Name = 
REMARK  8 active torsions:
REMARK  status: ('A' for Active; 'I' for Inactive)
REMARK    1  A    between atoms: C_1  and  C_2
REMARK    2  A    between atoms: C_5  and  O_6
REMARK    3  A    between atoms: C_7  and  C_8
REMARK    4  A    between atoms: C_7  and  C_9
REMARK    5  A    between atoms: C_9  and  O_10
REMARK    6  A    between atoms: C_13  and  O_14
REMARK    7  A    between atoms: C_15  and  C_16
REMARK    8  A    between atoms: C_20  and  C_21
REMARK                            x       y       z     vdW  Elec       q    Type
REMARK                         _______ _______ _______ _____ _____    ______ ____
ROOT
ATOM      1  C   UNL     1      -2.598  11.708  22.892  0.00  0.00    +0.000 C 
ATOM      2  C   UNL     1      -2.145  12.667  21.719  0.00  0.00    +0.000 C 
ATOM      3  C   UNL     1      -1.627  13.894  22.568  0.00  0.00    +0.000 C 
ATOM      4  C   UNL     1      -2.815  14.603  23.293  0.00  0.00    +0.000 C 
ATOM      5  C   UNL     1      -3.874  15.143  22.339  0.00  0.00    +0.000 C 
ATOM      6  C   UNL     1      -4.360  14.134  21.254  0.00  0.00    +0.000 C 
ATOM      7  C   UNL     1      -5.365  13.075  21.743  0.00  0.00    +0.000 C 
ATOM      8  C   UNL     1      -3.094  13.428  20.673  0.00  0.00    +0.000 C 
ATOM      9  C   UNL     1      -3.337  12.758  19.324  0.00  0.00    +0.000 C 
ATOM     10  C   UNL     1      -2.015  12.407  18.653  0.00  0.00    +0.000 C 
ATOM     11  C   UNL     1      -1.322  11.285  19.430  0.00  0.00    +0.000 C 
ATOM     12  C   UNL     1      -2.142   9.967  19.239  0.00  0.00    +0.000 C 
ATOM     13  O   UNL     1      -0.046  11.015  18.796  0.00  0.00    +0.000 OA
ATOM     14  C   UNL     1       0.785  10.240  19.579  0.00  0.00    +0.000 A 
ATOM     15  C   UNL     1       1.279   9.032  18.993  0.00  0.00    +0.000 A 
ATOM     16  C   UNL     1       1.812   8.112  19.807  0.00  0.00    +0.000 A 
ATOM     17  O   UNL     1       1.928   8.308  21.202  0.00  0.00    +0.000 OA
ATOM     18  C   UNL     1       1.511   9.476  21.782  0.00  0.00    +0.000 A 
ATOM     19  O   UNL     1       1.450   9.605  22.999  0.00  0.00    +0.000 OA
ATOM     20  C   UNL     1       1.001  10.499  20.872  0.00  0.00    +0.000 A 
ATOM     21  C   UNL     1       0.301  11.725  21.295  0.00  0.00    +0.000 C 
ATOM     22  O   UNL     1       0.868  12.653  21.852  0.00  0.00    +0.000 OA
ATOM     23  C   UNL     1      -1.157  11.675  20.945  0.00  0.00    +0.000 C 
ENDROOT
BRANCH  16  24
ATOM     24  C   UNL     1       2.337   6.835  19.338  0.00  0.00    +0.000 A 
ATOM     25  C   UNL     1       3.017   6.787  18.124  0.00  0.00    +0.000 A 
ATOM     26  C   UNL     1       3.556   5.578  17.726  0.00  0.00    +0.000 A 
ATOM     27  N   UNL     1       3.451   4.438  18.442  0.00  0.00    +0.000 NA
ATOM     28  C   UNL     1       2.782   4.511  19.613  0.00  0.00    +0.000 A 
ATOM     29  C   UNL     1       2.208   5.673  20.100  0.00  0.00    +0.000 A 
ENDBRANCH  16  24
BRANCH   5  30
ATOM     30  O   UNL     1      -4.970  15.654  23.096  0.00  0.00    +0.000 OA
ATOM     31  H   UNL     1      -5.409  14.874  23.492  0.00  0.00    +0.000 HD
ENDBRANCH   5  30
BRANCH  10  32
ATOM     32  O   UNL     1      -2.262  12.059  17.287  0.00  0.00    +0.000 OA
ATOM     33  H   UNL     1      -3.219  12.082  17.113  0.00  0.00    +0.000 HD
ENDBRANCH  10  32
BRANCH   6  34
ATOM     34  C   UNL     1      -5.101  15.000  20.177  0.00  0.00    +0.000 C 
BRANCH  34  35
ATOM     35  O   UNL     1      -4.480  16.275  20.012  0.00  0.00    +0.000 OA
ATOM     36  H   UNL     1      -5.192  16.929  19.886  0.00  0.00    +0.000 HD
ENDBRANCH  34  35
ENDBRANCH   6  34
TORSDOF 5
ENDMDL
MODEL 3
REMARK VINA RESULT:      -6.6      3.700      5.284
REMARK  Name = 
REMARK  8 active torsions:
REMARK  status: ('A' for Active; 'I' for Inactive)
REMARK    1  A    between atoms: C_1  and  C_2
REMARK    2  A    between atoms: C_5  and  O_6
REMARK    3  A    between atoms: C_7  and  C_8
REMARK    4  A    between atoms: C_7  and  C_9
REMARK    5  A    between atoms: C_9  and  O_10
REMARK    6  A    between atoms: C_13  and  O_14
REMARK    7  A    between atoms: C_15  and  C_16
REMARK    8  A    between atoms: C_20  and  C_21
REMARK                            x       y       z     vdW  Elec       q    Type
REMARK                         _______ _______ _______ _____ _____    ______ ____
ROOT
ATOM      1  C   UNL     1       1.672  12.929  19.749  0.00  0.00    +0.000 C 
ATOM      2  C   UNL     1       0.251  12.361  20.147  0.00  0.00    +0.000 C 
ATOM      3  C   UNL     1      -0.626  13.032  19.019  0.00  0.00    +0.000 C 
ATOM      4  C   UNL     1      -0.690  14.580  19.219  0.00  0.00    +0.000 C 
ATOM      5  C   UNL     1      -1.297  14.995  20.554  0.00  0.00    +0.000 C 
ATOM      6  C   UNL     1      -0.714  14.260  21.799  0.00  0.00    +0.000 C 
ATOM      7  C   UNL     1       0.657  14.770  22.283  0.00  0.00    +0.000 C 
ATOM      8  C   UNL     1      -0.613  12.743  21.442  0.00  0.00    +0.000 C 
ATOM      9  C   UNL     1      -0.493  11.838  22.665  0.00  0.00    +0.000 C 
ATOM     10  C   UNL     1      -0.757  10.386  22.285  0.00  0.00    +0.000 C 
ATOM     11  C   UNL     1       0.383   9.866  21.406  0.00  0.00    +0.000 C 
ATOM     12  C   UNL     1       1.672   9.742  22.283  0.00  0.00    +0.000 C 
ATOM     13  O   UNL     1       0.072   8.502  21.020  0.00  0.00    +0.000 OA
ATOM     14  C   UNL     1       0.874   8.042  19.995  0.00  0.00    +0.000 A 
ATOM     15  C   UNL     1       1.599   6.834  20.239  0.00  0.00    +0.000 A 
ATOM     16  C   UNL     1       2.612   6.533  19.416  0.00  0.00    +0.000 A 
ATOM     17  O   UNL     1       2.960   7.345  18.313  0.00  0.00    +0.000 OA
ATOM     18  C   UNL     1       2.249   8.480  18.026  0.00  0.00    +0.000 A 
ATOM     19  O   UNL     1       2.629   9.281  17.181  0.00  0.00    +0.000 OA
ATOM     20  C   UNL     1       1.102   8.755  18.888  0.00  0.00    +0.000 A 
ATOM     21  C   UNL     1       0.345  10.018  18.899  0.00  0.00    +0.000 C 
ATOM     22  O   UNL     1      -0.393  10.356  17.987  0.00  0.00    +0.000 OA
ATOM     23  C   UNL     1       0.595  10.798  20.157  0.00  0.00    +0.000 C 
ENDROOT
BRANCH  16  24
ATOM     24  C   UNL     1       3.438   5.341  19.564  0.00  0.00    +0.000 A 
ATOM     25  C   UNL     1       2.883   4.199  20.137  0.00  0.00    +0.000 A 
ATOM     26  C   UNL     1       3.666   3.063  20.215  0.00  0.00    +0.000 A 
ATOM     27  N   UNL     1       4.941   2.999  19.779  0.00  0.00    +0.000 NA
ATOM     28  C   UNL     1       5.457   4.122  19.232  0.00  0.00    +0.000 A 
ATOM     29  C   UNL     1       4.756   5.309  19.107  0.00  0.00    +0.000 A 
ENDBRANCH  16  24
BRANCH   5  30
ATOM     30  O   UNL     1      -1.194  16.411  20.696  0.00  0.00    +0.000 OA
ATOM     31  H   UNL     1      -0.245  16.624  20.582  0.00  0.00    +0.000 HD
ENDBRANCH   5  30
BRANCH  10  32
ATOM     32  O   UNL     1      -0.928   9.615  23.478  0.00  0.00    +0.000 OA
ATOM     33  H   UNL     1      -1.497   8.848  23.292  0.00  0.00    +0.000 HD
ENDBRANCH  10  32
BRANCH   6  34
ATOM     34  C   UNL     1      -1.733  14.529  22.962  0.00  0.00    +0.000 C 
BRANCH  34  35
ATOM     35  O   UNL     1      -3.023  14.874  22.456  0.00  0.00    +0.000 OA
ATOM     36  H   UNL     1      -3.682  14.515  23.078  0.00  0.00    +0.000 HD
ENDBRANCH  34  35
ENDBRANCH   6  34
TORSDOF 5
ENDMDL
MODEL 4
REMARK VINA RESULT:      -6.5      4.695      8.578
REMARK  Name = 
REMARK  8 active torsions:
REMARK  status: ('A' for Active; 'I' for Inactive)
REMARK    1  A    between atoms: C_1  and  C_2
REMARK    2  A    between atoms: C_5  and  O_6
REMARK    3  A    between atoms: C_7  and  C_8
REMARK    4  A    between atoms: C_7  and  C_9
REMARK    5  A    between atoms: C_9  and  O_10
REMARK    6  A    between atoms: C_13  and  O_14
REMARK    7  A    between atoms: C_15  and  C_16
REMARK    8  A    between atoms: C_20  and  C_21
REMARK                            x       y       z     vdW  Elec       q    Type
REMARK                         _______ _______ _______ _____ _____    ______ ____
ROOT
ATOM      1  C   UNL     1       1.139  16.991  19.473  0.00  0.00    +0.000 C 
ATOM      2  C   UNL     1       1.900  15.679  19.922  0.00  0.00    +0.000 C 
ATOM      3  C   UNL     1       2.814  16.282  21.059  0.00  0.00    +0.000 C 
ATOM      4  C   UNL     1       3.889  17.239  20.452  0.00  0.00    +0.000 C 
ATOM      5  C   UNL     1       4.819  16.555  19.456  0.00  0.00    +0.000 C 
ATOM      6  C   UNL     1       4.102  15.702  18.366  0.00  0.00    +0.000 C 
ATOM      7  C   UNL     1       3.478  16.503  17.208  0.00  0.00    +0.000 C 
ATOM      8  C   UNL     1       2.995  14.864  19.081  0.00  0.00    +0.000 C 
ATOM      9  C   UNL     1       2.512  13.670  18.262  0.00  0.00    +0.000 C 
ATOM     10  C   UNL     1       1.716  12.707  19.135  0.00  0.00    +0.000 C 
ATOM     11  C   UNL     1       0.391  13.354  19.544  0.00  0.00    +0.000 C 
ATOM     12  C   UNL     1      -0.519  13.469  18.277  0.00  0.00    +0.000 C 
ATOM     13  O   UNL     1      -0.313  12.432  20.415  0.00  0.00    +0.000 OA
ATOM     14  C   UNL     1      -1.369  13.026  21.077  0.00  0.00    +0.000 A 
ATOM     15  C   UNL     1      -2.653  12.416  20.918  0.00  0.00    +0.000 A 
ATOM     16  C   UNL     1      -3.733  13.125  21.268  0.00  0.00    +0.000 A 
ATOM     17  O   UNL     1      -3.643  14.427  21.811  0.00  0.00    +0.000 OA
ATOM     18  C   UNL     1      -2.425  15.015  22.022  0.00  0.00    +0.000 A 
ATOM     19  O   UNL     1      -2.325  16.195  22.335  0.00  0.00    +0.000 OA
ATOM     20  C   UNL     1      -1.254  14.200  21.705  0.00  0.00    +0.000 A 
ATOM     21  C   UNL     1       0.129  14.705  21.644  0.00  0.00    +0.000 C 
ATOM     22  O   UNL     1       0.758  15.034  22.638  0.00  0.00    +0.000 OA
ATOM     23  C   UNL     1       0.638  14.745  20.233  0.00  0.00    +0.000 C 
ENDROOT
BRANCH  16  24
ATOM     24  C   UNL     1      -5.096  12.624  21.142  0.00  0.00    +0.000 A 
ATOM     25  C   UNL     1      -5.979  12.788  22.207  0.00  0.00    +0.000 A 
ATOM     26  C   UNL     1      -7.283  12.357  22.045  0.00  0.00    +0.000 A 
ATOM     27  N   UNL     1      -7.746  11.776  20.918  0.00  0.00    +0.000 NA
ATOM     28  C   UNL     1      -6.868  11.624  19.902  0.00  0.00    +0.000 A 
ATOM     29  C   UNL     1      -5.544  12.024  19.964  0.00  0.00    +0.000 A 
ENDBRANCH  16  24
BRANCH   5  30
ATOM     30  O   UNL     1       5.674  17.532  18.866  0.00  0.00    +0.000 OA
ATOM     31  H   UNL     1       5.340  18.401  19.170  0.00  0.00    +0.000 HD
ENDBRANCH   5  30
BRANCH  10  32
ATOM     32  O   UNL     1       1.534  11.477  18.427  0.00  0.00    +0.000 OA
ATOM     33  H   UNL     1       2.317  10.913  18.546  0.00  0.00    +0.000 HD
ENDBRANCH  10  32
BRANCH   6  34
ATOM     34  C   UNL     1       5.219  14.795  17.740  0.00  0.00    +0.000 C 
BRANCH  34  35
ATOM     35  O   UNL     1       6.394  14.776  18.553  0.00  0.00    +0.000 OA
ATOM     36  H   UNL     1       6.971  15.497  18.241  0.00  0.00    +0.000 HD
ENDBRANCH  34  35
ENDBRANCH   6  34
TORSDOF 5
ENDMDL
MODEL 5
REMARK VINA RESULT:      -6.3      5.908      6.972
REMARK  Name = 
REMARK  8 active torsions:
REMARK  status: ('A' for Active; 'I' for Inactive)
REMARK    1  A    between atoms: C_1  and  C_2
REMARK    2  A    between atoms: C_5  and  O_6
REMARK    3  A    between atoms: C_7  and  C_8
REMARK    4  A    between atoms: C_7  and  C_9
REMARK    5  A    between atoms: C_9  and  O_10
REMARK    6  A    between atoms: C_13  and  O_14
REMARK    7  A    between atoms: C_15  and  C_16
REMARK    8  A    between atoms: C_20  and  C_21
REMARK                            x       y       z     vdW  Elec       q    Type
REMARK                         _______ _______ _______ _____ _____    ______ ____
ROOT
ATOM      1  C   UNL     1       1.275  16.814  21.899  0.00  0.00    +0.000 C 
ATOM      2  C   UNL     1       0.575  16.433  20.533  0.00  0.00    +0.000 C 
ATOM      3  C   UNL     1      -0.156  17.798  20.224  0.00  0.00    +0.000 C 
ATOM      4  C   UNL     1      -1.299  18.057  21.257  0.00  0.00    +0.000 C 
ATOM      5  C   UNL     1      -2.372  16.974  21.261  0.00  0.00    +0.000 C 
ATOM      6  C   UNL     1      -1.832  15.513  21.329  0.00  0.00    +0.000 C 
ATOM      7  C   UNL     1      -1.376  15.044  22.724  0.00  0.00    +0.000 C 
ATOM      8  C   UNL     1      -0.640  15.408  20.325  0.00  0.00    +0.000 C 
ATOM      9  C   UNL     1      -0.296  13.972  19.940  0.00  0.00    +0.000 C 
ATOM     10  C   UNL     1       0.610  13.948  18.714  0.00  0.00    +0.000 C 
ATOM     11  C   UNL     1       1.987  14.507  19.078  0.00  0.00    +0.000 C 
ATOM     12  C   UNL     1       2.702  13.490  20.028  0.00  0.00    +0.000 C 
ATOM     13  O   UNL     1       2.803  14.518  17.878  0.00  0.00    +0.000 OA
ATOM     14  C   UNL     1       3.951  15.272  18.021  0.00  0.00    +0.000 A 
ATOM     15  C   UNL     1       5.190  14.612  17.749  0.00  0.00    +0.000 A 
ATOM     16  C   UNL     1       6.318  15.194  18.177  0.00  0.00    +0.000 A 
ATOM     17  O   UNL     1       6.322  16.437  18.851  0.00  0.00    +0.000 OA
ATOM     18  C   UNL     1       5.154  17.115  19.077  0.00  0.00    +0.000 A 
ATOM     19  O   UNL     1       5.113  18.106  19.796  0.00  0.00    +0.000 OA
ATOM     20  C   UNL     1       3.941  16.503  18.539  0.00  0.00    +0.000 A 
ATOM     21  C   UNL     1       2.570  16.939  18.855  0.00  0.00    +0.000 C 
ATOM     22  O   UNL     1       2.097  17.988  18.444  0.00  0.00    +0.000 OA
ATOM     23  C   UNL     1       1.859  15.937  19.717  0.00  0.00    +0.000 C 
ENDROOT
BRANCH  16  24
ATOM     24  C   UNL     1       7.642  14.619  17.978  0.00  0.00    +0.000 A 
ATOM     25  C   UNL     1       8.763  15.435  18.114  0.00  0.00    +0.000 A 
ATOM     26  C   UNL     1      10.011  14.857  17.978  0.00  0.00    +0.000 A 
ATOM     27  N   UNL     1      10.206  13.549  17.709  0.00  0.00    +0.000 NA
ATOM     28  C   UNL     1       9.103  12.781  17.576  0.00  0.00    +0.000 A 
ATOM     29  C   UNL     1       7.810  13.263  17.696  0.00  0.00    +0.000 A 
ENDBRANCH  16  24
BRANCH   5  30
ATOM     30  O   UNL     1      -3.295  17.233  22.318  0.00  0.00    +0.000 OA
ATOM     31  H   UNL     1      -4.183  17.049  21.950  0.00  0.00    +0.000 HD
ENDBRANCH   5  30
BRANCH  10  32
ATOM     32  O   UNL     1       0.674  12.611  18.208  0.00  0.00    +0.000 OA
ATOM     33  H   UNL     1       0.878  12.632  17.257  0.00  0.00    +0.000 HD
ENDBRANCH  10  32
BRANCH   6  34
ATOM     34  C   UNL     1      -3.038  14.600  20.915  0.00  0.00    +0.000 C 
BRANCH  34  35
ATOM     35  O   UNL     1      -4.074  15.355  20.285  0.00  0.00    +0.000 OA
ATOM     36  H   UNL     1      -3.654  16.133  19.875  0.00  0.00    +0.000 HD
ENDBRANCH  34  35
ENDBRANCH   6  34
TORSDOF 5
ENDMDL
MODEL 6
REMARK VINA RESULT:      -6.2      3.228      4.938
REMARK  Name = 
REMARK  8 active torsions:
REMARK  status: ('A' for Active; 'I' for Inactive)
REMARK    1  A    between atoms: C_1  and  C_2
REMARK    2  A    between atoms: C_5  and  O_6
REMARK    3  A    between atoms: C_7  and  C_8
REMARK    4  A    between atoms: C_7  and  C_9
REMARK    5  A    between atoms: C_9  and  O_10
REMARK    6  A    between atoms: C_13  and  O_14
REMARK    7  A    between atoms: C_15  and  C_16
REMARK    8  A    between atoms: C_20  and  C_21
REMARK                            x       y       z     vdW  Elec       q    Type
REMARK                         _______ _______ _______ _____ _____    ______ ____
ROOT
ATOM      1  C   UNL     1       0.740  13.016  20.332  0.00  0.00    +0.000 C 
ATOM      2  C   UNL     1      -0.488  12.075  20.664  0.00  0.00    +0.000 C 
ATOM      3  C   UNL     1      -1.567  12.702  19.696  0.00  0.00    +0.000 C 
ATOM      4  C   UNL     1      -1.962  14.138  20.169  0.00  0.00    +0.000 C 
ATOM      5  C   UNL     1      -2.555  14.174  21.572  0.00  0.00    +0.000 C 
ATOM      6  C   UNL     1      -1.739  13.399  22.652  0.00  0.00    +0.000 C 
ATOM      7  C   UNL     1      -0.488  14.126  23.179  0.00  0.00    +0.000 C 
ATOM      8  C   UNL     1      -1.326  12.027  22.030  0.00  0.00    +0.000 C 
ATOM      9  C   UNL     1      -0.924  10.985  23.069  0.00  0.00    +0.000 C 
ATOM     10  C   UNL     1      -0.882   9.595  22.446  0.00  0.00    +0.000 C 
ATOM     11  C   UNL     1       0.283   9.506  21.458  0.00  0.00    +0.000 C 
ATOM     12  C   UNL     1       1.623   9.541  22.263  0.00  0.00    +0.000 C 
ATOM     13  O   UNL     1       0.259   8.191  20.847  0.00  0.00    +0.000 OA
ATOM     14  C   UNL     1       1.072   8.105  19.734  0.00  0.00    +0.000 A 
ATOM     15  C   UNL     1       2.064   7.075  19.740  0.00  0.00    +0.000 A 
ATOM     16  C   UNL     1       3.061   7.157  18.850  0.00  0.00    +0.000 A 
ATOM     17  O   UNL     1       3.143   8.199  17.897  0.00  0.00    +0.000 OA
ATOM     18  C   UNL     1       2.179   9.169  17.836  0.00  0.00    +0.000 A 
ATOM     19  O   UNL     1       2.311  10.165  17.135  0.00  0.00    +0.000 OA
ATOM     20  C   UNL     1       1.060   9.024  18.764  0.00  0.00    +0.000 A 
ATOM     21  C   UNL     1       0.042  10.058  19.020  0.00  0.00    +0.000 C 
ATOM     22  O   UNL     1      -0.813  10.362  18.202  0.00  0.00    +0.000 OA
ATOM     23  C   UNL     1       0.196  10.655  20.388  0.00  0.00    +0.000 C 
ENDROOT
BRANCH  16  24
ATOM     24  C   UNL     1       4.140   6.182  18.761  0.00  0.00    +0.000 A 
ATOM     25  C   UNL     1       4.040   4.994  19.481  0.00  0.00    +0.000 A 
ATOM     26  C   UNL     1       5.047   4.058  19.339  0.00  0.00    +0.000 A 
ATOM     27  N   UNL     1       6.129   4.235  18.550  0.00  0.00    +0.000 NA
ATOM     28  C   UNL     1       6.204   5.398  17.868  0.00  0.00    +0.000 A 
ATOM     29  C   UNL     1       5.248   6.397  17.941  0.00  0.00    +0.000 A 
ENDBRANCH  16  24
BRANCH   5  30
ATOM     30  O   UNL     1      -2.761  15.532  21.959  0.00  0.00    +0.000 OA
ATOM     31  H   UNL     1      -1.954  16.014  21.689  0.00  0.00    +0.000 HD
ENDBRANCH   5  30
BRANCH  10  32
ATOM     32  O   UNL     1      -0.795   8.619  23.489  0.00  0.00    +0.000 OA
ATOM     33  H   UNL     1       0.129   8.335  23.594  0.00  0.00    +0.000 HD
ENDBRANCH  10  32
BRANCH   6  34
ATOM     34  C   UNL     1      -2.711  13.228  23.871  0.00  0.00    +0.000 C 
BRANCH  34  35
ATOM     35  O   UNL     1      -4.077  13.205  23.452  0.00  0.00    +0.000 OA
ATOM     36  H   UNL     1      -4.356  14.131  23.331  0.00  0.00    +0.000 HD
ENDBRANCH  34  35
ENDBRANCH   6  34
TORSDOF 5
ENDMDL
MODEL 7
REMARK VINA RESULT:      -6.1      5.238      6.251
REMARK  Name = 
REMARK  8 active torsions:
REMARK  status: ('A' for Active; 'I' for Inactive)
REMARK    1  A    between atoms: C_1  and  C_2
REMARK    2  A    between atoms: C_5  and  O_6
REMARK    3  A    between atoms: C_7  and  C_8
REMARK    4  A    between atoms: C_7  and  C_9
REMARK    5  A    between atoms: C_9  and  O_10
REMARK    6  A    between atoms: C_13  and  O_14
REMARK    7  A    between atoms: C_15  and  C_16
REMARK    8  A    between atoms: C_20  and  C_21
REMARK                            x       y       z     vdW  Elec       q    Type
REMARK                         _______ _______ _______ _____ _____    ______ ____
ROOT
ATOM      1  C   UNL     1       0.012  15.823  21.835  0.00  0.00    +0.000 C 
ATOM      2  C   UNL     1      -0.554  15.279  20.461  0.00  0.00    +0.000 C 
ATOM      3  C   UNL     1      -1.552  16.451  20.106  0.00  0.00    +0.000 C 
ATOM      4  C   UNL     1      -2.751  16.474  21.107  0.00  0.00    +0.000 C 
ATOM      5  C   UNL     1      -3.566  15.187  21.110  0.00  0.00    +0.000 C 
ATOM      6  C   UNL     1      -2.728  13.877  21.221  0.00  0.00    +0.000 C 
ATOM      7  C   UNL     1      -2.220  13.538  22.635  0.00  0.00    +0.000 C 
ATOM      8  C   UNL     1      -1.515  14.014  20.247  0.00  0.00    +0.000 C 
ATOM      9  C   UNL     1      -0.860  12.680  19.900  0.00  0.00    +0.000 C 
ATOM     10  C   UNL     1       0.062  12.832  18.696  0.00  0.00    +0.000 C 
ATOM     11  C   UNL     1       1.277  13.679  19.079  0.00  0.00    +0.000 C 
ATOM     12  C   UNL     1       2.168  12.855  20.066  0.00  0.00    +0.000 C 
ATOM     13  O   UNL     1       2.103  13.847  17.898  0.00  0.00    +0.000 OA
ATOM     14  C   UNL     1       3.059  14.831  18.051  0.00  0.00    +0.000 A 
ATOM     15  C   UNL     1       4.418  14.450  17.823  0.00  0.00    +0.000 A 
ATOM     16  C   UNL     1       5.383  15.267  18.264  0.00  0.00    +0.000 A 
ATOM     17  O   UNL     1       5.102  16.492  18.911  0.00  0.00    +0.000 OA
ATOM     18  C   UNL     1       3.810  16.906  19.096  0.00  0.00    +0.000 A 
ATOM     19  O   UNL     1       3.539  17.876  19.794  0.00  0.00    +0.000 OA
ATOM     20  C   UNL     1       2.772  16.040  18.544  0.00  0.00    +0.000 A 
ATOM     21  C   UNL     1       1.331  16.177  18.819  0.00  0.00    +0.000 C 
ATOM     22  O   UNL     1       0.655  17.092  18.376  0.00  0.00    +0.000 OA
ATOM     23  C   UNL     1       0.828  15.059  19.685  0.00  0.00    +0.000 C 
ENDROOT
BRANCH  16  24
ATOM     24  C   UNL     1       6.804  14.987  18.107  0.00  0.00    +0.000 A 
ATOM     25  C   UNL     1       7.722  16.018  18.290  0.00  0.00    +0.000 A 
ATOM     26  C   UNL     1       9.068  15.718  18.193  0.00  0.00    +0.000 A 
ATOM     27  N   UNL     1       9.544  14.485  17.921  0.00  0.00    +0.000 NA
ATOM     28  C   UNL     1       8.632  13.503  17.743  0.00  0.00    +0.000 A 
ATOM     29  C   UNL     1       7.264  13.701  17.820  0.00  0.00    +0.000 A 
ENDBRANCH  16  24
BRANCH   5  30
ATOM     30  O   UNL     1      -4.551  15.257  22.139  0.00  0.00    +0.000 OA
ATOM     31  H   UNL     1      -5.415  15.147  21.693  0.00  0.00    +0.000 HD
ENDBRANCH   5  30
BRANCH  10  32
ATOM     32  O   UNL     1       0.425  11.532  18.219  0.00  0.00    +0.000 OA
ATOM     33  H   UNL     1       0.674  10.967  18.971  0.00  0.00    +0.000 HD
ENDBRANCH  10  32
BRANCH   6  34
ATOM     34  C   UNL     1      -3.698  12.719  20.799  0.00  0.00    +0.000 C 
BRANCH  34  35
ATOM     35  O   UNL     1      -4.573  12.354  21.867  0.00  0.00    +0.000 OA
ATOM     36  H   UNL     1      -4.383  12.952  22.613  0.00  0.00    +0.000 HD
ENDBRANCH  34  35
ENDBRANCH   6  34
TORSDOF 5
ENDMDL
MODEL 8
REMARK VINA RESULT:      -6.1      4.784      8.776
REMARK  Name = 
REMARK  8 active torsions:
REMARK  status: ('A' for Active; 'I' for Inactive)
REMARK    1  A    between atoms: C_1  and  C_2
REMARK    2  A    between atoms: C_5  and  O_6
REMARK    3  A    between atoms: C_7  and  C_8
REMARK    4  A    between atoms: C_7  and  C_9
REMARK    5  A    between atoms: C_9  and  O_10
REMARK    6  A    between atoms: C_13  and  O_14
REMARK    7  A    between atoms: C_15  and  C_16
REMARK    8  A    between atoms: C_20  and  C_21
REMARK                            x       y       z     vdW  Elec       q    Type
REMARK                         _______ _______ _______ _____ _____    ______ ____
ROOT
ATOM      1  C   UNL     1       0.765  16.999  20.020  0.00  0.00    +0.000 C 
ATOM      2  C   UNL     1       1.564  15.807  20.686  0.00  0.00    +0.000 C 
ATOM      3  C   UNL     1       2.499  16.628  21.658  0.00  0.00    +0.000 C 
ATOM      4  C   UNL     1       3.538  17.465  20.846  0.00  0.00    +0.000 C 
ATOM      5  C   UNL     1       4.451  16.615  19.970  0.00  0.00    +0.000 C 
ATOM      6  C   UNL     1       3.720  15.560  19.085  0.00  0.00    +0.000 C 
ATOM      7  C   UNL     1       3.048  16.117  17.816  0.00  0.00    +0.000 C 
ATOM      8  C   UNL     1       2.650  14.860  19.982  0.00  0.00    +0.000 C 
ATOM      9  C   UNL     1       2.166  13.526  19.420  0.00  0.00    +0.000 C 
ATOM     10  C   UNL     1       1.413  12.737  20.486  0.00  0.00    +0.000 C 
ATOM     11  C   UNL     1       0.089  13.433  20.805  0.00  0.00    +0.000 C 
ATOM     12  C   UNL     1      -0.859  13.292  19.569  0.00  0.00    +0.000 C 
ATOM     13  O   UNL     1      -0.573  12.685  21.858  0.00  0.00    +0.000 OA
ATOM     14  C   UNL     1      -1.621  13.381  22.427  0.00  0.00    +0.000 A 
ATOM     15  C   UNL     1      -2.897  12.735  22.429  0.00  0.00    +0.000 A 
ATOM     16  C   UNL     1      -3.980  13.484  22.671  0.00  0.00    +0.000 A 
ATOM     17  O   UNL     1      -3.899  14.867  22.953  0.00  0.00    +0.000 OA
ATOM     18  C   UNL     1      -2.686  15.500  23.010  0.00  0.00    +0.000 A 
ATOM     19  O   UNL     1      -2.599  16.719  23.089  0.00  0.00    +0.000 OA
ATOM     20  C   UNL     1      -1.510  14.655  22.816  0.00  0.00    +0.000 A 
ATOM     21  C   UNL     1      -0.139  15.157  22.617  0.00  0.00    +0.000 C 
ATOM     22  O   UNL     1       0.512  15.677  23.510  0.00  0.00    +0.000 OA
ATOM     23  C   UNL     1       0.329  14.933  21.209  0.00  0.00    +0.000 C 
ENDROOT
BRANCH  16  24
ATOM     24  C   UNL     1      -5.337  12.951  22.686  0.00  0.00    +0.000 A 
ATOM     25  C   UNL     1      -5.916  12.539  21.488  0.00  0.00    +0.000 A 
ATOM     26  C   UNL     1      -7.181  11.984  21.532  0.00  0.00    +0.000 A 
ATOM     27  N   UNL     1      -7.892  11.827  22.669  0.00  0.00    +0.000 NA
ATOM     28  C   UNL     1      -7.309  12.240  23.816  0.00  0.00    +0.000 A 
ATOM     29  C   UNL     1      -6.047  12.807  23.878  0.00  0.00    +0.000 A 
ENDBRANCH  16  24
BRANCH   5  30
ATOM     30  O   UNL     1       5.271  17.472  19.178  0.00  0.00    +0.000 OA
ATOM     31  H   UNL     1       6.195  17.206  19.361  0.00  0.00    +0.000 HD
ENDBRANCH   5  30
BRANCH  10  32
ATOM     32  O   UNL     1       1.234  11.392  20.031  0.00  0.00    +0.000 OA
ATOM     33  H   UNL     1       1.085  10.807  20.793  0.00  0.00    +0.000 HD
ENDBRANCH  10  32
BRANCH   6  34
ATOM     34  C   UNL     1       4.835  14.565  18.608  0.00  0.00    +0.000 C 
BRANCH  34  35
ATOM     35  O   UNL     1       5.391  14.965  17.355  0.00  0.00    +0.000 OA
ATOM     36  H   UNL     1       5.463  15.937  17.368  0.00  0.00    +0.000 HD
ENDBRANCH  34  35
ENDBRANCH   6  34
TORSDOF 5
ENDMDL
MODEL 9
REMARK VINA RESULT:      -6.0      6.789      8.211
REMARK  Name = 
REMARK  8 active torsions:
REMARK  status: ('A' for Active; 'I' for Inactive)
REMARK    1  A    between atoms: C_1  and  C_2
REMARK    2  A    between atoms: C_5  and  O_6
REMARK    3  A    between atoms: C_7  and  C_8
REMARK    4  A    between atoms: C_7  and  C_9
REMARK    5  A    between atoms: C_9  and  O_10
REMARK    6  A    between atoms: C_13  and  O_14
REMARK    7  A    between atoms: C_15  and  C_16
REMARK    8  A    between atoms: C_20  and  C_21
REMARK                            x       y       z     vdW  Elec       q    Type
REMARK                         _______ _______ _______ _____ _____    ______ ____
ROOT
ATOM      1  C   UNL     1       2.073  14.269  21.434  0.00  0.00    +0.000 C 
ATOM      2  C   UNL     1       2.073  15.777  20.958  0.00  0.00    +0.000 C 
ATOM      3  C   UNL     1       1.787  16.488  22.338  0.00  0.00    +0.000 C 
ATOM      4  C   UNL     1       0.338  16.174  22.830  0.00  0.00    +0.000 C 
ATOM      5  C   UNL     1      -0.745  16.636  21.863  0.00  0.00    +0.000 C 
ATOM      6  C   UNL     1      -0.522  16.223  20.376  0.00  0.00    +0.000 C 
ATOM      7  C   UNL     1      -0.869  14.760  20.040  0.00  0.00    +0.000 C 
ATOM      8  C   UNL     1       0.977  16.498  20.035  0.00  0.00    +0.000 C 
ATOM      9  C   UNL     1       1.255  16.576  18.537  0.00  0.00    +0.000 C 
ATOM     10  C   UNL     1       2.626  17.189  18.277  0.00  0.00    +0.000 C 
ATOM     11  C   UNL     1       3.720  16.226  18.742  0.00  0.00    +0.000 C 
ATOM     12  C   UNL     1       3.733  14.988  17.785  0.00  0.00    +0.000 C 
ATOM     13  O   UNL     1       5.006  16.864  18.528  0.00  0.00    +0.000 OA
ATOM     14  C   UNL     1       6.037  16.217  19.180  0.00  0.00    +0.000 A 
ATOM     15  C   UNL     1       7.144  15.799  18.377  0.00  0.00    +0.000 A 
ATOM     16  C   UNL     1       7.995  14.905  18.897  0.00  0.00    +0.000 A 
ATOM     17  O   UNL     1       7.851  14.393  20.207  0.00  0.00    +0.000 OA
ATOM     18  C   UNL     1       6.830  14.815  21.016  0.00  0.00    +0.000 A 
ATOM     19  O   UNL     1       6.589  14.270  22.086  0.00  0.00    +0.000 OA
ATOM     20  C   UNL     1       5.954  15.845  20.461  0.00  0.00    +0.000 A 
ATOM     21  C   UNL     1       4.680  16.276  21.062  0.00  0.00    +0.000 C 
ATOM     22  O   UNL     1       4.620  16.928  22.092  0.00  0.00    +0.000 OA
ATOM     23  C   UNL     1       3.506  15.820  20.245  0.00  0.00    +0.000 C 
ENDROOT
BRANCH  16  24
ATOM     24  C   UNL     1       9.153  14.388  18.178  0.00  0.00    +0.000 A 
ATOM     25  C   UNL     1      10.104  15.283  17.694  0.00  0.00    +0.000 A 
ATOM     26  C   UNL     1      11.222  14.768  17.065  0.00  0.00    +0.000 A 
ATOM     27  N   UNL     1      11.440  13.448  16.884  0.00  0.00    +0.000 NA
ATOM     28  C   UNL     1      10.499  12.602  17.358  0.00  0.00    +0.000 A 
ATOM     29  C   UNL     1       9.346  13.017  18.003  0.00  0.00    +0.000 A 
ENDBRANCH  16  24
BRANCH   5  30
ATOM     30  O   UNL     1      -2.016  16.192  22.335  0.00  0.00    +0.000 OA
ATOM     31  H   UNL     1      -1.896  15.995  23.287  0.00  0.00    +0.000 HD
ENDBRANCH   5  30
BRANCH  10  32
ATOM     32  O   UNL     1       2.734  17.517  16.888  0.00  0.00    +0.000 OA
ATOM     33  H   UNL     1       3.520  17.085  16.511  0.00  0.00    +0.000 HD
ENDBRANCH  10  32
BRANCH   6  34
ATOM     34  C   UNL     1      -1.494  17.124  19.538  0.00  0.00    +0.000 C 
BRANCH  34  35
ATOM     35  O   UNL     1      -2.835  16.633  19.587  0.00  0.00    +0.000 OA
ATOM     36  H   UNL     1      -2.853  15.908  20.238  0.00  0.00    +0.000 HD
ENDBRANCH  34  35
ENDBRANCH   6  34
TORSDOF 5
ENDMDL
