MODEL 1
REMARK VINA RESULT:      -7.4      0.000      0.000
REMARK  Name = 
REMARK  1 active torsions:
REMARK  status: ('A' for Active; 'I' for Inactive)
REMARK    1  A    between atoms: C_15  and  C_16
REMARK                            x       y       z     vdW  Elec       q    Type
REMARK                         _______ _______ _______ _____ _____    ______ ____
ROOT
ATOM      1  O   UNL     1      -1.188  11.131  23.512  0.00  0.00    +0.000 OA
ATOM      2  C   UNL     1      -1.368  11.195  22.291  0.00  0.00    +0.000 C 
ATOM      3  N   UNL     1      -2.146  12.207  21.762  0.00  0.00    +0.000 N 
ATOM      4  C   UNL     1      -2.441  13.389  22.589  0.00  0.00    +0.000 C 
ATOM      5  C   UNL     1      -3.912  13.800  22.474  0.00  0.00    +0.000 C 
ATOM      6  O   UNL     1      -4.285  14.012  21.104  0.00  0.00    +0.000 OA
ATOM      7  C   UNL     1      -4.141  12.798  20.373  0.00  0.00    +0.000 C 
ATOM      8  C   UNL     1      -2.705  12.297  20.413  0.00  0.00    +0.000 C 
ATOM      9  N   UNL     1      -0.788  10.259  21.455  0.00  0.00    +0.000 N 
ATOM     10  C   UNL     1      -0.542  10.393  20.025  0.00  0.00    +0.000 C 
ATOM     11  C   UNL     1       0.936  10.387  19.673  0.00  0.00    +0.000 C 
ATOM     12  N   UNL     1       1.557   9.180  20.178  0.00  0.00    +0.000 N 
ATOM     13  C   UNL     1       2.046   8.240  19.330  0.00  0.00    +0.000 A 
ATOM     14  N   UNL     1       2.120   6.956  19.599  0.00  0.00    +0.000 NA
ATOM     15  C   UNL     1       2.677   6.263  18.536  0.00  0.00    +0.000 A 
ATOM     16  C   UNL     1       3.025   7.030  17.446  0.00  0.00    +0.000 A 
ATOM     17  S   UNL     1       2.670   8.660  17.757  0.00  0.00    +0.000 S 
ATOM     18  C   UNL     1       1.358   8.928  21.614  0.00  0.00    +0.000 C 
ATOM     19  C   UNL     1      -0.129   9.065  22.033  0.00  0.00    +0.000 C 
ENDROOT
BRANCH  15  20
ATOM     20  C   UNL     1       2.844   4.824  18.578  0.00  0.00    +0.000 A 
ATOM     21  C   UNL     1       3.889   4.272  19.332  0.00  0.00    +0.000 A 
ATOM     22  C   UNL     1       4.053   2.890  19.394  0.00  0.00    +0.000 A 
ATOM     23  C   UNL     1       3.180   2.061  18.693  0.00  0.00    +0.000 A 
ATOM     24  F   UNL     1       3.342   0.741  18.760  0.00  0.00    +0.000 F 
ATOM     25  C   UNL     1       2.149   2.589  17.927  0.00  0.00    +0.000 A 
ATOM     26  C   UNL     1       1.977   3.970  17.874  0.00  0.00    +0.000 A 
ENDBRANCH  15  20
TORSDOF 1
ENDMDL
MODEL 2
REMARK VINA RESULT:      -7.3      1.393      1.560
REMARK  Name = 
REMARK  1 active torsions:
REMARK  status: ('A' for Active; 'I' for Inactive)
REMARK    1  A    between atoms: C_15  and  C_16
REMARK                            x       y       z     vdW  Elec       q    Type
REMARK                         _______ _______ _______ _____ _____    ______ ____
ROOT
ATOM      1  O   UNL     1      -1.581  12.748  23.433  0.00  0.00    +0.000 OA
ATOM      2  C   UNL     1      -1.910  12.490  22.270  0.00  0.00    +0.000 C 
ATOM      3  N   UNL     1      -2.870  13.259  21.640  0.00  0.00    +0.000 N 
ATOM      4  C   UNL     1      -3.216  14.574  22.204  0.00  0.00    +0.000 C 
ATOM      5  C   UNL     1      -4.730  14.800  22.212  0.00  0.00    +0.000 C 
ATOM      6  O   UNL     1      -5.286  14.630  20.899  0.00  0.00    +0.000 OA
ATOM      7  C   UNL     1      -5.074  13.292  20.457  0.00  0.00    +0.000 C 
ATOM      8  C   UNL     1      -3.590  12.958  20.403  0.00  0.00    +0.000 C 
ATOM      9  N   UNL     1      -1.316  11.437  21.599  0.00  0.00    +0.000 N 
ATOM     10  C   UNL     1      -1.260  11.237  20.157  0.00  0.00    +0.000 C 
ATOM     11  C   UNL     1       0.155  11.287  19.604  0.00  0.00    +0.000 C 
ATOM     12  N   UNL     1       0.982  10.309  20.281  0.00  0.00    +0.000 N 
ATOM     13  C   UNL     1       1.485   9.240  19.612  0.00  0.00    +0.000 A 
ATOM     14  N   UNL     1       1.755   8.077  20.158  0.00  0.00    +0.000 NA
ATOM     15  C   UNL     1       2.268   7.200  19.215  0.00  0.00    +0.000 A 
ATOM     16  C   UNL     1       2.383   7.703  17.938  0.00  0.00    +0.000 A 
ATOM     17  S   UNL     1       1.860   9.317  17.911  0.00  0.00    +0.000 S 
ATOM     18  C   UNL     1       0.987  10.401  21.749  0.00  0.00    +0.000 C 
ATOM     19  C   UNL     1      -0.445  10.493  22.337  0.00  0.00    +0.000 C 
ENDROOT
BRANCH  15  20
ATOM     20  C   UNL     1       2.624   5.838  19.565  0.00  0.00    +0.000 A 
ATOM     21  C   UNL     1       3.679   5.206  18.893  0.00  0.00    +0.000 A 
ATOM     22  C   UNL     1       4.041   3.903  19.229  0.00  0.00    +0.000 A 
ATOM     23  C   UNL     1       3.342   3.230  20.228  0.00  0.00    +0.000 A 
ATOM     24  F   UNL     1       3.698   1.987  20.545  0.00  0.00    +0.000 F 
ATOM     25  C   UNL     1       2.284   3.834  20.895  0.00  0.00    +0.000 A 
ATOM     26  C   UNL     1       1.928   5.140  20.568  0.00  0.00    +0.000 A 
ENDBRANCH  15  20
TORSDOF 1
ENDMDL
MODEL 3
REMARK VINA RESULT:      -6.7      2.377      3.785
REMARK  Name = 
REMARK  1 active torsions:
REMARK  status: ('A' for Active; 'I' for Inactive)
REMARK    1  A    between atoms: C_15  and  C_16
REMARK                            x       y       z     vdW  Elec       q    Type
REMARK                         _______ _______ _______ _____ _____    ______ ____
ROOT
ATOM      1  O   UNL     1      -3.797  13.152  24.666  0.00  0.00    +0.000 OA
ATOM      2  C   UNL     1      -3.984  13.254  23.448  0.00  0.00    +0.000 C 
ATOM      3  N   UNL     1      -4.981  14.084  22.972  0.00  0.00    +0.000 N 
ATOM      4  C   UNL     1      -5.554  15.102  23.869  0.00  0.00    +0.000 C 
ATOM      5  C   UNL     1      -7.079  15.156  23.754  0.00  0.00    +0.000 C 
ATOM      6  O   UNL     1      -7.489  15.366  22.394  0.00  0.00    +0.000 OA
ATOM      7  C   UNL     1      -7.056  14.274  21.587  0.00  0.00    +0.000 C 
ATOM      8  C   UNL     1      -5.542  14.130  21.622  0.00  0.00    +0.000 C 
ATOM      9  N   UNL     1      -3.194  12.544  22.564  0.00  0.00    +0.000 N 
ATOM     10  C   UNL     1      -2.984  12.830  21.150  0.00  0.00    +0.000 C 
ATOM     11  C   UNL     1      -1.547  13.202  20.827  0.00  0.00    +0.000 C 
ATOM     12  N   UNL     1      -0.655  12.147  21.264  0.00  0.00    +0.000 N 
ATOM     13  C   UNL     1       0.047  11.411  20.365  0.00  0.00    +0.000 A 
ATOM     14  N   UNL     1       0.427  10.168  20.551  0.00  0.00    +0.000 NA
ATOM     15  C   UNL     1       1.136   9.702  19.455  0.00  0.00    +0.000 A 
ATOM     16  C   UNL     1       1.293  10.603  18.424  0.00  0.00    +0.000 A 
ATOM     17  S   UNL     1       0.556  12.075  18.835  0.00  0.00    +0.000 S 
ATOM     18  C   UNL     1      -0.792  11.757  22.675  0.00  0.00    +0.000 C 
ATOM     19  C   UNL     1      -2.269  11.505  23.075  0.00  0.00    +0.000 C 
ENDROOT
BRANCH  15  20
ATOM     20  C   UNL     1       1.644   8.345  19.406  0.00  0.00    +0.000 A 
ATOM     21  C   UNL     1       1.458   7.498  20.507  0.00  0.00    +0.000 A 
ATOM     22  C   UNL     1       1.928   6.187  20.468  0.00  0.00    +0.000 A 
ATOM     23  C   UNL     1       2.593   5.727  19.334  0.00  0.00    +0.000 A 
ATOM     24  F   UNL     1       3.035   4.472  19.304  0.00  0.00    +0.000 F 
ATOM     25  C   UNL     1       2.801   6.556  18.239  0.00  0.00    +0.000 A 
ATOM     26  C   UNL     1       2.321   7.863  18.272  0.00  0.00    +0.000 A 
ENDBRANCH  15  20
TORSDOF 1
ENDMDL
MODEL 4
REMARK VINA RESULT:      -6.7      2.261      3.555
REMARK  Name = 
REMARK  1 active torsions:
REMARK  status: ('A' for Active; 'I' for Inactive)
REMARK    1  A    between atoms: C_15  and  C_16
REMARK                            x       y       z     vdW  Elec       q    Type
REMARK                         _______ _______ _______ _____ _____    ______ ____
ROOT
ATOM      1  O   UNL     1      -3.430  13.289  24.598  0.00  0.00    +0.000 OA
ATOM      2  C   UNL     1      -3.684  13.280  23.389  0.00  0.00    +0.000 C 
ATOM      3  N   UNL     1      -4.713  14.060  22.896  0.00  0.00    +0.000 N 
ATOM      4  C   UNL     1      -5.244  15.152  23.729  0.00  0.00    +0.000 C 
ATOM      5  C   UNL     1      -6.774  15.191  23.694  0.00  0.00    +0.000 C 
ATOM      6  O   UNL     1      -7.260  15.276  22.346  0.00  0.00    +0.000 OA
ATOM      7  C   UNL     1      -6.863  14.117  21.618  0.00  0.00    +0.000 C 
ATOM      8  C   UNL     1      -5.348  13.981  21.580  0.00  0.00    +0.000 C 
ATOM      9  N   UNL     1      -2.938  12.495  22.529  0.00  0.00    +0.000 N 
ATOM     10  C   UNL     1      -2.809  12.653  21.086  0.00  0.00    +0.000 C 
ATOM     11  C   UNL     1      -1.395  13.000  20.651  0.00  0.00    +0.000 C 
ATOM     12  N   UNL     1      -0.472  11.991  21.131  0.00  0.00    +0.000 N 
ATOM     13  C   UNL     1       0.186  11.180  20.264  0.00  0.00    +0.000 A 
ATOM     14  N   UNL     1       0.586   9.959  20.540  0.00  0.00    +0.000 NA
ATOM     15  C   UNL     1       1.238   9.400  19.452  0.00  0.00    +0.000 A 
ATOM     16  C   UNL     1       1.329  10.204  18.338  0.00  0.00    +0.000 A 
ATOM     17  S   UNL     1       0.604  11.704  18.655  0.00  0.00    +0.000 S 
ATOM     18  C   UNL     1      -0.527  11.730  22.577  0.00  0.00    +0.000 C 
ATOM     19  C   UNL     1      -1.978  11.510  23.079  0.00  0.00    +0.000 C 
ENDROOT
BRANCH  15  20
ATOM     20  C   UNL     1       1.754   8.045  19.497  0.00  0.00    +0.000 A 
ATOM     21  C   UNL     1       2.558   7.578  18.449  0.00  0.00    +0.000 A 
ATOM     22  C   UNL     1       3.073   6.284  18.486  0.00  0.00    +0.000 A 
ATOM     23  C   UNL     1       2.774   5.454  19.564  0.00  0.00    +0.000 A 
ATOM     24  F   UNL     1       3.273   4.220  19.592  0.00  0.00    +0.000 F 
ATOM     25  C   UNL     1       1.966   5.893  20.604  0.00  0.00    +0.000 A 
ATOM     26  C   UNL     1       1.460   7.191  20.575  0.00  0.00    +0.000 A 
ENDBRANCH  15  20
TORSDOF 1
ENDMDL
MODEL 5
REMARK VINA RESULT:      -6.7      4.808      9.762
REMARK  Name = 
REMARK  1 active torsions:
REMARK  status: ('A' for Active; 'I' for Inactive)
REMARK    1  A    between atoms: C_15  and  C_16
REMARK                            x       y       z     vdW  Elec       q    Type
REMARK                         _______ _______ _______ _____ _____    ______ ____
ROOT
ATOM      1  O   UNL     1       1.918   5.920  20.527  0.00  0.00    +0.000 OA
ATOM      2  C   UNL     1       2.207   6.780  19.688  0.00  0.00    +0.000 C 
ATOM      3  N   UNL     1       2.887   6.421  18.540  0.00  0.00    +0.000 N 
ATOM      4  C   UNL     1       2.934   5.001  18.152  0.00  0.00    +0.000 C 
ATOM      5  C   UNL     1       4.338   4.590  17.700  0.00  0.00    +0.000 C 
ATOM      6  O   UNL     1       4.811   5.439  16.642  0.00  0.00    +0.000 OA
ATOM      7  C   UNL     1       4.908   6.781  17.111  0.00  0.00    +0.000 C 
ATOM      8  C   UNL     1       3.558   7.300  17.582  0.00  0.00    +0.000 C 
ATOM      9  N   UNL     1       1.845   8.098  19.894  0.00  0.00    +0.000 N 
ATOM     10  C   UNL     1       1.726   9.143  18.885  0.00  0.00    +0.000 C 
ATOM     11  C   UNL     1       0.304   9.656  18.728  0.00  0.00    +0.000 C 
ATOM     12  N   UNL     1      -0.192  10.131  20.004  0.00  0.00    +0.000 N 
ATOM     13  C   UNL     1      -0.461  11.446  20.201  0.00  0.00    +0.000 A 
ATOM     14  N   UNL     1      -0.384  12.059  21.361  0.00  0.00    +0.000 NA
ATOM     15  C   UNL     1      -0.734  13.394  21.234  0.00  0.00    +0.000 A 
ATOM     16  C   UNL     1      -1.075  13.799  19.963  0.00  0.00    +0.000 A 
ATOM     17  S   UNL     1      -0.980  12.482  18.898  0.00  0.00    +0.000 S 
ATOM     18  C   UNL     1      -0.102   9.164  21.108  0.00  0.00    +0.000 C 
ATOM     19  C   UNL     1       1.304   8.515  21.208  0.00  0.00    +0.000 C 
ENDROOT
BRANCH  15  20
ATOM     20  C   UNL     1      -0.705  14.293  22.372  0.00  0.00    +0.000 A 
ATOM     21  C   UNL     1       0.099  15.440  22.324  0.00  0.00    +0.000 A 
ATOM     22  C   UNL     1       0.125  16.321  23.404  0.00  0.00    +0.000 A 
ATOM     23  C   UNL     1      -0.642  16.048  24.534  0.00  0.00    +0.000 A 
ATOM     24  F   UNL     1      -0.613  16.896  25.560  0.00  0.00    +0.000 F 
ATOM     25  C   UNL     1      -1.432  14.908  24.606  0.00  0.00    +0.000 A 
ATOM     26  C   UNL     1      -1.468  14.033  23.523  0.00  0.00    +0.000 A 
ENDBRANCH  15  20
TORSDOF 1
ENDMDL
MODEL 6
REMARK VINA RESULT:      -6.7      3.347      4.144
REMARK  Name = 
REMARK  1 active torsions:
REMARK  status: ('A' for Active; 'I' for Inactive)
REMARK    1  A    between atoms: C_15  and  C_16
REMARK                            x       y       z     vdW  Elec       q    Type
REMARK                         _______ _______ _______ _____ _____    ______ ____
ROOT
ATOM      1  O   UNL     1      -0.170  14.952  18.594  0.00  0.00    +0.000 OA
ATOM      2  C   UNL     1       0.389  14.546  19.619  0.00  0.00    +0.000 C 
ATOM      3  N   UNL     1       0.478  15.367  20.727  0.00  0.00    +0.000 N 
ATOM      4  C   UNL     1      -0.397  16.549  20.812  0.00  0.00    +0.000 C 
ATOM      5  C   UNL     1       0.371  17.780  21.302  0.00  0.00    +0.000 C 
ATOM      6  O   UNL     1       1.024  17.519  22.554  0.00  0.00    +0.000 OA
ATOM      7  C   UNL     1       1.982  16.478  22.388  0.00  0.00    +0.000 C 
ATOM      8  C   UNL     1       1.324  15.193  21.907  0.00  0.00    +0.000 C 
ATOM      9  N   UNL     1       0.921  13.270  19.659  0.00  0.00    +0.000 N 
ATOM     10  C   UNL     1       1.234  12.488  20.848  0.00  0.00    +0.000 C 
ATOM     11  C   UNL     1       0.388  11.231  20.971  0.00  0.00    +0.000 C 
ATOM     12  N   UNL     1       0.538  10.419  19.780  0.00  0.00    +0.000 N 
ATOM     13  C   UNL     1       1.138   9.203  19.837  0.00  0.00    +0.000 A 
ATOM     14  N   UNL     1       1.794   8.646  18.844  0.00  0.00    +0.000 NA
ATOM     15  C   UNL     1       2.277   7.401  19.213  0.00  0.00    +0.000 A 
ATOM     16  C   UNL     1       1.989   7.011  20.502  0.00  0.00    +0.000 A 
ATOM     17  S   UNL     1       1.074   8.214  21.272  0.00  0.00    +0.000 S 
ATOM     18  C   UNL     1       0.266  11.112  18.512  0.00  0.00    +0.000 C 
ATOM     19  C   UNL     1       1.009  12.471  18.415  0.00  0.00    +0.000 C 
ENDROOT
BRANCH  15  20
ATOM     20  C   UNL     1       3.059   6.593  18.296  0.00  0.00    +0.000 A 
ATOM     21  C   UNL     1       4.030   7.206  17.492  0.00  0.00    +0.000 A 
ATOM     22  C   UNL     1       4.799   6.440  16.618  0.00  0.00    +0.000 A 
ATOM     23  C   UNL     1       4.588   5.066  16.539  0.00  0.00    +0.000 A 
ATOM     24  F   UNL     1       5.329   4.341  15.703  0.00  0.00    +0.000 F 
ATOM     25  C   UNL     1       3.620   4.443  17.316  0.00  0.00    +0.000 A 
ATOM     26  C   UNL     1       2.859   5.205  18.199  0.00  0.00    +0.000 A 
ENDBRANCH  15  20
TORSDOF 1
ENDMDL
MODEL 7
REMARK VINA RESULT:      -6.6      3.580      4.425
REMARK  Name = 
REMARK  1 active torsions:
REMARK  status: ('A' for Active; 'I' for Inactive)
REMARK    1  A    between atoms: C_15  and  C_16
REMARK                            x       y       z     vdW  Elec       q    Type
REMARK                         _______ _______ _______ _____ _____    ______ ____
ROOT
ATOM      1  O   UNL     1       0.243  15.348  18.555  0.00  0.00    +0.000 OA
ATOM      2  C   UNL     1       0.733  14.921  19.607  0.00  0.00    +0.000 C 
ATOM      3  N   UNL     1       0.847  15.757  20.701  0.00  0.00    +0.000 N 
ATOM      4  C   UNL     1       0.065  17.005  20.733  0.00  0.00    +0.000 C 
ATOM      5  C   UNL     1       0.910  18.183  21.227  0.00  0.00    +0.000 C 
ATOM      6  O   UNL     1       1.496  17.899  22.506  0.00  0.00    +0.000 OA
ATOM      7  C   UNL     1       2.376  16.783  22.395  0.00  0.00    +0.000 C 
ATOM      8  C   UNL     1       1.636  15.544  21.915  0.00  0.00    +0.000 C 
ATOM      9  N   UNL     1       1.162  13.610  19.690  0.00  0.00    +0.000 N 
ATOM     10  C   UNL     1       1.372  12.831  20.904  0.00  0.00    +0.000 C 
ATOM     11  C   UNL     1       0.426  11.647  21.020  0.00  0.00    +0.000 C 
ATOM     12  N   UNL     1       0.553  10.800  19.851  0.00  0.00    +0.000 N 
ATOM     13  C   UNL     1       1.054   9.543  19.952  0.00  0.00    +0.000 A 
ATOM     14  N   UNL     1       1.699   8.916  18.994  0.00  0.00    +0.000 NA
ATOM     15  C   UNL     1       2.070   7.645  19.403  0.00  0.00    +0.000 A 
ATOM     16  C   UNL     1       1.707   7.306  20.688  0.00  0.00    +0.000 A 
ATOM     17  S   UNL     1       0.863   8.593  21.402  0.00  0.00    +0.000 S 
ATOM     18  C   UNL     1       0.381  11.485  18.560  0.00  0.00    +0.000 C 
ATOM     19  C   UNL     1       1.230  12.780  18.465  0.00  0.00    +0.000 C 
ENDROOT
BRANCH  15  20
ATOM     20  C   UNL     1       2.817   6.759  18.531  0.00  0.00    +0.000 A 
ATOM     21  C   UNL     1       2.509   5.393  18.506  0.00  0.00    +0.000 A 
ATOM     22  C   UNL     1       3.208   4.532  17.663  0.00  0.00    +0.000 A 
ATOM     23  C   UNL     1       4.223   5.037  16.853  0.00  0.00    +0.000 A 
ATOM     24  F   UNL     1       4.885   4.209  16.048  0.00  0.00    +0.000 F 
ATOM     25  C   UNL     1       4.555   6.386  16.875  0.00  0.00    +0.000 A 
ATOM     26  C   UNL     1       3.848   7.249  17.710  0.00  0.00    +0.000 A 
ENDBRANCH  15  20
TORSDOF 1
ENDMDL
MODEL 8
REMARK VINA RESULT:      -6.6      3.121      3.899
REMARK  Name = 
REMARK  1 active torsions:
REMARK  status: ('A' for Active; 'I' for Inactive)
REMARK    1  A    between atoms: C_15  and  C_16
REMARK                            x       y       z     vdW  Elec       q    Type
REMARK                         _______ _______ _______ _____ _____    ______ ____
ROOT
ATOM      1  O   UNL     1      -0.401  14.311  18.554  0.00  0.00    +0.000 OA
ATOM      2  C   UNL     1       0.203  13.920  19.559  0.00  0.00    +0.000 C 
ATOM      3  N   UNL     1       0.238  14.712  20.691  0.00  0.00    +0.000 N 
ATOM      4  C   UNL     1      -0.729  15.814  20.824  0.00  0.00    +0.000 C 
ATOM      5  C   UNL     1      -0.058  17.088  21.344  0.00  0.00    +0.000 C 
ATOM      6  O   UNL     1       0.630  16.843  22.580  0.00  0.00    +0.000 OA
ATOM      7  C   UNL     1       1.669  15.890  22.371  0.00  0.00    +0.000 C 
ATOM      8  C   UNL     1       1.111  14.571  21.857  0.00  0.00    +0.000 C 
ATOM      9  N   UNL     1       0.837  12.692  19.552  0.00  0.00    +0.000 N 
ATOM     10  C   UNL     1       1.229  11.901  20.712  0.00  0.00    +0.000 C 
ATOM     11  C   UNL     1       0.490  10.576  20.804  0.00  0.00    +0.000 C 
ATOM     12  N   UNL     1       0.690   9.817  19.587  0.00  0.00    +0.000 N 
ATOM     13  C   UNL     1       1.388   8.653  19.598  0.00  0.00    +0.000 A 
ATOM     14  N   UNL     1       2.075   8.183  18.581  0.00  0.00    +0.000 NA
ATOM     15  C   UNL     1       2.663   6.971  18.905  0.00  0.00    +0.000 A 
ATOM     16  C   UNL     1       2.424   6.518  20.184  0.00  0.00    +0.000 A 
ATOM     17  S   UNL     1       1.424   7.618  21.001  0.00  0.00    +0.000 S 
ATOM     18  C   UNL     1       0.346  10.524  18.344  0.00  0.00    +0.000 C 
ATOM     19  C   UNL     1       0.974  11.942  18.283  0.00  0.00    +0.000 C 
ENDROOT
BRANCH  15  20
ATOM     20  C   UNL     1       3.496   6.259  17.955  0.00  0.00    +0.000 A 
ATOM     21  C   UNL     1       3.361   4.870  17.824  0.00  0.00    +0.000 A 
ATOM     22  C   UNL     1       4.144   4.174  16.905  0.00  0.00    +0.000 A 
ATOM     23  C   UNL     1       5.069   4.865  16.127  0.00  0.00    +0.000 A 
ATOM     24  F   UNL     1       5.811   4.194  15.249  0.00  0.00    +0.000 F 
ATOM     25  C   UNL     1       5.229   6.239  16.253  0.00  0.00    +0.000 A 
ATOM     26  C   UNL     1       4.438   6.937  17.163  0.00  0.00    +0.000 A 
ENDBRANCH  15  20
TORSDOF 1
ENDMDL
MODEL 9
REMARK VINA RESULT:      -6.6      1.677      2.574
REMARK  Name = 
REMARK  1 active torsions:
REMARK  status: ('A' for Active; 'I' for Inactive)
REMARK    1  A    between atoms: C_15  and  C_16
REMARK                            x       y       z     vdW  Elec       q    Type
REMARK                         _______ _______ _______ _____ _____    ______ ____
ROOT
ATOM      1  O   UNL     1      -2.832  13.050  23.828  0.00  0.00    +0.000 OA
ATOM      2  C   UNL     1      -3.001  12.994  22.605  0.00  0.00    +0.000 C 
ATOM      3  N   UNL     1      -3.914  13.835  21.997  0.00  0.00    +0.000 N 
ATOM      4  C   UNL     1      -4.396  15.017  22.731  0.00  0.00    +0.000 C 
ATOM      5  C   UNL     1      -5.910  15.192  22.579  0.00  0.00    +0.000 C 
ATOM      6  O   UNL     1      -6.289  15.243  21.195  0.00  0.00    +0.000 OA
ATOM      7  C   UNL     1      -5.953  14.012  20.559  0.00  0.00    +0.000 C 
ATOM      8  C   UNL     1      -4.459  13.738  20.643  0.00  0.00    +0.000 C 
ATOM      9  N   UNL     1      -2.273  12.097  21.845  0.00  0.00    +0.000 N 
ATOM     10  C   UNL     1      -2.029  12.160  20.410  0.00  0.00    +0.000 C 
ATOM     11  C   UNL     1      -0.561  12.351  20.065  0.00  0.00    +0.000 C 
ATOM     12  N   UNL     1       0.227  11.292  20.664  0.00  0.00    +0.000 N 
ATOM     13  C   UNL     1       0.864  10.376  19.892  0.00  0.00    +0.000 A 
ATOM     14  N   UNL     1       1.127   9.142  20.258  0.00  0.00    +0.000 NA
ATOM     15  C   UNL     1       1.798   8.464  19.253  0.00  0.00    +0.000 A 
ATOM     16  C   UNL     1       2.043   9.191  18.109  0.00  0.00    +0.000 A 
ATOM     17  S   UNL     1       1.443  10.767  18.294  0.00  0.00    +0.000 S 
ATOM     18  C   UNL     1       0.045  11.121  22.114  0.00  0.00    +0.000 C 
ATOM     19  C   UNL     1      -1.452  11.062  22.515  0.00  0.00    +0.000 C 
ENDROOT
BRANCH  15  20
ATOM     20  C   UNL     1       2.179   7.073  19.405  0.00  0.00    +0.000 A 
ATOM     21  C   UNL     1       2.945   6.454  18.408  0.00  0.00    +0.000 A 
ATOM     22  C   UNL     1       3.331   5.123  18.548  0.00  0.00    +0.000 A 
ATOM     23  C   UNL     1       2.941   4.408  19.678  0.00  0.00    +0.000 A 
ATOM     24  F   UNL     1       3.317   3.137  19.805  0.00  0.00    +0.000 F 
ATOM     25  C   UNL     1       2.169   4.999  20.670  0.00  0.00    +0.000 A 
ATOM     26  C   UNL     1       1.792   6.334  20.537  0.00  0.00    +0.000 A 
ENDBRANCH  15  20
TORSDOF 1
ENDMDL
