MODEL 1
REMARK VINA RESULT:      -6.6      0.000      0.000
REMARK  Name = 
REMARK  4 active torsions:
REMARK  status: ('A' for Active; 'I' for Inactive)
REMARK    1  A    between atoms: C_1  and  C_2
REMARK    2  A    between atoms: N_4  and  C_5
REMARK    3  A    between atoms: C_11  and  N_12
REMARK    4  A    between atoms: N_26  and  C_27
REMARK                            x       y       z     vdW  Elec       q    Type
REMARK                         _______ _______ _______ _____ _____    ______ ____
ROOT
ATOM      1  C   UNL     1      12.326  16.520  21.050  0.00  0.00    +0.000 C 
ATOM      2  C   UNL     1      12.128  16.428  19.568  0.00  0.00    +0.000 A 
ATOM      3  N   UNL     1      12.085  17.604  18.918  0.00  0.00    +0.000 NA
ATOM      4  N   UNL     1      10.906  17.510  18.284  0.00  0.00    +0.000 N 
ATOM      5  C   UNL     1      10.429  18.631  17.514  0.00  0.00    +0.000 C 
ATOM      6  C   UNL     1      10.293  16.305  18.562  0.00  0.00    +0.000 A 
ATOM      7  C   UNL     1      11.403  15.473  18.780  0.00  0.00    +0.000 A 
ATOM      8  C   UNL     1      11.318  14.016  18.695  0.00  0.00    +0.000 A 
ATOM      9  C   UNL     1      10.599  13.410  17.646  0.00  0.00    +0.000 A 
ATOM     10  N   UNL     1      10.137  12.136  17.629  0.00  0.00    +0.000 NA
ATOM     11  C   UNL     1      10.280  11.433  18.767  0.00  0.00    +0.000 A 
ATOM     12  C   UNL     1      11.039  11.961  19.835  0.00  0.00    +0.000 A 
ATOM     13  C   UNL     1      11.782  13.151  19.677  0.00  0.00    +0.000 A 
ATOM     14  O   UNL     1      10.428  11.845  21.134  0.00  0.00    +0.000 OA
ATOM     15  C   UNL     1       9.570  13.010  21.136  0.00  0.00    +0.000 C 
ATOM     16  C   UNL     1       8.722  13.437  22.277  0.00  0.00    +0.000 A 
ATOM     17  C   UNL     1       8.502  12.595  23.367  0.00  0.00    +0.000 A 
ATOM     18  C   UNL     1       7.973  13.140  24.521  0.00  0.00    +0.000 A 
ATOM     19  F   UNL     1       7.795  12.356  25.595  0.00  0.00    +0.000 F 
ATOM     20  C   UNL     1       7.687  14.499  24.606  0.00  0.00    +0.000 A 
ATOM     21  C   UNL     1       7.836  15.328  23.484  0.00  0.00    +0.000 A 
ATOM     22  C   UNL     1       8.290  14.797  22.272  0.00  0.00    +0.000 A 
ATOM     23  C   UNL     1       8.481  15.758  21.084  0.00  0.00    +0.000 C 
ATOM     24  O   UNL     1       8.788  16.928  21.336  0.00  0.00    +0.000 OA
ATOM     25  N   UNL     1       8.354  15.302  19.751  0.00  0.00    +0.000 N 
ATOM     26  C   UNL     1       7.221  14.453  19.400  0.00  0.00    +0.000 C 
ATOM     27  C   UNL     1       8.804  16.160  18.629  0.00  0.00    +0.000 C 
ENDROOT
BRANCH  11  28
ATOM     28  N   UNL     1       9.506  10.281  18.908  0.00  0.00    +0.000 N 
ATOM     29  H   UNL     1       8.765  10.467  19.576  0.00  0.00    +0.000 HD
ATOM     30  H   UNL     1      10.071   9.477  19.123  0.00  0.00    +0.000 HD
ENDBRANCH  11  28
TORSDOF 1
ENDMDL
MODEL 2
REMARK VINA RESULT:      -6.5      2.201      4.433
REMARK  Name = 
REMARK  4 active torsions:
REMARK  status: ('A' for Active; 'I' for Inactive)
REMARK    1  A    between atoms: C_1  and  C_2
REMARK    2  A    between atoms: N_4  and  C_5
REMARK    3  A    between atoms: C_11  and  N_12
REMARK    4  A    between atoms: N_26  and  C_27
REMARK                            x       y       z     vdW  Elec       q    Type
REMARK                         _______ _______ _______ _____ _____    ______ ____
ROOT
ATOM      1  C   UNL     1       8.579  11.804  18.197  0.00  0.00    +0.000 C 
ATOM      2  C   UNL     1       9.078  13.076  17.583  0.00  0.00    +0.000 A 
ATOM      3  N   UNL     1      10.311  13.013  17.050  0.00  0.00    +0.000 NA
ATOM      4  N   UNL     1      10.928  14.013  17.698  0.00  0.00    +0.000 N 
ATOM      5  C   UNL     1      12.331  14.241  17.468  0.00  0.00    +0.000 C 
ATOM      6  C   UNL     1      10.064  14.636  18.576  0.00  0.00    +0.000 A 
ATOM      7  C   UNL     1       8.829  14.445  17.935  0.00  0.00    +0.000 A 
ATOM      8  C   UNL     1       7.658  15.266  18.232  0.00  0.00    +0.000 A 
ATOM      9  C   UNL     1       7.790  16.661  18.374  0.00  0.00    +0.000 A 
ATOM     10  N   UNL     1       6.905  17.488  18.984  0.00  0.00    +0.000 NA
ATOM     11  C   UNL     1       5.869  16.899  19.607  0.00  0.00    +0.000 A 
ATOM     12  C   UNL     1       5.647  15.512  19.457  0.00  0.00    +0.000 A 
ATOM     13  C   UNL     1       6.405  14.753  18.538  0.00  0.00    +0.000 A 
ATOM     14  O   UNL     1       5.365  14.803  20.678  0.00  0.00    +0.000 OA
ATOM     15  C   UNL     1       6.705  14.559  21.167  0.00  0.00    +0.000 C 
ATOM     16  C   UNL     1       7.032  13.796  22.398  0.00  0.00    +0.000 A 
ATOM     17  C   UNL     1       6.044  13.455  23.320  0.00  0.00    +0.000 A 
ATOM     18  C   UNL     1       6.336  12.499  24.272  0.00  0.00    +0.000 A 
ATOM     19  F   UNL     1       5.386  12.125  25.142  0.00  0.00    +0.000 F 
ATOM     20  C   UNL     1       7.578  11.872  24.300  0.00  0.00    +0.000 A 
ATOM     21  C   UNL     1       8.596  12.271  23.421  0.00  0.00    +0.000 A 
ATOM     22  C   UNL     1       8.365  13.295  22.496  0.00  0.00    +0.000 A 
ATOM     23  C   UNL     1       9.500  13.664  21.522  0.00  0.00    +0.000 C 
ATOM     24  O   UNL     1      10.281  12.769  21.186  0.00  0.00    +0.000 OA
ATOM     25  N   UNL     1       9.611  14.973  20.997  0.00  0.00    +0.000 N 
ATOM     26  C   UNL     1       9.474  16.110  21.901  0.00  0.00    +0.000 C 
ATOM     27  C   UNL     1      10.530  15.240  19.865  0.00  0.00    +0.000 C 
ENDROOT
BRANCH  11  28
ATOM     28  N   UNL     1       5.163  17.664  20.535  0.00  0.00    +0.000 N 
ATOM     29  H   UNL     1       4.922  18.553  20.107  0.00  0.00    +0.000 HD
ATOM     30  H   UNL     1       5.657  17.741  21.407  0.00  0.00    +0.000 HD
ENDBRANCH  11  28
TORSDOF 1
ENDMDL
MODEL 3
REMARK VINA RESULT:      -6.5      9.947     12.600
REMARK  Name = 
REMARK  4 active torsions:
REMARK  status: ('A' for Active; 'I' for Inactive)
REMARK    1  A    between atoms: C_1  and  C_2
REMARK    2  A    between atoms: N_4  and  C_5
REMARK    3  A    between atoms: C_11  and  N_12
REMARK    4  A    between atoms: N_26  and  C_27
REMARK                            x       y       z     vdW  Elec       q    Type
REMARK                         _______ _______ _______ _____ _____    ______ ____
ROOT
ATOM      1  C   UNL     1      -4.723  13.434  20.450  0.00  0.00    +0.000 C 
ATOM      2  C   UNL     1      -4.041  12.628  21.513  0.00  0.00    +0.000 A 
ATOM      3  N   UNL     1      -4.704  12.537  22.680  0.00  0.00    +0.000 NA
ATOM      4  N   UNL     1      -3.779  12.988  23.542  0.00  0.00    +0.000 N 
ATOM      5  C   UNL     1      -4.123  13.128  24.934  0.00  0.00    +0.000 C 
ATOM      6  C   UNL     1      -2.614  13.324  22.882  0.00  0.00    +0.000 A 
ATOM      7  C   UNL     1      -2.647  12.438  21.792  0.00  0.00    +0.000 A 
ATOM      8  C   UNL     1      -1.451  12.095  21.026  0.00  0.00    +0.000 A 
ATOM      9  C   UNL     1      -0.239  11.822  21.692  0.00  0.00    +0.000 A 
ATOM     10  N   UNL     1       0.998  11.845  21.136  0.00  0.00    +0.000 NA
ATOM     11  C   UNL     1       1.075  12.283  19.867  0.00  0.00    +0.000 A 
ATOM     12  C   UNL     1      -0.104  12.520  19.126  0.00  0.00    +0.000 A 
ATOM     13  C   UNL     1      -1.368  12.158  19.642  0.00  0.00    +0.000 A 
ATOM     14  O   UNL     1      -0.126  13.759  18.393  0.00  0.00    +0.000 OA
ATOM     15  C   UNL     1      -0.561  14.677  19.424  0.00  0.00    +0.000 C 
ATOM     16  C   UNL     1      -0.818  16.124  19.216  0.00  0.00    +0.000 A 
ATOM     17  C   UNL     1      -0.422  16.767  18.044  0.00  0.00    +0.000 A 
ATOM     18  C   UNL     1      -0.947  18.014  17.769  0.00  0.00    +0.000 A 
ATOM     19  F   UNL     1      -0.612  18.631  16.627  0.00  0.00    +0.000 F 
ATOM     20  C   UNL     1      -1.868  18.608  18.627  0.00  0.00    +0.000 A 
ATOM     21  C   UNL     1      -2.206  17.995  19.843  0.00  0.00    +0.000 A 
ATOM     22  C   UNL     1      -1.631  16.770  20.196  0.00  0.00    +0.000 A 
ATOM     23  C   UNL     1      -2.071  16.115  21.519  0.00  0.00    +0.000 C 
ATOM     24  O   UNL     1      -3.223  16.329  21.910  0.00  0.00    +0.000 OA
ATOM     25  N   UNL     1      -1.198  15.262  22.234  0.00  0.00    +0.000 N 
ATOM     26  C   UNL     1       0.187  15.674  22.433  0.00  0.00    +0.000 C 
ATOM     27  C   UNL     1      -1.721  14.433  23.346  0.00  0.00    +0.000 C 
ENDROOT
BRANCH  11  28
ATOM     28  N   UNL     1       2.332  12.664  19.399  0.00  0.00    +0.000 N 
ATOM     29  H   UNL     1       2.849  13.088  20.164  0.00  0.00    +0.000 HD
ATOM     30  H   UNL     1       2.264  13.235  18.574  0.00  0.00    +0.000 HD
ENDBRANCH  11  28
TORSDOF 1
ENDMDL
MODEL 4
REMARK VINA RESULT:      -6.2     10.586     13.070
REMARK  Name = 
REMARK  4 active torsions:
REMARK  status: ('A' for Active; 'I' for Inactive)
REMARK    1  A    between atoms: C_1  and  C_2
REMARK    2  A    between atoms: N_4  and  C_5
REMARK    3  A    between atoms: C_11  and  N_12
REMARK    4  A    between atoms: N_26  and  C_27
REMARK                            x       y       z     vdW  Elec       q    Type
REMARK                         _______ _______ _______ _____ _____    ______ ____
ROOT
ATOM      1  C   UNL     1      -0.931  16.518  20.449  0.00  0.00    +0.000 C 
ATOM      2  C   UNL     1      -1.652  16.680  21.752  0.00  0.00    +0.000 A 
ATOM      3  N   UNL     1      -0.974  17.340  22.707  0.00  0.00    +0.000 NA
ATOM      4  N   UNL     1      -1.000  16.449  23.711  0.00  0.00    +0.000 N 
ATOM      5  C   UNL     1      -0.296  16.743  24.932  0.00  0.00    +0.000 C 
ATOM      6  C   UNL     1      -1.682  15.308  23.337  0.00  0.00    +0.000 A 
ATOM      7  C   UNL     1      -2.599  15.825  22.408  0.00  0.00    +0.000 A 
ATOM      8  C   UNL     1      -3.819  15.113  22.034  0.00  0.00    +0.000 A 
ATOM      9  C   UNL     1      -4.604  14.488  23.023  0.00  0.00    +0.000 A 
ATOM     10  N   UNL     1      -5.529  13.518  22.811  0.00  0.00    +0.000 NA
ATOM     11  C   UNL     1      -5.613  13.036  21.559  0.00  0.00    +0.000 A 
ATOM     12  C   UNL     1      -4.896  13.656  20.511  0.00  0.00    +0.000 A 
ATOM     13  C   UNL     1      -4.209  14.871  20.724  0.00  0.00    +0.000 A 
ATOM     14  O   UNL     1      -4.193  12.754  19.636  0.00  0.00    +0.000 OA
ATOM     15  C   UNL     1      -2.970  12.548  20.383  0.00  0.00    +0.000 C 
ATOM     16  C   UNL     1      -1.821  11.729  19.921  0.00  0.00    +0.000 A 
ATOM     17  C   UNL     1      -1.935  10.886  18.816  0.00  0.00    +0.000 A 
ATOM     18  C   UNL     1      -0.778  10.390  18.247  0.00  0.00    +0.000 A 
ATOM     19  F   UNL     1      -0.863   9.612  17.158  0.00  0.00    +0.000 F 
ATOM     20  C   UNL     1       0.473  10.740  18.747  0.00  0.00    +0.000 A 
ATOM     21  C   UNL     1       0.582  11.526  19.904  0.00  0.00    +0.000 A 
ATOM     22  C   UNL     1      -0.569  11.979  20.558  0.00  0.00    +0.000 A 
ATOM     23  C   UNL     1      -0.395  12.877  21.797  0.00  0.00    +0.000 C 
ATOM     24  O   UNL     1       0.601  13.606  21.841  0.00  0.00    +0.000 OA
ATOM     25  N   UNL     1      -1.367  12.897  22.824  0.00  0.00    +0.000 N 
ATOM     26  C   UNL     1      -1.898  11.631  23.318  0.00  0.00    +0.000 C 
ATOM     27  C   UNL     1      -1.325  13.952  23.864  0.00  0.00    +0.000 C 
ENDROOT
BRANCH  11  28
ATOM     28  N   UNL     1      -6.268  11.817  21.387  0.00  0.00    +0.000 N 
ATOM     29  H   UNL     1      -7.180  11.993  20.976  0.00  0.00    +0.000 HD
ATOM     30  H   UNL     1      -6.290  11.282  22.238  0.00  0.00    +0.000 HD
ENDBRANCH  11  28
TORSDOF 1
ENDMDL
MODEL 5
REMARK VINA RESULT:      -6.2      2.222      4.349
REMARK  Name = 
REMARK  4 active torsions:
REMARK  status: ('A' for Active; 'I' for Inactive)
REMARK    1  A    between atoms: C_1  and  C_2
REMARK    2  A    between atoms: N_4  and  C_5
REMARK    3  A    between atoms: C_11  and  N_12
REMARK    4  A    between atoms: N_26  and  C_27
REMARK                            x       y       z     vdW  Elec       q    Type
REMARK                         _______ _______ _______ _____ _____    ______ ____
ROOT
ATOM      1  C   UNL     1       9.256  13.103  18.075  0.00  0.00    +0.000 C 
ATOM      2  C   UNL     1       9.445  14.558  17.769  0.00  0.00    +0.000 A 
ATOM      3  N   UNL     1      10.688  14.912  17.400  0.00  0.00    +0.000 NA
ATOM      4  N   UNL     1      10.960  15.878  18.292  0.00  0.00    +0.000 N 
ATOM      5  C   UNL     1      12.265  16.488  18.294  0.00  0.00    +0.000 C 
ATOM      6  C   UNL     1       9.893  16.073  19.145  0.00  0.00    +0.000 A 
ATOM      7  C   UNL     1       8.811  15.719  18.323  0.00  0.00    +0.000 A 
ATOM      8  C   UNL     1       7.442  16.146  18.604  0.00  0.00    +0.000 A 
ATOM      9  C   UNL     1       7.184  17.471  19.009  0.00  0.00    +0.000 A 
ATOM     10  N   UNL     1       6.063  17.909  19.634  0.00  0.00    +0.000 NA
ATOM     11  C   UNL     1       5.176  16.967  20.000  0.00  0.00    +0.000 A 
ATOM     12  C   UNL     1       5.347  15.630  19.577  0.00  0.00    +0.000 A 
ATOM     13  C   UNL     1       6.352  15.288  18.645  0.00  0.00    +0.000 A 
ATOM     14  O   UNL     1       5.167  14.637  20.604  0.00  0.00    +0.000 OA
ATOM     15  C   UNL     1       6.479  14.636  21.215  0.00  0.00    +0.000 C 
ATOM     16  C   UNL     1       6.898  13.740  22.322  0.00  0.00    +0.000 A 
ATOM     17  C   UNL     1       5.965  12.984  23.030  0.00  0.00    +0.000 A 
ATOM     18  C   UNL     1       6.425  11.953  23.827  0.00  0.00    +0.000 A 
ATOM     19  F   UNL     1       5.542  11.186  24.482  0.00  0.00    +0.000 F 
ATOM     20  C   UNL     1       7.783  11.660  23.906  0.00  0.00    +0.000 A 
ATOM     21  C   UNL     1       8.725  12.471  23.254  0.00  0.00    +0.000 A 
ATOM     22  C   UNL     1       8.304  13.574  22.505  0.00  0.00    +0.000 A 
ATOM     23  C   UNL     1       9.373  14.405  21.770  0.00  0.00    +0.000 C 
ATOM     24  O   UNL     1      10.390  13.820  21.386  0.00  0.00    +0.000 OA
ATOM     25  N   UNL     1       9.172  15.780  21.506  0.00  0.00    +0.000 N 
ATOM     26  C   UNL     1       8.662  16.636  22.572  0.00  0.00    +0.000 C 
ATOM     27  C   UNL     1      10.074  16.494  20.572  0.00  0.00    +0.000 C 
ENDROOT
BRANCH  11  28
ATOM     28  N   UNL     1       4.217  17.326  20.947  0.00  0.00    +0.000 N 
ATOM     29  H   UNL     1       3.852  16.481  21.376  0.00  0.00    +0.000 HD
ATOM     30  H   UNL     1       3.517  17.933  20.557  0.00  0.00    +0.000 HD
ENDBRANCH  11  28
TORSDOF 1
ENDMDL
MODEL 6
REMARK VINA RESULT:      -6.2      9.927     12.368
REMARK  Name = 
REMARK  4 active torsions:
REMARK  status: ('A' for Active; 'I' for Inactive)
REMARK    1  A    between atoms: C_1  and  C_2
REMARK    2  A    between atoms: N_4  and  C_5
REMARK    3  A    between atoms: C_11  and  N_12
REMARK    4  A    between atoms: N_26  and  C_27
REMARK                            x       y       z     vdW  Elec       q    Type
REMARK                         _______ _______ _______ _____ _____    ______ ____
ROOT
ATOM      1  C   UNL     1      -0.414  16.101  18.575  0.00  0.00    +0.000 C 
ATOM      2  C   UNL     1       0.393  16.001  19.833  0.00  0.00    +0.000 A 
ATOM      3  N   UNL     1       1.726  16.068  19.669  0.00  0.00    +0.000 NA
ATOM      4  N   UNL     1       2.121  14.932  20.265  0.00  0.00    +0.000 N 
ATOM      5  C   UNL     1       3.516  14.572  20.241  0.00  0.00    +0.000 C 
ATOM      6  C   UNL     1       1.038  14.236  20.762  0.00  0.00    +0.000 A 
ATOM      7  C   UNL     1       0.143  15.280  21.048  0.00  0.00    +0.000 A 
ATOM      8  C   UNL     1      -0.976  15.121  21.974  0.00  0.00    +0.000 A 
ATOM      9  C   UNL     1      -0.792  14.444  23.196  0.00  0.00    +0.000 A 
ATOM     10  N   UNL     1      -1.772  13.914  23.969  0.00  0.00    +0.000 NA
ATOM     11  C   UNL     1      -3.016  13.940  23.458  0.00  0.00    +0.000 A 
ATOM     12  C   UNL     1      -3.277  14.651  22.266  0.00  0.00    +0.000 A 
ATOM     13  C   UNL     1      -2.287  15.468  21.678  0.00  0.00    +0.000 A 
ATOM     14  O   UNL     1      -4.077  13.946  21.298  0.00  0.00    +0.000 OA
ATOM     15  C   UNL     1      -3.064  13.156  20.631  0.00  0.00    +0.000 C 
ATOM     16  C   UNL     1      -3.313  12.256  19.477  0.00  0.00    +0.000 A 
ATOM     17  C   UNL     1      -4.610  11.916  19.095  0.00  0.00    +0.000 A 
ATOM     18  C   UNL     1      -4.799  11.339  17.854  0.00  0.00    +0.000 A 
ATOM     19  F   UNL     1      -6.043  11.044  17.450  0.00  0.00    +0.000 F 
ATOM     20  C   UNL     1      -3.727  11.123  16.995  0.00  0.00    +0.000 A 
ATOM     21  C   UNL     1      -2.415  11.394  17.412  0.00  0.00    +0.000 A 
ATOM     22  C   UNL     1      -2.175  11.901  18.693  0.00  0.00    +0.000 A 
ATOM     23  C   UNL     1      -0.722  12.227  19.086  0.00  0.00    +0.000 C 
ATOM     24  O   UNL     1       0.050  12.580  18.188  0.00  0.00    +0.000 OA
ATOM     25  N   UNL     1      -0.301  12.167  20.435  0.00  0.00    +0.000 N 
ATOM     26  C   UNL     1      -0.686  11.016  21.244  0.00  0.00    +0.000 C 
ATOM     27  C   UNL     1       1.008  12.740  20.828  0.00  0.00    +0.000 C 
ENDROOT
BRANCH  11  28
ATOM     28  N   UNL     1      -3.962  13.096  24.039  0.00  0.00    +0.000 N 
ATOM     29  H   UNL     1      -4.796  13.094  23.458  0.00  0.00    +0.000 HD
ATOM     30  H   UNL     1      -4.125  13.328  25.003  0.00  0.00    +0.000 HD
ENDBRANCH  11  28
TORSDOF 1
ENDMDL
MODEL 7
REMARK VINA RESULT:      -6.1     12.973     15.422
REMARK  Name = 
REMARK  4 active torsions:
REMARK  status: ('A' for Active; 'I' for Inactive)
REMARK    1  A    between atoms: C_1  and  C_2
REMARK    2  A    between atoms: N_4  and  C_5
REMARK    3  A    between atoms: C_11  and  N_12
REMARK    4  A    between atoms: N_26  and  C_27
REMARK                            x       y       z     vdW  Elec       q    Type
REMARK                         _______ _______ _______ _____ _____    ______ ____
ROOT
ATOM      1  C   UNL     1      -5.183  17.020  20.329  0.00  0.00    +0.000 C 
ATOM      2  C   UNL     1      -5.867  16.808  21.645  0.00  0.00    +0.000 A 
ATOM      3  N   UNL     1      -5.599  17.729  22.587  0.00  0.00    +0.000 NA
ATOM      4  N   UNL     1      -5.157  16.955  23.591  0.00  0.00    +0.000 N 
ATOM      5  C   UNL     1      -4.678  17.576  24.800  0.00  0.00    +0.000 C 
ATOM      6  C   UNL     1      -5.177  15.623  23.230  0.00  0.00    +0.000 A 
ATOM      7  C   UNL     1      -6.244  15.599  22.317  0.00  0.00    +0.000 A 
ATOM      8  C   UNL     1      -6.945  14.366  21.965  0.00  0.00    +0.000 A 
ATOM      9  C   UNL     1      -7.293  13.439  22.969  0.00  0.00    +0.000 A 
ATOM     10  N   UNL     1      -7.606  12.135  22.774  0.00  0.00    +0.000 NA
ATOM     11  C   UNL     1      -7.455  11.664  21.523  0.00  0.00    +0.000 A 
ATOM     12  C   UNL     1      -7.164  12.551  20.462  0.00  0.00    +0.000 A 
ATOM     13  C   UNL     1      -7.180  13.948  20.663  0.00  0.00    +0.000 A 
ATOM     14  O   UNL     1      -6.116  12.118  19.575  0.00  0.00    +0.000 OA
ATOM     15  C   UNL     1      -4.945  12.563  20.300  0.00  0.00    +0.000 C 
ATOM     16  C   UNL     1      -3.548  12.430  19.817  0.00  0.00    +0.000 A 
ATOM     17  C   UNL     1      -3.238  11.634  18.715  0.00  0.00    +0.000 A 
ATOM     18  C   UNL     1      -1.998  11.783  18.125  0.00  0.00    +0.000 A 
ATOM     19  F   UNL     1      -1.696  11.058  17.038  0.00  0.00    +0.000 F 
ATOM     20  C   UNL     1      -1.086  12.720  18.602  0.00  0.00    +0.000 A 
ATOM     21  C   UNL     1      -1.370  13.464  19.757  0.00  0.00    +0.000 A 
ATOM     22  C   UNL     1      -2.581  13.282  20.432  0.00  0.00    +0.000 A 
ATOM     23  C   UNL     1      -2.864  14.157  21.667  0.00  0.00    +0.000 C 
ATOM     24  O   UNL     1      -2.372  15.289  21.694  0.00  0.00    +0.000 OA
ATOM     25  N   UNL     1      -3.699  13.694  22.712  0.00  0.00    +0.000 N 
ATOM     26  C   UNL     1      -3.511  12.337  23.216  0.00  0.00    +0.000 C 
ATOM     27  C   UNL     1      -4.177  14.636  23.750  0.00  0.00    +0.000 C 
ENDROOT
BRANCH  11  28
ATOM     28  N   UNL     1      -7.410  10.279  21.363  0.00  0.00    +0.000 N 
ATOM     29  H   UNL     1      -6.462   9.962  21.545  0.00  0.00    +0.000 HD
ATOM     30  H   UNL     1      -7.781   9.995  20.473  0.00  0.00    +0.000 HD
ENDBRANCH  11  28
TORSDOF 1
ENDMDL
MODEL 8
REMARK VINA RESULT:      -6.0      3.165      5.314
REMARK  Name = 
REMARK  4 active torsions:
REMARK  status: ('A' for Active; 'I' for Inactive)
REMARK    1  A    between atoms: C_1  and  C_2
REMARK    2  A    between atoms: N_4  and  C_5
REMARK    3  A    between atoms: C_11  and  N_12
REMARK    4  A    between atoms: N_26  and  C_27
REMARK                            x       y       z     vdW  Elec       q    Type
REMARK                         _______ _______ _______ _____ _____    ______ ____
ROOT
ATOM      1  C   UNL     1       6.862  12.449  22.988  0.00  0.00    +0.000 C 
ATOM      2  C   UNL     1       8.257  12.909  23.282  0.00  0.00    +0.000 A 
ATOM      3  N   UNL     1       8.487  13.273  24.556  0.00  0.00    +0.000 NA
ATOM      4  N   UNL     1       8.958  14.519  24.391  0.00  0.00    +0.000 N 
ATOM      5  C   UNL     1       9.262  15.317  25.552  0.00  0.00    +0.000 C 
ATOM      6  C   UNL     1       9.002  14.855  23.053  0.00  0.00    +0.000 A 
ATOM      7  C   UNL     1       9.207  13.600  22.457  0.00  0.00    +0.000 A 
ATOM      8  C   UNL     1       9.739  13.453  21.105  0.00  0.00    +0.000 A 
ATOM      9  C   UNL     1      10.824  14.247  20.682  0.00  0.00    +0.000 A 
ATOM     10  N   UNL     1      11.186  14.482  19.396  0.00  0.00    +0.000 NA
ATOM     11  C   UNL     1      10.360  14.007  18.447  0.00  0.00    +0.000 A 
ATOM     12  C   UNL     1       9.288  13.157  18.800  0.00  0.00    +0.000 A 
ATOM     13  C   UNL     1       9.155  12.670  20.119  0.00  0.00    +0.000 A 
ATOM     14  O   UNL     1       8.026  13.480  18.186  0.00  0.00    +0.000 OA
ATOM     15  C   UNL     1       7.541  14.505  19.084  0.00  0.00    +0.000 C 
ATOM     16  C   UNL     1       6.223  15.179  18.969  0.00  0.00    +0.000 A 
ATOM     17  C   UNL     1       5.439  15.040  17.824  0.00  0.00    +0.000 A 
ATOM     18  C   UNL     1       4.113  15.422  17.886  0.00  0.00    +0.000 A 
ATOM     19  F   UNL     1       3.332  15.257  16.809  0.00  0.00    +0.000 F 
ATOM     20  C   UNL     1       3.563  15.912  19.066  0.00  0.00    +0.000 A 
ATOM     21  C   UNL     1       4.371  16.123  20.193  0.00  0.00    +0.000 A 
ATOM     22  C   UNL     1       5.738  15.826  20.145  0.00  0.00    +0.000 A 
ATOM     23  C   UNL     1       6.572  16.032  21.423  0.00  0.00    +0.000 C 
ATOM     24  O   UNL     1       6.003  15.884  22.509  0.00  0.00    +0.000 OA
ATOM     25  N   UNL     1       7.952  16.333  21.351  0.00  0.00    +0.000 N 
ATOM     26  C   UNL     1       8.404  17.352  20.410  0.00  0.00    +0.000 C 
ATOM     27  C   UNL     1       8.791  16.258  22.571  0.00  0.00    +0.000 C 
ENDROOT
BRANCH  11  28
ATOM     28  N   UNL     1      10.494  14.534  17.162  0.00  0.00    +0.000 N 
ATOM     29  H   UNL     1      10.184  15.500  17.173  0.00  0.00    +0.000 HD
ATOM     30  H   UNL     1      10.041  13.957  16.474  0.00  0.00    +0.000 HD
ENDBRANCH  11  28
TORSDOF 1
ENDMDL
MODEL 9
REMARK VINA RESULT:      -5.9      2.957      4.416
REMARK  Name = 
REMARK  4 active torsions:
REMARK  status: ('A' for Active; 'I' for Inactive)
REMARK    1  A    between atoms: C_1  and  C_2
REMARK    2  A    between atoms: N_4  and  C_5
REMARK    3  A    between atoms: C_11  and  N_12
REMARK    4  A    between atoms: N_26  and  C_27
REMARK                            x       y       z     vdW  Elec       q    Type
REMARK                         _______ _______ _______ _____ _____    ______ ____
ROOT
ATOM      1  C   UNL     1       8.668  15.160  23.112  0.00  0.00    +0.000 C 
ATOM      2  C   UNL     1      10.086  15.535  22.808  0.00  0.00    +0.000 A 
ATOM      3  N   UNL     1      10.617  16.477  23.608  0.00  0.00    +0.000 NA
ATOM      4  N   UNL     1      11.016  17.390  22.708  0.00  0.00    +0.000 N 
ATOM      5  C   UNL     1      11.585  18.631  23.169  0.00  0.00    +0.000 C 
ATOM      6  C   UNL     1      10.725  16.974  21.424  0.00  0.00    +0.000 A 
ATOM      7  C   UNL     1      10.795  15.578  21.561  0.00  0.00    +0.000 A 
ATOM      8  C   UNL     1      10.981  14.688  20.418  0.00  0.00    +0.000 A 
ATOM      9  C   UNL     1      11.918  15.011  19.416  0.00  0.00    +0.000 A 
ATOM     10  N   UNL     1      11.949  14.499  18.160  0.00  0.00    +0.000 NA
ATOM     11  C   UNL     1      10.922  13.703  17.813  0.00  0.00    +0.000 A 
ATOM     12  C   UNL     1       9.981  13.296  18.785  0.00  0.00    +0.000 A 
ATOM     13  C   UNL     1      10.182  13.584  20.153  0.00  0.00    +0.000 A 
ATOM     14  O   UNL     1       8.603  13.401  18.382  0.00  0.00    +0.000 OA
ATOM     15  C   UNL     1       8.339  14.793  18.676  0.00  0.00    +0.000 C 
ATOM     16  C   UNL     1       7.024  15.462  18.506  0.00  0.00    +0.000 A 
ATOM     17  C   UNL     1       5.986  14.844  17.811  0.00  0.00    +0.000 A 
ATOM     18  C   UNL     1       4.710  15.358  17.943  0.00  0.00    +0.000 A 
ATOM     19  F   UNL     1       3.690  14.753  17.317  0.00  0.00    +0.000 F 
ATOM     20  C   UNL     1       4.461  16.451  18.767  0.00  0.00    +0.000 A 
ATOM     21  C   UNL     1       5.518  17.118  19.403  0.00  0.00    +0.000 A 
ATOM     22  C   UNL     1       6.834  16.678  19.228  0.00  0.00    +0.000 A 
ATOM     23  C   UNL     1       7.954  17.415  19.986  0.00  0.00    +0.000 C 
ATOM     24  O   UNL     1       7.671  17.922  21.076  0.00  0.00    +0.000 OA
ATOM     25  N   UNL     1       9.270  17.467  19.471  0.00  0.00    +0.000 N 
ATOM     26  C   UNL     1       9.463  17.788  18.060  0.00  0.00    +0.000 C 
ATOM     27  C   UNL     1      10.383  17.937  20.329  0.00  0.00    +0.000 C 
ENDROOT
BRANCH  11  28
ATOM     28  N   UNL     1      10.730  13.466  16.452  0.00  0.00    +0.000 N 
ATOM     29  H   UNL     1      10.097  12.679  16.346  0.00  0.00    +0.000 HD
ATOM     30  H   UNL     1      11.603  13.369  15.964  0.00  0.00    +0.000 HD
ENDBRANCH  11  28
TORSDOF 1
ENDMDL
