MODEL 1
REMARK VINA RESULT:      -7.4      0.000      0.000
REMARK  Name = 
REMARK  6 active torsions:
REMARK  status: ('A' for Active; 'I' for Inactive)
REMARK    1  A    between atoms: C_1  and  C_2
REMARK    2  A    between atoms: C_5  and  C_6
REMARK    3  A    between atoms: C_6  and  N_7
REMARK    4  A    between atoms: C_12  and  C_13
REMARK    5  A    between atoms: C_13  and  C_14
REMARK    6  A    between atoms: C_13  and  O_15
REMARK                            x       y       z     vdW  Elec       q    Type
REMARK                         _______ _______ _______ _____ _____    ______ ____
ROOT
ATOM      1  N   UNL     1       5.236   5.947  17.907  0.00  0.00    +0.000 NA
ATOM      2  C   UNL     1       5.945   5.124  18.888  0.00  0.00    +0.000 C 
ATOM      3  C   UNL     1       7.238   5.791  19.389  0.00  0.00    +0.000 C 
ATOM      4  C   UNL     1       8.056   6.508  18.315  0.00  0.00    +0.000 C 
ATOM      5  C   UNL     1       7.152   7.232  17.318  0.00  0.00    +0.000 C 
ATOM      6  C   UNL     1       6.078   6.274  16.734  0.00  0.00    +0.000 C 
ENDROOT
BRANCH   6   7
ATOM      7  C   UNL     1       6.783   5.119  15.927  0.00  0.00    +0.000 C 
ATOM      8  C   UNL     1       5.883   4.181  15.140  0.00  0.00    +0.000 C 
BRANCH   7   9
ATOM      9  O   UNL     1       7.690   5.672  14.959  0.00  0.00    +0.000 OA
ATOM     10  H   UNL     1       7.242   6.402  14.504  0.00  0.00    +0.000 HD
ENDBRANCH   7   9
ENDBRANCH   6   7
BRANCH   1  11
ATOM     11  C   UNL     1       3.858   5.534  17.601  0.00  0.00    +0.000 C 
BRANCH  11  16
ATOM     12  C   UNL     1       1.143   2.523  21.755  0.00  0.00    +0.000 C 
ATOM     13  C   UNL     1       1.190   3.480  20.557  0.00  0.00    +0.000 C 
ATOM     14  C   UNL     1       1.967   4.749  20.940  0.00  0.00    +0.000 C 
ATOM     15  C   UNL     1       2.388   5.606  19.734  0.00  0.00    +0.000 C 
ATOM     16  C   UNL     1       3.171   4.739  18.739  0.00  0.00    +0.000 C 
ATOM     17  C   UNL     1       2.203   3.676  18.198  0.00  0.00    +0.000 C 
ATOM     18  C   UNL     1       1.766   2.747  19.331  0.00  0.00    +0.000 C 
ENDBRANCH  11  16
ENDBRANCH   1  11
TORSDOF 4
ENDMDL
MODEL 2
REMARK VINA RESULT:      -7.3      1.279      2.629
REMARK  Name = 
REMARK  6 active torsions:
REMARK  status: ('A' for Active; 'I' for Inactive)
REMARK    1  A    between atoms: C_1  and  C_2
REMARK    2  A    between atoms: C_5  and  C_6
REMARK    3  A    between atoms: C_6  and  N_7
REMARK    4  A    between atoms: C_12  and  C_13
REMARK    5  A    between atoms: C_13  and  C_14
REMARK    6  A    between atoms: C_13  and  O_15
REMARK                            x       y       z     vdW  Elec       q    Type
REMARK                         _______ _______ _______ _____ _____    ______ ____
ROOT
ATOM      1  N   UNL     1       4.800   5.483  16.692  0.00  0.00    +0.000 NA
ATOM      2  C   UNL     1       5.240   6.289  15.551  0.00  0.00    +0.000 C 
ATOM      3  C   UNL     1       5.696   5.424  14.363  0.00  0.00    +0.000 C 
ATOM      4  C   UNL     1       6.513   4.188  14.736  0.00  0.00    +0.000 C 
ATOM      5  C   UNL     1       5.977   3.530  16.008  0.00  0.00    +0.000 C 
ATOM      6  C   UNL     1       5.855   4.558  17.164  0.00  0.00    +0.000 C 
ENDROOT
BRANCH   6   7
ATOM      7  C   UNL     1       7.283   5.115  17.530  0.00  0.00    +0.000 C 
ATOM      8  C   UNL     1       7.406   5.893  18.831  0.00  0.00    +0.000 C 
BRANCH   7   9
ATOM      9  O   UNL     1       8.223   4.035  17.646  0.00  0.00    +0.000 OA
ATOM     10  H   UNL     1       7.757   3.263  18.004  0.00  0.00    +0.000 HD
ENDBRANCH   7   9
ENDBRANCH   6   7
BRANCH   1  11
ATOM     11  C   UNL     1       4.075   6.208  17.746  0.00  0.00    +0.000 C 
BRANCH  11  16
ATOM     12  C   UNL     1       1.174   2.752  21.398  0.00  0.00    +0.000 C 
ATOM     13  C   UNL     1       1.279   3.865  20.346  0.00  0.00    +0.000 C 
ATOM     14  C   UNL     1       2.093   5.038  20.914  0.00  0.00    +0.000 C 
ATOM     15  C   UNL     1       2.567   6.038  19.846  0.00  0.00    +0.000 C 
ATOM     16  C   UNL     1       3.338   5.289  18.751  0.00  0.00    +0.000 C 
ATOM     17  C   UNL     1       2.344   4.350  18.052  0.00  0.00    +0.000 C 
ATOM     18  C   UNL     1       1.852   3.289  19.039  0.00  0.00    +0.000 C 
ENDBRANCH  11  16
ENDBRANCH   1  11
TORSDOF 4
ENDMDL
MODEL 3
REMARK VINA RESULT:      -6.8      2.426      6.005
REMARK  Name = 
REMARK  6 active torsions:
REMARK  status: ('A' for Active; 'I' for Inactive)
REMARK    1  A    between atoms: C_1  and  C_2
REMARK    2  A    between atoms: C_5  and  C_6
REMARK    3  A    between atoms: C_6  and  N_7
REMARK    4  A    between atoms: C_12  and  C_13
REMARK    5  A    between atoms: C_13  and  C_14
REMARK    6  A    between atoms: C_13  and  O_15
REMARK                            x       y       z     vdW  Elec       q    Type
REMARK                         _______ _______ _______ _____ _____    ______ ____
ROOT
ATOM      1  N   UNL     1       3.794   4.077  19.741  0.00  0.00    +0.000 NA
ATOM      2  C   UNL     1       3.206   5.410  19.593  0.00  0.00    +0.000 C 
ATOM      3  C   UNL     1       2.017   5.635  20.542  0.00  0.00    +0.000 C 
ATOM      4  C   UNL     1       1.076   4.441  20.699  0.00  0.00    +0.000 C 
ATOM      5  C   UNL     1       1.852   3.124  20.734  0.00  0.00    +0.000 C 
ATOM      6  C   UNL     1       2.804   2.999  19.515  0.00  0.00    +0.000 C 
ENDROOT
BRANCH   6   7
ATOM      7  C   UNL     1       1.960   2.974  18.184  0.00  0.00    +0.000 C 
ATOM      8  C   UNL     1       2.736   2.935  16.878  0.00  0.00    +0.000 C 
BRANCH   7   9
ATOM      9  O   UNL     1       1.114   1.814  18.156  0.00  0.00    +0.000 OA
ATOM     10  H   UNL     1       1.588   1.102  17.697  0.00  0.00    +0.000 HD
ENDBRANCH   7   9
ENDBRANCH   6   7
BRANCH   1  11
ATOM     11  C   UNL     1       5.102   3.880  19.100  0.00  0.00    +0.000 C 
BRANCH  11  16
ATOM     12  C   UNL     1       7.888   8.766  17.667  0.00  0.00    +0.000 C 
ATOM     13  C   UNL     1       7.582   7.268  17.537  0.00  0.00    +0.000 C 
ATOM     14  C   UNL     1       7.956   6.549  18.843  0.00  0.00    +0.000 C 
ATOM     15  C   UNL     1       7.365   5.135  18.963  0.00  0.00    +0.000 C 
ATOM     16  C   UNL     1       5.845   5.197  18.764  0.00  0.00    +0.000 C 
ATOM     17  C   UNL     1       5.591   5.650  17.319  0.00  0.00    +0.000 C 
ATOM     18  C   UNL     1       6.112   7.074  17.122  0.00  0.00    +0.000 C 
ENDBRANCH  11  16
ENDBRANCH   1  11
TORSDOF 4
ENDMDL
MODEL 4
REMARK VINA RESULT:      -6.6      2.743      6.229
REMARK  Name = 
REMARK  6 active torsions:
REMARK  status: ('A' for Active; 'I' for Inactive)
REMARK    1  A    between atoms: C_1  and  C_2
REMARK    2  A    between atoms: C_5  and  C_6
REMARK    3  A    between atoms: C_6  and  N_7
REMARK    4  A    between atoms: C_12  and  C_13
REMARK    5  A    between atoms: C_13  and  C_14
REMARK    6  A    between atoms: C_13  and  O_15
REMARK                            x       y       z     vdW  Elec       q    Type
REMARK                         _______ _______ _______ _____ _____    ______ ____
ROOT
ATOM      1  N   UNL     1       3.094   3.650  18.375  0.00  0.00    +0.000 NA
ATOM      2  C   UNL     1       2.000   2.775  17.948  0.00  0.00    +0.000 C 
ATOM      3  C   UNL     1       0.654   3.167  18.584  0.00  0.00    +0.000 C 
ATOM      4  C   UNL     1       0.726   3.577  20.054  0.00  0.00    +0.000 C 
ATOM      5  C   UNL     1       1.982   4.399  20.342  0.00  0.00    +0.000 C 
ATOM      6  C   UNL     1       3.258   3.668  19.845  0.00  0.00    +0.000 C 
ENDROOT
BRANCH   6   7
ATOM      7  C   UNL     1       3.432   2.313  20.633  0.00  0.00    +0.000 C 
ATOM      8  C   UNL     1       4.838   1.742  20.717  0.00  0.00    +0.000 C 
BRANCH   7   9
ATOM      9  O   UNL     1       3.007   2.473  21.995  0.00  0.00    +0.000 OA
ATOM     10  H   UNL     1       3.107   1.621  22.448  0.00  0.00    +0.000 HD
ENDBRANCH   7   9
ENDBRANCH   6   7
BRANCH   1  11
ATOM     11  C   UNL     1       4.339   3.541  17.599  0.00  0.00    +0.000 C 
BRANCH  11  16
ATOM     12  C   UNL     1       7.790   8.203  17.824  0.00  0.00    +0.000 C 
ATOM     13  C   UNL     1       7.285   6.893  17.204  0.00  0.00    +0.000 C 
ATOM     14  C   UNL     1       7.533   5.731  18.179  0.00  0.00    +0.000 C 
ATOM     15  C   UNL     1       6.754   4.452  17.830  0.00  0.00    +0.000 C 
ATOM     16  C   UNL     1       5.260   4.782  17.707  0.00  0.00    +0.000 C 
ATOM     17  C   UNL     1       5.097   5.727  16.509  0.00  0.00    +0.000 C 
ATOM     18  C   UNL     1       5.811   7.051  16.791  0.00  0.00    +0.000 C 
ENDBRANCH  11  16
ENDBRANCH   1  11
TORSDOF 4
ENDMDL
MODEL 5
REMARK VINA RESULT:      -6.6      2.086      3.186
REMARK  Name = 
REMARK  6 active torsions:
REMARK  status: ('A' for Active; 'I' for Inactive)
REMARK    1  A    between atoms: C_1  and  C_2
REMARK    2  A    between atoms: C_5  and  C_6
REMARK    3  A    between atoms: C_6  and  N_7
REMARK    4  A    between atoms: C_12  and  C_13
REMARK    5  A    between atoms: C_13  and  C_14
REMARK    6  A    between atoms: C_13  and  O_15
REMARK                            x       y       z     vdW  Elec       q    Type
REMARK                         _______ _______ _______ _____ _____    ______ ____
ROOT
ATOM      1  N   UNL     1       4.951   6.014  17.986  0.00  0.00    +0.000 NA
ATOM      2  C   UNL     1       5.552   5.056  18.917  0.00  0.00    +0.000 C 
ATOM      3  C   UNL     1       6.904   5.544  19.468  0.00  0.00    +0.000 C 
ATOM      4  C   UNL     1       7.810   6.233  18.448  0.00  0.00    +0.000 C 
ATOM      5  C   UNL     1       7.004   7.113  17.493  0.00  0.00    +0.000 C 
ATOM      6  C   UNL     1       5.840   6.319  16.843  0.00  0.00    +0.000 C 
ENDROOT
BRANCH   6   7
ATOM      7  C   UNL     1       6.424   5.146  15.967  0.00  0.00    +0.000 C 
ATOM      8  C   UNL     1       5.453   4.424  15.047  0.00  0.00    +0.000 C 
BRANCH   7   9
ATOM      9  O   UNL     1       7.464   5.639  15.107  0.00  0.00    +0.000 OA
ATOM     10  H   UNL     1       8.247   5.078  15.223  0.00  0.00    +0.000 HD
ENDBRANCH   7   9
ENDBRANCH   6   7
BRANCH   1  11
ATOM     11  C   UNL     1       3.540   5.775  17.646  0.00  0.00    +0.000 C 
BRANCH  11  16
ATOM     12  C   UNL     1      -0.009   9.789  19.878  0.00  0.00    +0.000 C 
ATOM     13  C   UNL     1       1.368   9.169  19.603  0.00  0.00    +0.000 C 
ATOM     14  C   UNL     1       1.460   7.793  20.280  0.00  0.00    +0.000 C 
ATOM     15  C   UNL     1       2.632   6.933  19.779  0.00  0.00    +0.000 C 
ATOM     16  C   UNL     1       2.561   6.811  18.251  0.00  0.00    +0.000 C 
ATOM     17  C   UNL     1       2.776   8.216  17.669  0.00  0.00    +0.000 C 
ATOM     18  C   UNL     1       1.624   9.132  18.085  0.00  0.00    +0.000 C 
ENDBRANCH  11  16
ENDBRANCH   1  11
TORSDOF 4
ENDMDL
MODEL 6
REMARK VINA RESULT:      -6.6      1.455      2.890
REMARK  Name = 
REMARK  6 active torsions:
REMARK  status: ('A' for Active; 'I' for Inactive)
REMARK    1  A    between atoms: C_1  and  C_2
REMARK    2  A    between atoms: C_5  and  C_6
REMARK    3  A    between atoms: C_6  and  N_7
REMARK    4  A    between atoms: C_12  and  C_13
REMARK    5  A    between atoms: C_13  and  C_14
REMARK    6  A    between atoms: C_13  and  O_15
REMARK                            x       y       z     vdW  Elec       q    Type
REMARK                         _______ _______ _______ _____ _____    ______ ____
ROOT
ATOM      1  N   UNL     1       4.865   5.437  16.779  0.00  0.00    +0.000 NA
ATOM      2  C   UNL     1       5.225   6.288  15.643  0.00  0.00    +0.000 C 
ATOM      3  C   UNL     1       5.624   5.470  14.401  0.00  0.00    +0.000 C 
ATOM      4  C   UNL     1       6.479   4.236  14.685  0.00  0.00    +0.000 C 
ATOM      5  C   UNL     1       6.028   3.527  15.962  0.00  0.00    +0.000 C 
ATOM      6  C   UNL     1       5.958   4.514  17.158  0.00  0.00    +0.000 C 
ENDROOT
BRANCH   6   7
ATOM      7  C   UNL     1       7.397   5.083  17.459  0.00  0.00    +0.000 C 
ATOM      8  C   UNL     1       7.535   6.007  18.658  0.00  0.00    +0.000 C 
BRANCH   7   9
ATOM      9  O   UNL     1       8.315   4.005  17.706  0.00  0.00    +0.000 OA
ATOM     10  H   UNL     1       8.396   3.482  16.893  0.00  0.00    +0.000 HD
ENDBRANCH   7   9
ENDBRANCH   6   7
BRANCH   1  11
ATOM     11  C   UNL     1       4.192   6.115  17.897  0.00  0.00    +0.000 C 
BRANCH  11  16
ATOM     12  C   UNL     1       1.219   2.678  21.508  0.00  0.00    +0.000 C 
ATOM     13  C   UNL     1       2.271   3.745  21.178  0.00  0.00    +0.000 C 
ATOM     14  C   UNL     1       3.371   3.132  20.298  0.00  0.00    +0.000 C 
ATOM     15  C   UNL     1       4.270   4.175  19.613  0.00  0.00    +0.000 C 
ATOM     16  C   UNL     1       3.399   5.164  18.827  0.00  0.00    +0.000 C 
ATOM     17  C   UNL     1       2.545   5.932  19.846  0.00  0.00    +0.000 C 
ATOM     18  C   UNL     1       1.585   4.971  20.547  0.00  0.00    +0.000 C 
ENDBRANCH  11  16
ENDBRANCH   1  11
TORSDOF 4
ENDMDL
MODEL 7
REMARK VINA RESULT:      -6.6      2.539      5.949
REMARK  Name = 
REMARK  6 active torsions:
REMARK  status: ('A' for Active; 'I' for Inactive)
REMARK    1  A    between atoms: C_1  and  C_2
REMARK    2  A    between atoms: C_5  and  C_6
REMARK    3  A    between atoms: C_6  and  N_7
REMARK    4  A    between atoms: C_12  and  C_13
REMARK    5  A    between atoms: C_13  and  C_14
REMARK    6  A    between atoms: C_13  and  O_15
REMARK                            x       y       z     vdW  Elec       q    Type
REMARK                         _______ _______ _______ _____ _____    ______ ____
ROOT
ATOM      1  N   UNL     1       3.081   3.517  18.785  0.00  0.00    +0.000 NA
ATOM      2  C   UNL     1       3.831   3.124  19.980  0.00  0.00    +0.000 C 
ATOM      3  C   UNL     1       2.913   2.627  21.111  0.00  0.00    +0.000 C 
ATOM      4  C   UNL     1       1.620   3.422  21.293  0.00  0.00    +0.000 C 
ATOM      5  C   UNL     1       1.028   3.837  19.947  0.00  0.00    +0.000 C 
ATOM      6  C   UNL     1       2.081   4.569  19.071  0.00  0.00    +0.000 C 
ENDROOT
BRANCH   6   7
ATOM      7  C   UNL     1       2.525   5.903  19.784  0.00  0.00    +0.000 C 
ATOM      8  C   UNL     1       2.540   7.165  18.935  0.00  0.00    +0.000 C 
BRANCH   7   9
ATOM      9  O   UNL     1       1.646   6.197  20.881  0.00  0.00    +0.000 OA
ATOM     10  H   UNL     1       2.181   6.524  21.621  0.00  0.00    +0.000 HD
ENDBRANCH   7   9
ENDBRANCH   6   7
BRANCH   1  11
ATOM     11  C   UNL     1       3.880   3.717  17.567  0.00  0.00    +0.000 C 
BRANCH  11  16
ATOM     12  C   UNL     1       7.882   7.912  17.840  0.00  0.00    +0.000 C 
ATOM     13  C   UNL     1       7.222   6.679  17.209  0.00  0.00    +0.000 C 
ATOM     14  C   UNL     1       7.319   5.489  18.176  0.00  0.00    +0.000 C 
ATOM     15  C   UNL     1       6.388   4.319  17.815  0.00  0.00    +0.000 C 
ATOM     16  C   UNL     1       4.948   4.832  17.688  0.00  0.00    +0.000 C 
ATOM     17  C   UNL     1       4.910   5.799  16.495  0.00  0.00    +0.000 C 
ATOM     18  C   UNL     1       5.781   7.021  16.790  0.00  0.00    +0.000 C 
ENDBRANCH  11  16
ENDBRANCH   1  11
TORSDOF 4
ENDMDL
MODEL 8
REMARK VINA RESULT:      -6.6      2.721      6.258
REMARK  Name = 
REMARK  6 active torsions:
REMARK  status: ('A' for Active; 'I' for Inactive)
REMARK    1  A    between atoms: C_1  and  C_2
REMARK    2  A    between atoms: C_5  and  C_6
REMARK    3  A    between atoms: C_6  and  N_7
REMARK    4  A    between atoms: C_12  and  C_13
REMARK    5  A    between atoms: C_13  and  C_14
REMARK    6  A    between atoms: C_13  and  O_15
REMARK                            x       y       z     vdW  Elec       q    Type
REMARK                         _______ _______ _______ _____ _____    ______ ____
ROOT
ATOM      1  N   UNL     1       2.946   4.771  19.181  0.00  0.00    +0.000 NA
ATOM      2  C   UNL     1       2.528   4.011  18.002  0.00  0.00    +0.000 C 
ATOM      3  C   UNL     1       1.028   3.666  18.027  0.00  0.00    +0.000 C 
ATOM      4  C   UNL     1       0.482   3.247  19.391  0.00  0.00    +0.000 C 
ATOM      5  C   UNL     1       1.101   4.077  20.517  0.00  0.00    +0.000 C 
ATOM      6  C   UNL     1       2.652   4.055  20.443  0.00  0.00    +0.000 C 
ENDROOT
BRANCH   6   7
ATOM      7  C   UNL     1       3.171   2.581  20.650  0.00  0.00    +0.000 C 
ATOM      8  C   UNL     1       4.616   2.301  20.271  0.00  0.00    +0.000 C 
BRANCH   7   9
ATOM      9  O   UNL     1       3.064   2.207  22.033  0.00  0.00    +0.000 OA
ATOM     10  H   UNL     1       3.654   1.453  22.191  0.00  0.00    +0.000 HD
ENDBRANCH   7   9
ENDBRANCH   6   7
BRANCH   1  11
ATOM     11  C   UNL     1       4.275   5.395  19.102  0.00  0.00    +0.000 C 
BRANCH  11  16
ATOM     12  C   UNL     1       7.080   4.724  14.065  0.00  0.00    +0.000 C 
ATOM     13  C   UNL     1       6.811   5.414  15.409  0.00  0.00    +0.000 C 
ATOM     14  C   UNL     1       5.399   6.022  15.403  0.00  0.00    +0.000 C 
ATOM     15  C   UNL     1       4.888   6.414  16.800  0.00  0.00    +0.000 C 
ATOM     16  C   UNL     1       4.982   5.203  17.737  0.00  0.00    +0.000 C 
ATOM     17  C   UNL     1       6.471   4.866  17.902  0.00  0.00    +0.000 C 
ATOM     18  C   UNL     1       7.053   4.420  16.559  0.00  0.00    +0.000 C 
ENDBRANCH  11  16
ENDBRANCH   1  11
TORSDOF 4
ENDMDL
MODEL 9
REMARK VINA RESULT:      -6.5      2.290      5.768
REMARK  Name = 
REMARK  6 active torsions:
REMARK  status: ('A' for Active; 'I' for Inactive)
REMARK    1  A    between atoms: C_1  and  C_2
REMARK    2  A    between atoms: C_5  and  C_6
REMARK    3  A    between atoms: C_6  and  N_7
REMARK    4  A    between atoms: C_12  and  C_13
REMARK    5  A    between atoms: C_13  and  C_14
REMARK    6  A    between atoms: C_13  and  O_15
REMARK                            x       y       z     vdW  Elec       q    Type
REMARK                         _______ _______ _______ _____ _____    ______ ____
ROOT
ATOM      1  N   UNL     1       3.364   4.683  19.948  0.00  0.00    +0.000 NA
ATOM      2  C   UNL     1       2.256   4.872  20.887  0.00  0.00    +0.000 C 
ATOM      3  C   UNL     1       2.117   3.700  21.874  0.00  0.00    +0.000 C 
ATOM      4  C   UNL     1       2.326   2.313  21.267  0.00  0.00    +0.000 C 
ATOM      5  C   UNL     1       3.453   2.321  20.234  0.00  0.00    +0.000 C 
ATOM      6  C   UNL     1       3.233   3.430  19.170  0.00  0.00    +0.000 C 
ENDROOT
BRANCH   6   7
ATOM      7  C   UNL     1       1.908   3.138  18.369  0.00  0.00    +0.000 C 
ATOM      8  C   UNL     1       1.403   4.237  17.448  0.00  0.00    +0.000 C 
BRANCH   7   9
ATOM      9  O   UNL     1       2.082   1.988  17.525  0.00  0.00    +0.000 OA
ATOM     10  H   UNL     1       2.434   1.264  18.065  0.00  0.00    +0.000 HD
ENDBRANCH   7   9
ENDBRANCH   6   7
BRANCH   1  11
ATOM     11  C   UNL     1       3.756   5.870  19.174  0.00  0.00    +0.000 C 
BRANCH  11  16
ATOM     12  C   UNL     1       7.151   4.745  14.602  0.00  0.00    +0.000 C 
ATOM     13  C   UNL     1       6.718   5.562  15.827  0.00  0.00    +0.000 C 
ATOM     14  C   UNL     1       5.314   6.142  15.591  0.00  0.00    +0.000 C 
ATOM     15  C   UNL     1       4.637   6.663  16.869  0.00  0.00    +0.000 C 
ATOM     16  C   UNL     1       4.623   5.554  17.930  0.00  0.00    +0.000 C 
ATOM     17  C   UNL     1       6.083   5.261  18.304  0.00  0.00    +0.000 C 
ATOM     18  C   UNL     1       6.825   4.693  17.093  0.00  0.00    +0.000 C 
ENDBRANCH  11  16
ENDBRANCH   1  11
TORSDOF 4
ENDMDL
