MODEL 1
REMARK VINA RESULT:      -7.0      0.000      0.000
REMARK  Name = 
REMARK  7 active torsions:
REMARK  status: ('A' for Active; 'I' for Inactive)
REMARK    1  A    between atoms: C_2  and  C_3
REMARK    2  A    between atoms: C_3  and  O_4
REMARK    3  A    between atoms: O_4  and  C_5
REMARK    4  A    between atoms: C_5  and  C_6
REMARK    5  A    between atoms: C_6  and  O_7
REMARK    6  A    between atoms: O_7  and  C_8
REMARK    7  A    between atoms: N_14  and  C_15
REMARK                            x       y       z     vdW  Elec       q    Type
REMARK                         _______ _______ _______ _____ _____    ______ ____
ROOT
ATOM      1  O   UNL     1       4.787   3.745  18.892  0.00  0.00    +0.000 OA
ATOM      2  C   UNL     1       5.110   4.871  19.256  0.00  0.00    +0.000 C 
ATOM      3  N   UNL     1       4.208   5.883  19.521  0.00  0.00    +0.000 N 
ATOM      4  H   UNL     1       4.615   6.810  19.601  0.00  0.00    +0.000 HD
ENDROOT
BRANCH   3   5
ATOM      5  C   UNL     1       2.785   5.767  19.197  0.00  0.00    +0.000 C 
ATOM      6  C   UNL     1       2.408   6.658  18.010  0.00  0.00    +0.000 C 
ATOM      7  C   UNL     1       2.358   8.141  18.383  0.00  0.00    +0.000 C 
ATOM      8  N   UNL     1       1.513   8.329  19.555  0.00  0.00    +0.000 N 
ATOM      9  C   UNL     1       0.990   9.599  19.753  0.00  0.00    +0.000 A 
ATOM     10  N   UNL     1       0.919  10.436  18.702  0.00  0.00    +0.000 NA
ATOM     11  C   UNL     1       0.266  11.602  18.862  0.00  0.00    +0.000 A 
ATOM     12  C   UNL     1      -0.315  11.987  20.041  0.00  0.00    +0.000 A 
ATOM     13  C   UNL     1      -0.162  11.101  21.073  0.00  0.00    +0.000 A 
ATOM     14  N   UNL     1       0.482   9.922  20.954  0.00  0.00    +0.000 NA
ATOM     15  C   UNL     1       1.836   7.545  20.741  0.00  0.00    +0.000 C 
ATOM     16  C   UNL     1       1.842   6.064  20.371  0.00  0.00    +0.000 C 
ENDBRANCH   3   5
BRANCH   2  17
ATOM     17  C   UNL     1       6.582   5.288  19.387  0.00  0.00    +0.000 C 
BRANCH  17  18
ATOM     18  O   UNL     1       7.364   5.344  18.207  0.00  0.00    +0.000 OA
BRANCH  18  19
ATOM     19  C   UNL     1       7.008   6.366  17.269  0.00  0.00    +0.000 C 
BRANCH  19  20
ATOM     20  C   UNL     1       5.935   6.012  16.230  0.00  0.00    +0.000 C 
BRANCH  20  21
ATOM     21  O   UNL     1       6.054   4.644  15.834  0.00  0.00    +0.000 OA
BRANCH  21  22
ATOM     22  C   UNL     1       6.322   4.440  14.504  0.00  0.00    +0.000 A 
ATOM     23  C   UNL     1       7.414   5.147  13.995  0.00  0.00    +0.000 A 
ATOM     24  C   UNL     1       7.773   5.024  12.650  0.00  0.00    +0.000 A 
ATOM     25  C   UNL     1       7.052   4.179  11.811  0.00  0.00    +0.000 A 
ATOM     26  C   UNL     1       5.976   3.452  12.320  0.00  0.00    +0.000 A 
ATOM     27  C   UNL     1       5.615   3.580  13.663  0.00  0.00    +0.000 A 
ENDBRANCH  21  22
ENDBRANCH  20  21
ENDBRANCH  19  20
ENDBRANCH  18  19
ENDBRANCH  17  18
ENDBRANCH   2  17
TORSDOF 7
ENDMDL
MODEL 2
REMARK VINA RESULT:      -7.0      3.042      9.612
REMARK  Name = 
REMARK  7 active torsions:
REMARK  status: ('A' for Active; 'I' for Inactive)
REMARK    1  A    between atoms: C_2  and  C_3
REMARK    2  A    between atoms: C_3  and  O_4
REMARK    3  A    between atoms: O_4  and  C_5
REMARK    4  A    between atoms: C_5  and  C_6
REMARK    5  A    between atoms: C_6  and  O_7
REMARK    6  A    between atoms: O_7  and  C_8
REMARK    7  A    between atoms: N_14  and  C_15
REMARK                            x       y       z     vdW  Elec       q    Type
REMARK                         _______ _______ _______ _____ _____    ______ ____
ROOT
ATOM      1  O   UNL     1       2.934   4.999  20.415  0.00  0.00    +0.000 OA
ATOM      2  C   UNL     1       3.087   5.928  19.628  0.00  0.00    +0.000 C 
ATOM      3  N   UNL     1       4.068   5.958  18.656  0.00  0.00    +0.000 N 
ATOM      4  H   UNL     1       4.216   6.866  18.224  0.00  0.00    +0.000 HD
ENDROOT
BRANCH   3   5
ATOM      5  C   UNL     1       5.149   4.973  18.605  0.00  0.00    +0.000 C 
ATOM      6  C   UNL     1       6.461   5.606  18.130  0.00  0.00    +0.000 C 
ATOM      7  C   UNL     1       6.458   5.905  16.630  0.00  0.00    +0.000 C 
ATOM      8  N   UNL     1       6.075   4.713  15.887  0.00  0.00    +0.000 N 
ATOM      9  C   UNL     1       6.454   4.658  14.553  0.00  0.00    +0.000 A 
ATOM     10  N   UNL     1       7.467   5.440  14.139  0.00  0.00    +0.000 NA
ATOM     11  C   UNL     1       7.935   5.265  12.890  0.00  0.00    +0.000 A 
ATOM     12  C   UNL     1       7.424   4.345  12.013  0.00  0.00    +0.000 A 
ATOM     13  C   UNL     1       6.368   3.618  12.495  0.00  0.00    +0.000 A 
ATOM     14  N   UNL     1       5.872   3.760  13.740  0.00  0.00    +0.000 NA
ATOM     15  C   UNL     1       4.815   4.076  16.253  0.00  0.00    +0.000 C 
ATOM     16  C   UNL     1       4.842   3.741  17.742  0.00  0.00    +0.000 C 
ENDBRANCH   3   5
BRANCH   2  17
ATOM     17  C   UNL     1       2.227   7.198  19.696  0.00  0.00    +0.000 C 
BRANCH  17  18
ATOM     18  O   UNL     1       2.193   8.038  18.555  0.00  0.00    +0.000 OA
BRANCH  18  19
ATOM     19  C   UNL     1       1.533   9.297  18.725  0.00  0.00    +0.000 C 
BRANCH  19  20
ATOM     20  C   UNL     1       0.780   9.515  20.044  0.00  0.00    +0.000 C 
BRANCH  20  21
ATOM     21  O   UNL     1       0.824  10.893  20.422  0.00  0.00    +0.000 OA
BRANCH  21  22
ATOM     22  C   UNL     1      -0.277  11.349  21.103  0.00  0.00    +0.000 A 
ATOM     23  C   UNL     1      -0.433  10.851  22.398  0.00  0.00    +0.000 A 
ATOM     24  C   UNL     1      -1.524  11.238  23.180  0.00  0.00    +0.000 A 
ATOM     25  C   UNL     1      -2.457  12.141  22.675  0.00  0.00    +0.000 A 
ATOM     26  C   UNL     1      -2.293  12.661  21.393  0.00  0.00    +0.000 A 
ATOM     27  C   UNL     1      -1.205  12.268  20.610  0.00  0.00    +0.000 A 
ENDBRANCH  21  22
ENDBRANCH  20  21
ENDBRANCH  19  20
ENDBRANCH  18  19
ENDBRANCH  17  18
ENDBRANCH   2  17
TORSDOF 7
ENDMDL
MODEL 3
REMARK VINA RESULT:      -7.0      3.454      5.392
REMARK  Name = 
REMARK  7 active torsions:
REMARK  status: ('A' for Active; 'I' for Inactive)
REMARK    1  A    between atoms: C_2  and  C_3
REMARK    2  A    between atoms: C_3  and  O_4
REMARK    3  A    between atoms: O_4  and  C_5
REMARK    4  A    between atoms: C_5  and  C_6
REMARK    5  A    between atoms: C_6  and  O_7
REMARK    6  A    between atoms: O_7  and  C_8
REMARK    7  A    between atoms: N_14  and  C_15
REMARK                            x       y       z     vdW  Elec       q    Type
REMARK                         _______ _______ _______ _____ _____    ______ ____
ROOT
ATOM      1  O   UNL     1       6.458   4.528  16.693  0.00  0.00    +0.000 OA
ATOM      2  C   UNL     1       6.500   4.780  17.892  0.00  0.00    +0.000 C 
ATOM      3  N   UNL     1       5.392   4.781  18.718  0.00  0.00    +0.000 N 
ATOM      4  H   UNL     1       5.535   5.213  19.627  0.00  0.00    +0.000 HD
ENDROOT
BRANCH   3   5
ATOM      5  C   UNL     1       4.029   4.679  18.196  0.00  0.00    +0.000 C 
ATOM      6  C   UNL     1       3.659   5.905  17.355  0.00  0.00    +0.000 C 
ATOM      7  C   UNL     1       3.402   7.147  18.209  0.00  0.00    +0.000 C 
ATOM      8  N   UNL     1       2.439   6.838  19.257  0.00  0.00    +0.000 N 
ATOM      9  C   UNL     1       1.755   7.909  19.815  0.00  0.00    +0.000 A 
ATOM     10  N   UNL     1       1.683   9.059  19.120  0.00  0.00    +0.000 NA
ATOM     11  C   UNL     1       0.886  10.035  19.589  0.00  0.00    +0.000 A 
ATOM     12  C   UNL     1       0.159   9.928  20.746  0.00  0.00    +0.000 A 
ATOM     13  C   UNL     1       0.320   8.746  21.417  0.00  0.00    +0.000 A 
ATOM     14  N   UNL     1       1.105   7.741  20.979  0.00  0.00    +0.000 NA
ATOM     15  C   UNL     1       2.742   5.709  20.129  0.00  0.00    +0.000 C 
ATOM     16  C   UNL     1       2.955   4.463  19.272  0.00  0.00    +0.000 C 
ENDBRANCH   3   5
BRANCH   2  17
ATOM     17  C   UNL     1       7.806   5.193  18.588  0.00  0.00    +0.000 C 
BRANCH  17  18
ATOM     18  O   UNL     1       8.054   6.576  18.766  0.00  0.00    +0.000 OA
BRANCH  18  19
ATOM     19  C   UNL     1       7.553   7.439  17.739  0.00  0.00    +0.000 C 
BRANCH  19  20
ATOM     20  C   UNL     1       7.913   8.927  17.844  0.00  0.00    +0.000 C 
BRANCH  20  21
ATOM     21  O   UNL     1       9.025   9.112  18.722  0.00  0.00    +0.000 OA
BRANCH  21  22
ATOM     22  C   UNL     1       9.308  10.416  19.043  0.00  0.00    +0.000 A 
ATOM     23  C   UNL     1       9.156  11.338  18.005  0.00  0.00    +0.000 A 
ATOM     24  C   UNL     1       9.427  12.692  18.215  0.00  0.00    +0.000 A 
ATOM     25  C   UNL     1       9.834  13.135  19.471  0.00  0.00    +0.000 A 
ATOM     26  C   UNL     1       9.964  12.223  20.517  0.00  0.00    +0.000 A 
ATOM     27  C   UNL     1       9.698  10.868  20.305  0.00  0.00    +0.000 A 
ENDBRANCH  21  22
ENDBRANCH  20  21
ENDBRANCH  19  20
ENDBRANCH  18  19
ENDBRANCH  17  18
ENDBRANCH   2  17
TORSDOF 7
ENDMDL
MODEL 4
REMARK VINA RESULT:      -6.8      0.566      1.067
REMARK  Name = 
REMARK  7 active torsions:
REMARK  status: ('A' for Active; 'I' for Inactive)
REMARK    1  A    between atoms: C_2  and  C_3
REMARK    2  A    between atoms: C_3  and  O_4
REMARK    3  A    between atoms: O_4  and  C_5
REMARK    4  A    between atoms: C_5  and  C_6
REMARK    5  A    between atoms: C_6  and  O_7
REMARK    6  A    between atoms: O_7  and  C_8
REMARK    7  A    between atoms: N_14  and  C_15
REMARK                            x       y       z     vdW  Elec       q    Type
REMARK                         _______ _______ _______ _____ _____    ______ ____
ROOT
ATOM      1  O   UNL     1       4.262   3.679  18.882  0.00  0.00    +0.000 OA
ATOM      2  C   UNL     1       4.691   4.768  19.249  0.00  0.00    +0.000 C 
ATOM      3  N   UNL     1       3.884   5.834  19.600  0.00  0.00    +0.000 N 
ATOM      4  H   UNL     1       4.362   6.727  19.675  0.00  0.00    +0.000 HD
ENDROOT
BRANCH   3   5
ATOM      5  C   UNL     1       2.438   5.828  19.370  0.00  0.00    +0.000 C 
ATOM      6  C   UNL     1       2.062   6.684  18.157  0.00  0.00    +0.000 C 
ATOM      7  C   UNL     1       2.165   8.183  18.442  0.00  0.00    +0.000 C 
ATOM      8  N   UNL     1       1.419   8.511  19.649  0.00  0.00    +0.000 N 
ATOM      9  C   UNL     1       1.023   9.832  19.801  0.00  0.00    +0.000 A 
ATOM     10  N   UNL     1       0.955  10.613  18.707  0.00  0.00    +0.000 NA
ATOM     11  C   UNL     1       0.417  11.839  18.836  0.00  0.00    +0.000 A 
ATOM     12  C   UNL     1      -0.049  12.340  20.023  0.00  0.00    +0.000 A 
ATOM     13  C   UNL     1       0.094  11.501  21.095  0.00  0.00    +0.000 A 
ATOM     14  N   UNL     1       0.624  10.265  21.009  0.00  0.00    +0.000 NA
ATOM     15  C   UNL     1       1.750   7.767  20.859  0.00  0.00    +0.000 C 
ATOM     16  C   UNL     1       1.604   6.273  20.579  0.00  0.00    +0.000 C 
ENDBRANCH   3   5
BRANCH   2  17
ATOM     17  C   UNL     1       6.195   5.075  19.291  0.00  0.00    +0.000 C 
BRANCH  17  18
ATOM     18  O   UNL     1       6.781   5.674  18.149  0.00  0.00    +0.000 OA
BRANCH  18  19
ATOM     19  C   UNL     1       5.938   6.559  17.404  0.00  0.00    +0.000 C 
BRANCH  19  20
ATOM     20  C   UNL     1       5.789   6.278  15.903  0.00  0.00    +0.000 C 
BRANCH  20  21
ATOM     21  O   UNL     1       6.974   5.666  15.388  0.00  0.00    +0.000 OA
BRANCH  21  22
ATOM     22  C   UNL     1       6.815   4.979  14.211  0.00  0.00    +0.000 A 
ATOM     23  C   UNL     1       5.668   4.187  14.127  0.00  0.00    +0.000 A 
ATOM     24  C   UNL     1       5.409   3.435  12.978  0.00  0.00    +0.000 A 
ATOM     25  C   UNL     1       6.289   3.485  11.900  0.00  0.00    +0.000 A 
ATOM     26  C   UNL     1       7.423   4.293  11.969  0.00  0.00    +0.000 A 
ATOM     27  C   UNL     1       7.683   5.040  13.119  0.00  0.00    +0.000 A 
ENDBRANCH  21  22
ENDBRANCH  20  21
ENDBRANCH  19  20
ENDBRANCH  18  19
ENDBRANCH  17  18
ENDBRANCH   2  17
TORSDOF 7
ENDMDL
MODEL 5
REMARK VINA RESULT:      -6.8      3.230      9.950
REMARK  Name = 
REMARK  7 active torsions:
REMARK  status: ('A' for Active; 'I' for Inactive)
REMARK    1  A    between atoms: C_2  and  C_3
REMARK    2  A    between atoms: C_3  and  O_4
REMARK    3  A    between atoms: O_4  and  C_5
REMARK    4  A    between atoms: C_5  and  C_6
REMARK    5  A    between atoms: C_6  and  O_7
REMARK    6  A    between atoms: O_7  and  C_8
REMARK    7  A    between atoms: N_14  and  C_15
REMARK                            x       y       z     vdW  Elec       q    Type
REMARK                         _______ _______ _______ _____ _____    ______ ____
ROOT
ATOM      1  O   UNL     1       2.542   4.961  20.154  0.00  0.00    +0.000 OA
ATOM      2  C   UNL     1       2.922   5.998  19.620  0.00  0.00    +0.000 C 
ATOM      3  N   UNL     1       4.075   6.098  18.865  0.00  0.00    +0.000 N 
ATOM      4  H   UNL     1       4.378   7.047  18.668  0.00  0.00    +0.000 HD
ENDROOT
BRANCH   3   5
ATOM      5  C   UNL     1       5.061   5.018  18.799  0.00  0.00    +0.000 C 
ATOM      6  C   UNL     1       6.424   5.534  18.326  0.00  0.00    +0.000 C 
ATOM      7  C   UNL     1       6.444   5.851  16.830  0.00  0.00    +0.000 C 
ATOM      8  N   UNL     1       5.952   4.708  16.074  0.00  0.00    +0.000 N 
ATOM      9  C   UNL     1       6.320   4.634  14.738  0.00  0.00    +0.000 A 
ATOM     10  N   UNL     1       7.400   5.325  14.330  0.00  0.00    +0.000 NA
ATOM     11  C   UNL     1       7.846   5.123  13.077  0.00  0.00    +0.000 A 
ATOM     12  C   UNL     1       7.251   4.264  12.191  0.00  0.00    +0.000 A 
ATOM     13  C   UNL     1       6.134   3.631  12.668  0.00  0.00    +0.000 A 
ATOM     14  N   UNL     1       5.656   3.803  13.917  0.00  0.00    +0.000 NA
ATOM     15  C   UNL     1       4.640   4.184  16.437  0.00  0.00    +0.000 C 
ATOM     16  C   UNL     1       4.640   3.830  17.922  0.00  0.00    +0.000 C 
ENDBRANCH   3   5
BRANCH   2  17
ATOM     17  C   UNL     1       2.171   7.325  19.802  0.00  0.00    +0.000 C 
BRANCH  17  18
ATOM     18  O   UNL     1       1.275   7.436  20.894  0.00  0.00    +0.000 OA
BRANCH  18  19
ATOM     19  C   UNL     1       1.439   8.592  21.722  0.00  0.00    +0.000 C 
BRANCH  19  20
ATOM     20  C   UNL     1       0.161   9.318  22.164  0.00  0.00    +0.000 C 
BRANCH  20  21
ATOM     21  O   UNL     1       0.179  10.677  21.721  0.00  0.00    +0.000 OA
BRANCH  21  22
ATOM     22  C   UNL     1      -0.974  11.384  21.950  0.00  0.00    +0.000 A 
ATOM     23  C   UNL     1      -1.473  12.094  20.856  0.00  0.00    +0.000 A 
ATOM     24  C   UNL     1      -2.637  12.857  20.977  0.00  0.00    +0.000 A 
ATOM     25  C   UNL     1      -3.319  12.900  22.190  0.00  0.00    +0.000 A 
ATOM     26  C   UNL     1      -2.840  12.173  23.279  0.00  0.00    +0.000 A 
ATOM     27  C   UNL     1      -1.673  11.415  23.158  0.00  0.00    +0.000 A 
ENDBRANCH  21  22
ENDBRANCH  20  21
ENDBRANCH  19  20
ENDBRANCH  18  19
ENDBRANCH  17  18
ENDBRANCH   2  17
TORSDOF 7
ENDMDL
MODEL 6
REMARK VINA RESULT:      -6.8      5.456      8.529
REMARK  Name = 
REMARK  7 active torsions:
REMARK  status: ('A' for Active; 'I' for Inactive)
REMARK    1  A    between atoms: C_2  and  C_3
REMARK    2  A    between atoms: C_3  and  O_4
REMARK    3  A    between atoms: O_4  and  C_5
REMARK    4  A    between atoms: C_5  and  C_6
REMARK    5  A    between atoms: C_6  and  O_7
REMARK    6  A    between atoms: O_7  and  C_8
REMARK    7  A    between atoms: N_14  and  C_15
REMARK                            x       y       z     vdW  Elec       q    Type
REMARK                         _______ _______ _______ _____ _____    ______ ____
ROOT
ATOM      1  O   UNL     1       8.543   7.229  18.864  0.00  0.00    +0.000 OA
ATOM      2  C   UNL     1       7.936   7.846  17.994  0.00  0.00    +0.000 C 
ATOM      3  N   UNL     1       7.133   7.246  17.044  0.00  0.00    +0.000 N 
ATOM      4  H   UNL     1       6.870   7.843  16.265  0.00  0.00    +0.000 HD
ENDROOT
BRANCH   3   5
ATOM      5  C   UNL     1       7.091   5.794  16.860  0.00  0.00    +0.000 C 
ATOM      6  C   UNL     1       5.904   5.376  15.987  0.00  0.00    +0.000 C 
ATOM      7  C   UNL     1       4.568   5.474  16.726  0.00  0.00    +0.000 C 
ATOM      8  N   UNL     1       4.649   4.761  17.993  0.00  0.00    +0.000 N 
ATOM      9  C   UNL     1       3.450   4.357  18.563  0.00  0.00    +0.000 A 
ATOM     10  N   UNL     1       2.366   4.251  17.773  0.00  0.00    +0.000 NA
ATOM     11  C   UNL     1       1.252   3.707  18.294  0.00  0.00    +0.000 A 
ATOM     12  C   UNL     1       1.157   3.271  19.589  0.00  0.00    +0.000 A 
ATOM     13  C   UNL     1       2.288   3.453  20.339  0.00  0.00    +0.000 A 
ATOM     14  N   UNL     1       3.425   3.990  19.856  0.00  0.00    +0.000 NA
ATOM     15  C   UNL     1       5.729   5.133  18.900  0.00  0.00    +0.000 C 
ATOM     16  C   UNL     1       7.062   4.992  18.168  0.00  0.00    +0.000 C 
ENDBRANCH   3   5
BRANCH   2  17
ATOM     17  C   UNL     1       8.070   9.367  17.837  0.00  0.00    +0.000 C 
BRANCH  17  18
ATOM     18  O   UNL     1       9.054  10.031  18.612  0.00  0.00    +0.000 OA
BRANCH  18  19
ATOM     19  C   UNL     1       9.431  11.335  18.161  0.00  0.00    +0.000 C 
BRANCH  19  20
ATOM     20  C   UNL     1       9.973  12.307  19.217  0.00  0.00    +0.000 C 
BRANCH  20  21
ATOM     21  O   UNL     1       9.589  11.885  20.528  0.00  0.00    +0.000 OA
BRANCH  21  22
ATOM     22  C   UNL     1       9.449  12.892  21.450  0.00  0.00    +0.000 A 
ATOM     23  C   UNL     1      10.157  14.064  21.175  0.00  0.00    +0.000 A 
ATOM     24  C   UNL     1      10.097  15.151  22.050  0.00  0.00    +0.000 A 
ATOM     25  C   UNL     1       9.312  15.078  23.198  0.00  0.00    +0.000 A 
ATOM     26  C   UNL     1       8.583  13.920  23.465  0.00  0.00    +0.000 A 
ATOM     27  C   UNL     1       8.648  12.832  22.592  0.00  0.00    +0.000 A 
ENDBRANCH  21  22
ENDBRANCH  20  21
ENDBRANCH  19  20
ENDBRANCH  18  19
ENDBRANCH  17  18
ENDBRANCH   2  17
TORSDOF 7
ENDMDL
MODEL 7
REMARK VINA RESULT:      -6.8      3.225      8.909
REMARK  Name = 
REMARK  7 active torsions:
REMARK  status: ('A' for Active; 'I' for Inactive)
REMARK    1  A    between atoms: C_2  and  C_3
REMARK    2  A    between atoms: C_3  and  O_4
REMARK    3  A    between atoms: O_4  and  C_5
REMARK    4  A    between atoms: C_5  and  C_6
REMARK    5  A    between atoms: C_6  and  O_7
REMARK    6  A    between atoms: O_7  and  C_8
REMARK    7  A    between atoms: N_14  and  C_15
REMARK                            x       y       z     vdW  Elec       q    Type
REMARK                         _______ _______ _______ _____ _____    ______ ____
ROOT
ATOM      1  O   UNL     1       2.818   5.104  20.313  0.00  0.00    +0.000 OA
ATOM      2  C   UNL     1       3.033   6.045  19.555  0.00  0.00    +0.000 C 
ATOM      3  N   UNL     1       4.051   6.064  18.621  0.00  0.00    +0.000 N 
ATOM      4  H   UNL     1       4.246   6.976  18.218  0.00  0.00    +0.000 HD
ENDROOT
BRANCH   3   5
ATOM      5  C   UNL     1       5.099   5.043  18.586  0.00  0.00    +0.000 C 
ATOM      6  C   UNL     1       6.434   5.628  18.116  0.00  0.00    +0.000 C 
ATOM      7  C   UNL     1       6.452   5.915  16.614  0.00  0.00    +0.000 C 
ATOM      8  N   UNL     1       6.035   4.730  15.877  0.00  0.00    +0.000 N 
ATOM      9  C   UNL     1       6.421   4.651  14.547  0.00  0.00    +0.000 A 
ATOM     10  N   UNL     1       7.463   5.396  14.134  0.00  0.00    +0.000 NA
ATOM     11  C   UNL     1       7.934   5.195  12.890  0.00  0.00    +0.000 A 
ATOM     12  C   UNL     1       7.399   4.286  12.017  0.00  0.00    +0.000 A 
ATOM     13  C   UNL     1       6.316   3.598  12.496  0.00  0.00    +0.000 A 
ATOM     14  N   UNL     1       5.815   3.767  13.736  0.00  0.00    +0.000 NA
ATOM     15  C   UNL     1       4.752   4.138  16.239  0.00  0.00    +0.000 C 
ATOM     16  C   UNL     1       4.757   3.815  17.731  0.00  0.00    +0.000 C 
ENDBRANCH   3   5
BRANCH   2  17
ATOM     17  C   UNL     1       2.214   7.343  19.622  0.00  0.00    +0.000 C 
BRANCH  17  18
ATOM     18  O   UNL     1       1.499   7.615  20.815  0.00  0.00    +0.000 OA
BRANCH  18  19
ATOM     19  C   UNL     1       1.043   8.962  20.977  0.00  0.00    +0.000 C 
BRANCH  19  20
ATOM     20  C   UNL     1       0.573   9.694  19.712  0.00  0.00    +0.000 C 
BRANCH  20  21
ATOM     21  O   UNL     1       0.208  11.041  20.020  0.00  0.00    +0.000 OA
BRANCH  21  22
ATOM     22  C   UNL     1       1.160  11.986  19.732  0.00  0.00    +0.000 A 
ATOM     23  C   UNL     1       1.495  12.843  20.783  0.00  0.00    +0.000 A 
ATOM     24  C   UNL     1       2.445  13.851  20.601  0.00  0.00    +0.000 A 
ATOM     25  C   UNL     1       3.079  13.996  19.369  0.00  0.00    +0.000 A 
ATOM     26  C   UNL     1       2.766  13.128  18.324  0.00  0.00    +0.000 A 
ATOM     27  C   UNL     1       1.813  12.124  18.506  0.00  0.00    +0.000 A 
ENDBRANCH  21  22
ENDBRANCH  20  21
ENDBRANCH  19  20
ENDBRANCH  18  19
ENDBRANCH  17  18
ENDBRANCH   2  17
TORSDOF 7
ENDMDL
MODEL 8
REMARK VINA RESULT:      -6.8      2.609      4.152
REMARK  Name = 
REMARK  7 active torsions:
REMARK  status: ('A' for Active; 'I' for Inactive)
REMARK    1  A    between atoms: C_2  and  C_3
REMARK    2  A    between atoms: C_3  and  O_4
REMARK    3  A    between atoms: O_4  and  C_5
REMARK    4  A    between atoms: C_5  and  C_6
REMARK    5  A    between atoms: C_6  and  O_7
REMARK    6  A    between atoms: O_7  and  C_8
REMARK    7  A    between atoms: N_14  and  C_15
REMARK                            x       y       z     vdW  Elec       q    Type
REMARK                         _______ _______ _______ _____ _____    ______ ____
ROOT
ATOM      1  O   UNL     1       2.627   4.686  21.064  0.00  0.00    +0.000 OA
ATOM      2  C   UNL     1       1.813   4.801  20.153  0.00  0.00    +0.000 C 
ATOM      3  N   UNL     1       1.755   5.892  19.306  0.00  0.00    +0.000 N 
ATOM      4  H   UNL     1       0.910   5.955  18.746  0.00  0.00    +0.000 HD
ENDROOT
BRANCH   3   5
ATOM      5  C   UNL     1       2.531   7.109  19.546  0.00  0.00    +0.000 C 
ATOM      6  C   UNL     1       2.085   7.813  20.831  0.00  0.00    +0.000 C 
ATOM      7  C   UNL     1       0.738   8.520  20.675  0.00  0.00    +0.000 C 
ATOM      8  N   UNL     1       0.766   9.388  19.506  0.00  0.00    +0.000 N 
ATOM      9  C   UNL     1      -0.160  10.422  19.471  0.00  0.00    +0.000 A 
ATOM     10  N   UNL     1      -0.712  10.830  20.628  0.00  0.00    +0.000 NA
ATOM     11  C   UNL     1      -1.481  11.933  20.610  0.00  0.00    +0.000 A 
ATOM     12  C   UNL     1      -1.745  12.652  19.474  0.00  0.00    +0.000 A 
ATOM     13  C   UNL     1      -1.182  12.149  18.332  0.00  0.00    +0.000 A 
ATOM     14  N   UNL     1      -0.403  11.049  18.308  0.00  0.00    +0.000 NA
ATOM     15  C   UNL     1       1.141   8.781  18.234  0.00  0.00    +0.000 C 
ATOM     16  C   UNL     1       2.506   8.114  18.385  0.00  0.00    +0.000 C 
ENDBRANCH   3   5
BRANCH   2  17
ATOM     17  C   UNL     1       0.718   3.753  19.907  0.00  0.00    +0.000 C 
BRANCH  17  18
ATOM     18  O   UNL     1       0.873   2.880  18.802  0.00  0.00    +0.000 OA
BRANCH  18  19
ATOM     19  C   UNL     1       1.951   1.943  18.891  0.00  0.00    +0.000 C 
BRANCH  19  20
ATOM     20  C   UNL     1       3.168   2.195  17.991  0.00  0.00    +0.000 C 
BRANCH  20  21
ATOM     21  O   UNL     1       4.254   2.724  18.755  0.00  0.00    +0.000 OA
BRANCH  21  22
ATOM     22  C   UNL     1       4.750   3.925  18.315  0.00  0.00    +0.000 A 
ATOM     23  C   UNL     1       4.276   4.353  17.072  0.00  0.00    +0.000 A 
ATOM     24  C   UNL     1       4.721   5.558  16.521  0.00  0.00    +0.000 A 
ATOM     25  C   UNL     1       5.629   6.350  17.219  0.00  0.00    +0.000 A 
ATOM     26  C   UNL     1       6.086   5.940  18.470  0.00  0.00    +0.000 A 
ATOM     27  C   UNL     1       5.645   4.733  19.018  0.00  0.00    +0.000 A 
ENDBRANCH  21  22
ENDBRANCH  20  21
ENDBRANCH  19  20
ENDBRANCH  18  19
ENDBRANCH  17  18
ENDBRANCH   2  17
TORSDOF 7
ENDMDL
MODEL 9
REMARK VINA RESULT:      -6.8      2.533      4.573
REMARK  Name = 
REMARK  7 active torsions:
REMARK  status: ('A' for Active; 'I' for Inactive)
REMARK    1  A    between atoms: C_2  and  C_3
REMARK    2  A    between atoms: C_3  and  O_4
REMARK    3  A    between atoms: O_4  and  C_5
REMARK    4  A    between atoms: C_5  and  C_6
REMARK    5  A    between atoms: C_6  and  O_7
REMARK    6  A    between atoms: O_7  and  C_8
REMARK    7  A    between atoms: N_14  and  C_15
REMARK                            x       y       z     vdW  Elec       q    Type
REMARK                         _______ _______ _______ _____ _____    ______ ____
ROOT
ATOM      1  O   UNL     1       3.307   6.879  19.060  0.00  0.00    +0.000 OA
ATOM      2  C   UNL     1       2.328   6.806  19.796  0.00  0.00    +0.000 C 
ATOM      3  N   UNL     1       1.411   7.826  19.960  0.00  0.00    +0.000 N 
ATOM      4  H   UNL     1       0.782   7.714  20.750  0.00  0.00    +0.000 HD
ENDROOT
BRANCH   3   5
ATOM      5  C   UNL     1       1.633   9.171  19.425  0.00  0.00    +0.000 C 
ATOM      6  C   UNL     1       0.761  10.208  20.140  0.00  0.00    +0.000 C 
ATOM      7  C   UNL     1      -0.709  10.121  19.728  0.00  0.00    +0.000 C 
ATOM      8  N   UNL     1      -0.821  10.156  18.276  0.00  0.00    +0.000 N 
ATOM      9  C   UNL     1      -2.045  10.545  17.750  0.00  0.00    +0.000 A 
ATOM     10  N   UNL     1      -2.884  11.250  18.530  0.00  0.00    +0.000 NA
ATOM     11  C   UNL     1      -3.994  11.761  17.967  0.00  0.00    +0.000 A 
ATOM     12  C   UNL     1      -4.322  11.587  16.648  0.00  0.00    +0.000 A 
ATOM     13  C   UNL     1      -3.440  10.823  15.933  0.00  0.00    +0.000 A 
ATOM     14  N   UNL     1      -2.316  10.295  16.458  0.00  0.00    +0.000 NA
ATOM     15  C   UNL     1      -0.051   9.170  17.525  0.00  0.00    +0.000 C 
ATOM     16  C   UNL     1       1.421   9.291  17.910  0.00  0.00    +0.000 C 
ENDBRANCH   3   5
BRANCH   2  17
ATOM     17  C   UNL     1       2.063   5.573  20.671  0.00  0.00    +0.000 C 
BRANCH  17  18
ATOM     18  O   UNL     1       2.011   4.307  20.035  0.00  0.00    +0.000 OA
BRANCH  18  19
ATOM     19  C   UNL     1       3.176   3.488  20.175  0.00  0.00    +0.000 C 
BRANCH  19  20
ATOM     20  C   UNL     1       4.138   3.438  18.981  0.00  0.00    +0.000 C 
BRANCH  20  21
ATOM     21  O   UNL     1       5.453   3.831  19.381  0.00  0.00    +0.000 OA
BRANCH  21  22
ATOM     22  C   UNL     1       6.039   4.796  18.601  0.00  0.00    +0.000 A 
ATOM     23  C   UNL     1       7.063   5.524  19.211  0.00  0.00    +0.000 A 
ATOM     24  C   UNL     1       7.724   6.539  18.515  0.00  0.00    +0.000 A 
ATOM     25  C   UNL     1       7.375   6.819  17.196  0.00  0.00    +0.000 A 
ATOM     26  C   UNL     1       6.371   6.079  16.573  0.00  0.00    +0.000 A 
ATOM     27  C   UNL     1       5.708   5.068  17.272  0.00  0.00    +0.000 A 
ENDBRANCH  21  22
ENDBRANCH  20  21
ENDBRANCH  19  20
ENDBRANCH  18  19
ENDBRANCH  17  18
ENDBRANCH   2  17
TORSDOF 7
ENDMDL
