MODEL 1
REMARK VINA RESULT:      -6.8      0.000      0.000
REMARK  Name = 
REMARK  4 active torsions:
REMARK  status: ('A' for Active; 'I' for Inactive)
REMARK    1  A    between atoms: N_1  and  S_2
REMARK    2  A    between atoms: S_2  and  C_5
REMARK    3  A    between atoms: C_9  and  N_10
REMARK    4  A    between atoms: C_11  and  C_13
REMARK                            x       y       z     vdW  Elec       q    Type
REMARK                         _______ _______ _______ _____ _____    ______ ____
ROOT
ATOM      1  C   UNL     1       5.548   4.936  17.549  0.00  0.00    +0.000 A 
ATOM      2  C   UNL     1       4.956   3.856  16.891  0.00  0.00    +0.000 A 
ATOM      3  C   UNL     1       3.580   3.685  16.973  0.00  0.00    +0.000 A 
ATOM      4  C   UNL     1       2.805   4.579  17.716  0.00  0.00    +0.000 A 
ATOM      5  C   UNL     1       3.389   5.663  18.381  0.00  0.00    +0.000 A 
ATOM      6  C   UNL     1       4.773   5.853  18.274  0.00  0.00    +0.000 A 
ENDROOT
BRANCH   5   7
ATOM      7  N   UNL     1       2.655   6.582  19.159  0.00  0.00    +0.000 N 
ATOM      8  C   UNL     1       2.245   7.857  18.793  0.00  0.00    +0.000 C 
ATOM      9  O   UNL     1       2.442   8.354  17.686  0.00  0.00    +0.000 OA
ATOM     10  H   UNL     1       2.332   6.266  20.066  0.00  0.00    +0.000 HD
BRANCH   8  11
ATOM     11  C   UNL     1       1.504   8.595  19.815  0.00  0.00    +0.000 A 
ATOM     12  C   UNL     1       1.314   8.201  21.129  0.00  0.00    +0.000 A 
ATOM     13  C   UNL     1       0.553   9.138  21.883  0.00  0.00    +0.000 A 
ATOM     14  C   UNL     1       0.178  10.221  21.122  0.00  0.00    +0.000 A 
ATOM     15  S   UNL     1       0.740  10.100  19.511  0.00  0.00    +0.000 S 
ENDBRANCH   8  11
ENDBRANCH   5   7
BRANCH   1  16
ATOM     16  S   UNL     1       7.299   5.131  17.475  0.00  0.00    +0.000 S 
ATOM     17  O   UNL     1       7.813   4.304  16.409  0.00  0.00    +0.000 OA
ATOM     18  O   UNL     1       7.847   5.110  18.812  0.00  0.00    +0.000 OA
BRANCH  16  19
ATOM     19  N   UNL     1       7.465   6.721  16.957  0.00  0.00    +0.000 NA
ATOM     20  H   UNL     1       6.559   7.073  16.645  0.00  0.00    +0.000 HD
ATOM     21  H   UNL     1       8.190   6.775  16.242  0.00  0.00    +0.000 HD
ENDBRANCH  16  19
ENDBRANCH   1  16
TORSDOF 4
ENDMDL
MODEL 2
REMARK VINA RESULT:      -6.8      1.419      1.628
REMARK  Name = 
REMARK  4 active torsions:
REMARK  status: ('A' for Active; 'I' for Inactive)
REMARK    1  A    between atoms: N_1  and  S_2
REMARK    2  A    between atoms: S_2  and  C_5
REMARK    3  A    between atoms: C_9  and  N_10
REMARK    4  A    between atoms: C_11  and  C_13
REMARK                            x       y       z     vdW  Elec       q    Type
REMARK                         _______ _______ _______ _____ _____    ______ ____
ROOT
ATOM      1  C   UNL     1       5.458   5.034  16.908  0.00  0.00    +0.000 A 
ATOM      2  C   UNL     1       4.840   3.800  16.693  0.00  0.00    +0.000 A 
ATOM      3  C   UNL     1       3.519   3.626  17.086  0.00  0.00    +0.000 A 
ATOM      4  C   UNL     1       2.826   4.673  17.700  0.00  0.00    +0.000 A 
ATOM      5  C   UNL     1       3.437   5.912  17.922  0.00  0.00    +0.000 A 
ATOM      6  C   UNL     1       4.759   6.098  17.499  0.00  0.00    +0.000 A 
ENDROOT
BRANCH   5   7
ATOM      7  N   UNL     1       2.788   6.993  18.555  0.00  0.00    +0.000 N 
ATOM      8  C   UNL     1       2.167   6.993  19.797  0.00  0.00    +0.000 C 
ATOM      9  O   UNL     1       2.136   6.024  20.551  0.00  0.00    +0.000 OA
ATOM     10  H   UNL     1       2.826   7.892  18.089  0.00  0.00    +0.000 HD
BRANCH   8  11
ATOM     11  C   UNL     1       1.562   8.263  20.195  0.00  0.00    +0.000 A 
ATOM     12  C   UNL     1       1.204   8.628  21.483  0.00  0.00    +0.000 A 
ATOM     13  C   UNL     1       0.642   9.934  21.551  0.00  0.00    +0.000 A 
ATOM     14  C   UNL     1       0.582  10.529  20.311  0.00  0.00    +0.000 A 
ATOM     15  S   UNL     1       1.197   9.513  19.080  0.00  0.00    +0.000 S 
ENDBRANCH   8  11
ENDBRANCH   5   7
BRANCH   1  16
ATOM     16  S   UNL     1       7.146   5.243  16.443  0.00  0.00    +0.000 S 
ATOM     17  O   UNL     1       7.557   6.585  16.781  0.00  0.00    +0.000 OA
ATOM     18  O   UNL     1       7.366   4.664  15.138  0.00  0.00    +0.000 OA
BRANCH  16  19
ATOM     19  N   UNL     1       7.944   4.225  17.515  0.00  0.00    +0.000 NA
ATOM     20  H   UNL     1       8.441   4.784  18.210  0.00  0.00    +0.000 HD
ATOM     21  H   UNL     1       8.551   3.589  16.997  0.00  0.00    +0.000 HD
ENDBRANCH  16  19
ENDBRANCH   1  16
TORSDOF 4
ENDMDL
MODEL 3
REMARK VINA RESULT:      -6.8      1.041      1.327
REMARK  Name = 
REMARK  4 active torsions:
REMARK  status: ('A' for Active; 'I' for Inactive)
REMARK    1  A    between atoms: N_1  and  S_2
REMARK    2  A    between atoms: S_2  and  C_5
REMARK    3  A    between atoms: C_9  and  N_10
REMARK    4  A    between atoms: C_11  and  C_13
REMARK                            x       y       z     vdW  Elec       q    Type
REMARK                         _______ _______ _______ _____ _____    ______ ____
ROOT
ATOM      1  C   UNL     1       5.362   5.255  16.936  0.00  0.00    +0.000 A 
ATOM      2  C   UNL     1       4.801   4.026  16.581  0.00  0.00    +0.000 A 
ATOM      3  C   UNL     1       3.501   3.736  16.975  0.00  0.00    +0.000 A 
ATOM      4  C   UNL     1       2.773   4.660  17.728  0.00  0.00    +0.000 A 
ATOM      5  C   UNL     1       3.327   5.893  18.091  0.00  0.00    +0.000 A 
ATOM      6  C   UNL     1       4.627   6.199  17.668  0.00  0.00    +0.000 A 
ENDROOT
BRANCH   5   7
ATOM      7  N   UNL     1       2.642   6.852  18.866  0.00  0.00    +0.000 N 
ATOM      8  C   UNL     1       2.199   8.104  18.459  0.00  0.00    +0.000 C 
ATOM      9  O   UNL     1       2.317   8.538  17.316  0.00  0.00    +0.000 OA
ATOM     10  H   UNL     1       2.384   6.586  19.809  0.00  0.00    +0.000 HD
BRANCH   8  11
ATOM     11  C   UNL     1       1.526   8.896  19.488  0.00  0.00    +0.000 A 
ATOM     12  C   UNL     1       1.278   8.498  20.791  0.00  0.00    +0.000 A 
ATOM     13  C   UNL     1       0.609   9.495  21.556  0.00  0.00    +0.000 A 
ATOM     14  C   UNL     1       0.361  10.626  20.812  0.00  0.00    +0.000 A 
ATOM     15  S   UNL     1       0.929  10.478  19.206  0.00  0.00    +0.000 S 
ENDBRANCH   8  11
ENDBRANCH   5   7
BRANCH   1  16
ATOM     16  S   UNL     1       7.025   5.607  16.467  0.00  0.00    +0.000 S 
ATOM     17  O   UNL     1       7.424   6.852  17.079  0.00  0.00    +0.000 OA
ATOM     18  O   UNL     1       7.200   5.339  15.059  0.00  0.00    +0.000 OA
BRANCH  16  19
ATOM     19  N   UNL     1       7.886   4.399  17.255  0.00  0.00    +0.000 NA
ATOM     20  H   UNL     1       7.285   3.948  17.946  0.00  0.00    +0.000 HD
ATOM     21  H   UNL     1       8.739   4.791  17.654  0.00  0.00    +0.000 HD
ENDBRANCH  16  19
ENDBRANCH   1  16
TORSDOF 4
ENDMDL
MODEL 4
REMARK VINA RESULT:      -6.8      1.213      1.400
REMARK  Name = 
REMARK  4 active torsions:
REMARK  status: ('A' for Active; 'I' for Inactive)
REMARK    1  A    between atoms: N_1  and  S_2
REMARK    2  A    between atoms: S_2  and  C_5
REMARK    3  A    between atoms: C_9  and  N_10
REMARK    4  A    between atoms: C_11  and  C_13
REMARK                            x       y       z     vdW  Elec       q    Type
REMARK                         _______ _______ _______ _____ _____    ______ ____
ROOT
ATOM      1  C   UNL     1       5.399   5.277  17.110  0.00  0.00    +0.000 A 
ATOM      2  C   UNL     1       4.832   4.062  16.719  0.00  0.00    +0.000 A 
ATOM      3  C   UNL     1       3.503   3.803  17.031  0.00  0.00    +0.000 A 
ATOM      4  C   UNL     1       2.753   4.745  17.740  0.00  0.00    +0.000 A 
ATOM      5  C   UNL     1       3.313   5.964  18.139  0.00  0.00    +0.000 A 
ATOM      6  C   UNL     1       4.643   6.238  17.797  0.00  0.00    +0.000 A 
ENDROOT
BRANCH   5   7
ATOM      7  N   UNL     1       2.604   6.939  18.872  0.00  0.00    +0.000 N 
ATOM      8  C   UNL     1       2.181   8.185  18.426  0.00  0.00    +0.000 C 
ATOM      9  O   UNL     1       2.341   8.598  17.281  0.00  0.00    +0.000 OA
ATOM     10  H   UNL     1       2.312   6.690  19.809  0.00  0.00    +0.000 HD
BRANCH   8  11
ATOM     11  C   UNL     1       1.475   8.997  19.416  0.00  0.00    +0.000 A 
ATOM     12  C   UNL     1       0.947  10.261  19.208  0.00  0.00    +0.000 A 
ATOM     13  C   UNL     1       0.311  10.792  20.365  0.00  0.00    +0.000 A 
ATOM     14  C   UNL     1       0.374   9.919  21.428  0.00  0.00    +0.000 A 
ATOM     15  S   UNL     1       1.198   8.476  21.026  0.00  0.00    +0.000 S 
ENDBRANCH   8  11
ENDBRANCH   5   7
BRANCH   1  16
ATOM     16  S   UNL     1       7.095   5.590  16.746  0.00  0.00    +0.000 S 
ATOM     17  O   UNL     1       7.898   4.558  17.358  0.00  0.00    +0.000 OA
ATOM     18  O   UNL     1       7.377   6.997  16.910  0.00  0.00    +0.000 OA
BRANCH  16  19
ATOM     19  N   UNL     1       7.166   5.318  15.089  0.00  0.00    +0.000 NA
ATOM     20  H   UNL     1       8.070   5.630  14.731  0.00  0.00    +0.000 HD
ATOM     21  H   UNL     1       6.372   5.767  14.633  0.00  0.00    +0.000 HD
ENDBRANCH  16  19
ENDBRANCH   1  16
TORSDOF 4
ENDMDL
MODEL 5
REMARK VINA RESULT:      -6.7      1.113      1.117
REMARK  Name = 
REMARK  4 active torsions:
REMARK  status: ('A' for Active; 'I' for Inactive)
REMARK    1  A    between atoms: N_1  and  S_2
REMARK    2  A    between atoms: S_2  and  C_5
REMARK    3  A    between atoms: C_9  and  N_10
REMARK    4  A    between atoms: C_11  and  C_13
REMARK                            x       y       z     vdW  Elec       q    Type
REMARK                         _______ _______ _______ _____ _____    ______ ____
ROOT
ATOM      1  C   UNL     1       5.396   4.903  17.219  0.00  0.00    +0.000 A 
ATOM      2  C   UNL     1       4.711   3.743  16.850  0.00  0.00    +0.000 A 
ATOM      3  C   UNL     1       3.343   3.663  17.079  0.00  0.00    +0.000 A 
ATOM      4  C   UNL     1       2.670   4.726  17.685  0.00  0.00    +0.000 A 
ATOM      5  C   UNL     1       3.348   5.891  18.062  0.00  0.00    +0.000 A 
ATOM      6  C   UNL     1       4.721   5.985  17.803  0.00  0.00    +0.000 A 
ENDROOT
BRANCH   5   7
ATOM      7  N   UNL     1       2.719   6.984  18.694  0.00  0.00    +0.000 N 
ATOM      8  C   UNL     1       2.078   6.990  19.925  0.00  0.00    +0.000 C 
ATOM      9  O   UNL     1       2.007   6.016  20.670  0.00  0.00    +0.000 OA
ATOM     10  H   UNL     1       2.790   7.886  18.236  0.00  0.00    +0.000 HD
BRANCH   8  11
ATOM     11  C   UNL     1       1.501   8.273  20.325  0.00  0.00    +0.000 A 
ATOM     12  C   UNL     1       1.128   8.635  21.609  0.00  0.00    +0.000 A 
ATOM     13  C   UNL     1       0.603   9.956  21.680  0.00  0.00    +0.000 A 
ATOM     14  C   UNL     1       0.584  10.565  20.446  0.00  0.00    +0.000 A 
ATOM     15  S   UNL     1       1.194   9.545  19.217  0.00  0.00    +0.000 S 
ENDBRANCH   8  11
ENDBRANCH   5   7
BRANCH   1  16
ATOM     16  S   UNL     1       7.138   4.989  16.962  0.00  0.00    +0.000 S 
ATOM     17  O   UNL     1       7.437   4.488  15.641  0.00  0.00    +0.000 OA
ATOM     18  O   UNL     1       7.829   4.530  18.145  0.00  0.00    +0.000 OA
BRANCH  16  19
ATOM     19  N   UNL     1       7.414   6.646  16.907  0.00  0.00    +0.000 NA
ATOM     20  H   UNL     1       7.953   6.874  16.071  0.00  0.00    +0.000 HD
ATOM     21  H   UNL     1       7.861   6.948  17.773  0.00  0.00    +0.000 HD
ENDBRANCH  16  19
ENDBRANCH   1  16
TORSDOF 4
ENDMDL
MODEL 6
REMARK VINA RESULT:      -6.7      1.399      1.431
REMARK  Name = 
REMARK  4 active torsions:
REMARK  status: ('A' for Active; 'I' for Inactive)
REMARK    1  A    between atoms: N_1  and  S_2
REMARK    2  A    between atoms: S_2  and  C_5
REMARK    3  A    between atoms: C_9  and  N_10
REMARK    4  A    between atoms: C_11  and  C_13
REMARK                            x       y       z     vdW  Elec       q    Type
REMARK                         _______ _______ _______ _____ _____    ______ ____
ROOT
ATOM      1  C   UNL     1       5.469   5.140  17.061  0.00  0.00    +0.000 A 
ATOM      2  C   UNL     1       4.842   3.928  16.764  0.00  0.00    +0.000 A 
ATOM      3  C   UNL     1       3.501   3.762  17.088  0.00  0.00    +0.000 A 
ATOM      4  C   UNL     1       2.798   4.794  17.716  0.00  0.00    +0.000 A 
ATOM      5  C   UNL     1       3.420   6.010  18.021  0.00  0.00    +0.000 A 
ATOM      6  C   UNL     1       4.763   6.189  17.667  0.00  0.00    +0.000 A 
ENDROOT
BRANCH   5   7
ATOM      7  N   UNL     1       2.761   7.075  18.671  0.00  0.00    +0.000 N 
ATOM      8  C   UNL     1       2.099   7.036  19.892  0.00  0.00    +0.000 C 
ATOM      9  O   UNL     1       2.033   6.040  20.609  0.00  0.00    +0.000 OA
ATOM     10  H   UNL     1       2.823   7.990  18.240  0.00  0.00    +0.000 HD
BRANCH   8  11
ATOM     11  C   UNL     1       1.493   8.297  20.317  0.00  0.00    +0.000 A 
ATOM     12  C   UNL     1       1.168   8.649  21.616  0.00  0.00    +0.000 A 
ATOM     13  C   UNL     1       0.596   9.949  21.710  0.00  0.00    +0.000 A 
ATOM     14  C   UNL     1       0.497  10.553  20.477  0.00  0.00    +0.000 A 
ATOM     15  S   UNL     1       1.086   9.553  19.222  0.00  0.00    +0.000 S 
ENDBRANCH   8  11
ENDBRANCH   5   7
BRANCH   1  16
ATOM     16  S   UNL     1       7.180   5.336  16.683  0.00  0.00    +0.000 S 
ATOM     17  O   UNL     1       7.940   4.396  17.472  0.00  0.00    +0.000 OA
ATOM     18  O   UNL     1       7.506   6.742  16.617  0.00  0.00    +0.000 OA
BRANCH  16  19
ATOM     19  N   UNL     1       7.265   4.791  15.096  0.00  0.00    +0.000 NA
ATOM     20  H   UNL     1       6.561   4.067  14.947  0.00  0.00    +0.000 HD
ATOM     21  H   UNL     1       8.214   4.482  14.889  0.00  0.00    +0.000 HD
ENDBRANCH  16  19
ENDBRANCH   1  16
TORSDOF 4
ENDMDL
MODEL 7
REMARK VINA RESULT:      -6.7      0.991      1.221
REMARK  Name = 
REMARK  4 active torsions:
REMARK  status: ('A' for Active; 'I' for Inactive)
REMARK    1  A    between atoms: N_1  and  S_2
REMARK    2  A    between atoms: S_2  and  C_5
REMARK    3  A    between atoms: C_9  and  N_10
REMARK    4  A    between atoms: C_11  and  C_13
REMARK                            x       y       z     vdW  Elec       q    Type
REMARK                         _______ _______ _______ _____ _____    ______ ____
ROOT
ATOM      1  C   UNL     1       5.342   5.217  17.063  0.00  0.00    +0.000 A 
ATOM      2  C   UNL     1       4.760   4.002  16.697  0.00  0.00    +0.000 A 
ATOM      3  C   UNL     1       3.436   3.755  17.036  0.00  0.00    +0.000 A 
ATOM      4  C   UNL     1       2.704   4.711  17.746  0.00  0.00    +0.000 A 
ATOM      5  C   UNL     1       3.280   5.930  18.121  0.00  0.00    +0.000 A 
ATOM      6  C   UNL     1       4.606   6.191  17.753  0.00  0.00    +0.000 A 
ENDROOT
BRANCH   5   7
ATOM      7  N   UNL     1       2.591   6.919  18.855  0.00  0.00    +0.000 N 
ATOM      8  C   UNL     1       2.189   8.171  18.410  0.00  0.00    +0.000 C 
ATOM      9  O   UNL     1       2.353   8.580  17.263  0.00  0.00    +0.000 OA
ATOM     10  H   UNL     1       2.297   6.676  19.794  0.00  0.00    +0.000 HD
BRANCH   8  11
ATOM     11  C   UNL     1       1.500   8.997  19.401  0.00  0.00    +0.000 A 
ATOM     12  C   UNL     1       0.994  10.269  19.192  0.00  0.00    +0.000 A 
ATOM     13  C   UNL     1       0.371  10.813  20.351  0.00  0.00    +0.000 A 
ATOM     14  C   UNL     1       0.424   9.941  21.415  0.00  0.00    +0.000 A 
ATOM     15  S   UNL     1       1.222   8.483  21.013  0.00  0.00    +0.000 S 
ENDBRANCH   8  11
ENDBRANCH   5   7
BRANCH   1  16
ATOM     16  S   UNL     1       7.034   5.513  16.665  0.00  0.00    +0.000 S 
ATOM     17  O   UNL     1       7.181   5.502  15.229  0.00  0.00    +0.000 OA
ATOM     18  O   UNL     1       7.883   4.740  17.543  0.00  0.00    +0.000 OA
BRANCH  16  19
ATOM     19  N   UNL     1       7.245   7.110  17.145  0.00  0.00    +0.000 NA
ATOM     20  H   UNL     1       7.708   7.631  16.399  0.00  0.00    +0.000 HD
ATOM     21  H   UNL     1       7.747   7.138  18.032  0.00  0.00    +0.000 HD
ENDBRANCH  16  19
ENDBRANCH   1  16
TORSDOF 4
ENDMDL
MODEL 8
REMARK VINA RESULT:      -6.6      1.533      1.776
REMARK  Name = 
REMARK  4 active torsions:
REMARK  status: ('A' for Active; 'I' for Inactive)
REMARK    1  A    between atoms: N_1  and  S_2
REMARK    2  A    between atoms: S_2  and  C_5
REMARK    3  A    between atoms: C_9  and  N_10
REMARK    4  A    between atoms: C_11  and  C_13
REMARK                            x       y       z     vdW  Elec       q    Type
REMARK                         _______ _______ _______ _____ _____    ______ ____
ROOT
ATOM      1  C   UNL     1       5.543   5.245  16.952  0.00  0.00    +0.000 A 
ATOM      2  C   UNL     1       4.986   3.964  16.948  0.00  0.00    +0.000 A 
ATOM      3  C   UNL     1       3.652   3.804  17.301  0.00  0.00    +0.000 A 
ATOM      4  C   UNL     1       2.886   4.913  17.669  0.00  0.00    +0.000 A 
ATOM      5  C   UNL     1       3.436   6.200  17.680  0.00  0.00    +0.000 A 
ATOM      6  C   UNL     1       4.772   6.366  17.294  0.00  0.00    +0.000 A 
ENDROOT
BRANCH   5   7
ATOM      7  N   UNL     1       2.711   7.349  18.061  0.00  0.00    +0.000 N 
ATOM      8  C   UNL     1       2.151   7.617  19.303  0.00  0.00    +0.000 C 
ATOM      9  O   UNL     1       2.252   6.878  20.279  0.00  0.00    +0.000 OA
ATOM     10  H   UNL     1       2.637   8.096  17.381  0.00  0.00    +0.000 HD
BRANCH   8  11
ATOM     11  C   UNL     1       1.439   8.891  19.408  0.00  0.00    +0.000 A 
ATOM     12  C   UNL     1       1.245   9.803  18.384  0.00  0.00    +0.000 A 
ATOM     13  C   UNL     1       0.506  10.947  18.796  0.00  0.00    +0.000 A 
ATOM     14  C   UNL     1       0.160  10.879  20.127  0.00  0.00    +0.000 A 
ATOM     15  S   UNL     1       0.727   9.445  20.866  0.00  0.00    +0.000 S 
ENDBRANCH   8  11
ENDBRANCH   5   7
BRANCH   1  16
ATOM     16  S   UNL     1       7.245   5.443  16.539  0.00  0.00    +0.000 S 
ATOM     17  O   UNL     1       7.999   4.380  17.160  0.00  0.00    +0.000 OA
ATOM     18  O   UNL     1       7.616   6.834  16.658  0.00  0.00    +0.000 OA
BRANCH  16  19
ATOM     19  N   UNL     1       7.257   5.125  14.890  0.00  0.00    +0.000 NA
ATOM     20  H   UNL     1       6.393   4.646  14.630  0.00  0.00    +0.000 HD
ATOM     21  H   UNL     1       8.099   4.604  14.646  0.00  0.00    +0.000 HD
ENDBRANCH  16  19
ENDBRANCH   1  16
TORSDOF 4
ENDMDL
MODEL 9
REMARK VINA RESULT:      -6.6      1.293      1.585
REMARK  Name = 
REMARK  4 active torsions:
REMARK  status: ('A' for Active; 'I' for Inactive)
REMARK    1  A    between atoms: N_1  and  S_2
REMARK    2  A    between atoms: S_2  and  C_5
REMARK    3  A    between atoms: C_9  and  N_10
REMARK    4  A    between atoms: C_11  and  C_13
REMARK                            x       y       z     vdW  Elec       q    Type
REMARK                         _______ _______ _______ _____ _____    ______ ____
ROOT
ATOM      1  C   UNL     1       5.668   5.307  18.054  0.00  0.00    +0.000 A 
ATOM      2  C   UNL     1       5.212   4.182  17.363  0.00  0.00    +0.000 A 
ATOM      3  C   UNL     1       3.846   3.999  17.194  0.00  0.00    +0.000 A 
ATOM      4  C   UNL     1       2.943   4.925  17.722  0.00  0.00    +0.000 A 
ATOM      5  C   UNL     1       3.390   6.054  18.419  0.00  0.00    +0.000 A 
ATOM      6  C   UNL     1       4.768   6.255  18.563  0.00  0.00    +0.000 A 
ENDROOT
BRANCH   5   7
ATOM      7  N   UNL     1       2.520   7.007  18.989  0.00  0.00    +0.000 N 
ATOM      8  C   UNL     1       2.141   8.229  18.449  0.00  0.00    +0.000 C 
ATOM      9  O   UNL     1       2.497   8.636  17.345  0.00  0.00    +0.000 OA
ATOM     10  H   UNL     1       2.067   6.758  19.860  0.00  0.00    +0.000 HD
BRANCH   8  11
ATOM     11  C   UNL     1       1.231   9.024  19.274  0.00  0.00    +0.000 A 
ATOM     12  C   UNL     1       0.426  10.061  18.834  0.00  0.00    +0.000 A 
ATOM     13  C   UNL     1      -0.354  10.636  19.876  0.00  0.00    +0.000 A 
ATOM     14  C   UNL     1      -0.119  10.023  21.086  0.00  0.00    +0.000 A 
ATOM     15  S   UNL     1       1.036   8.769  20.958  0.00  0.00    +0.000 S 
ENDBRANCH   8  11
ENDBRANCH   5   7
BRANCH   1  16
ATOM     16  S   UNL     1       7.401   5.520  18.300  0.00  0.00    +0.000 S 
ATOM     17  O   UNL     1       7.767   6.854  17.888  0.00  0.00    +0.000 OA
ATOM     18  O   UNL     1       8.105   4.343  17.845  0.00  0.00    +0.000 OA
BRANCH  16  19
ATOM     19  N   UNL     1       7.535   5.492  19.974  0.00  0.00    +0.000 NA
ATOM     20  H   UNL     1       7.426   6.439  20.340  0.00  0.00    +0.000 HD
ATOM     21  H   UNL     1       8.416   5.053  20.241  0.00  0.00    +0.000 HD
ENDBRANCH  16  19
ENDBRANCH   1  16
TORSDOF 4
ENDMDL
