MODEL 1
REMARK VINA RESULT:      -8.1      0.000      0.000
REMARK  Name = 
REMARK  4 active torsions:
REMARK  status: ('A' for Active; 'I' for Inactive)
REMARK    1  A    between atoms: C_1  and  N_2
REMARK    2  A    between atoms: N_2  and  C_3
REMARK    3  A    between atoms: C_3  and  C_4
REMARK    4  A    between atoms: C_12  and  C_14
REMARK                            x       y       z     vdW  Elec       q    Type
REMARK                         _______ _______ _______ _____ _____    ______ ____
ROOT
ATOM      1  C   UNL     1       4.339   3.092  19.595  0.00  0.00    +0.000 C 
ATOM      2  N   UNL     1       4.141   4.541  19.557  0.00  0.00    +0.000 N 
ATOM      3  C   UNL     1       2.793   4.945  19.452  0.00  0.00    +0.000 C 
ATOM      4  O   UNL     1       1.877   4.123  19.525  0.00  0.00    +0.000 OA
ENDROOT
BRANCH   3   5
ATOM      5  C   UNL     1       2.381   6.383  19.325  0.00  0.00    +0.000 A 
ATOM      6  C   UNL     1       2.468   7.140  18.137  0.00  0.00    +0.000 A 
ATOM      7  C   UNL     1       2.114   8.494  18.108  0.00  0.00    +0.000 A 
ATOM      8  C   UNL     1       1.590   9.044  19.253  0.00  0.00    +0.000 A 
ATOM      9  C   UNL     1       1.413   8.298  20.391  0.00  0.00    +0.000 A 
ATOM     10  C   UNL     1       1.799   6.975  20.461  0.00  0.00    +0.000 A 
ATOM     11  O   UNL     1       0.830   9.016  21.388  0.00  0.00    +0.000 OA
ATOM     12  C   UNL     1       0.665  10.298  20.745  0.00  0.00    +0.000 C 
ATOM     13  O   UNL     1       1.170  10.327  19.394  0.00  0.00    +0.000 OA
ENDBRANCH   3   5
BRANCH   2  14
ATOM     14  C   UNL     1       5.283   5.432  19.354  0.00  0.00    +0.000 C 
BRANCH  14  15
ATOM     15  C   UNL     1       6.250   5.062  18.295  0.00  0.00    +0.000 A 
ATOM     16  N   UNL     1       7.479   4.591  18.478  0.00  0.00    +0.000 NA
ATOM     17  N   UNL     1       8.032   4.283  17.241  0.00  0.00    +0.000 NA
ATOM     18  C   UNL     1       7.125   4.582  16.354  0.00  0.00    +0.000 A 
ATOM     19  N   UNL     1       6.017   5.069  16.970  0.00  0.00    +0.000 N 
ATOM     20  C   UNL     1       4.937   5.352  16.058  0.00  0.00    +0.000 C 
ATOM     21  C   UNL     1       5.411   4.636  14.774  0.00  0.00    +0.000 C 
ATOM     22  C   UNL     1       6.951   4.500  14.899  0.00  0.00    +0.000 C 
ENDBRANCH  14  15
ENDBRANCH   2  14
TORSDOF 3
ENDMDL
MODEL 2
REMARK VINA RESULT:      -7.7      3.153      6.433
REMARK  Name = 
REMARK  4 active torsions:
REMARK  status: ('A' for Active; 'I' for Inactive)
REMARK    1  A    between atoms: C_1  and  N_2
REMARK    2  A    between atoms: N_2  and  C_3
REMARK    3  A    between atoms: C_3  and  C_4
REMARK    4  A    between atoms: C_12  and  C_14
REMARK                            x       y       z     vdW  Elec       q    Type
REMARK                         _______ _______ _______ _____ _____    ______ ____
ROOT
ATOM      1  C   UNL     1       1.102   4.078  20.099  0.00  0.00    +0.000 C 
ATOM      2  N   UNL     1       2.310   4.621  19.478  0.00  0.00    +0.000 N 
ATOM      3  C   UNL     1       2.993   3.715  18.639  0.00  0.00    +0.000 C 
ATOM      4  O   UNL     1       2.512   2.613  18.370  0.00  0.00    +0.000 OA
ENDROOT
BRANCH   3   5
ATOM      5  C   UNL     1       4.293   4.050  17.965  0.00  0.00    +0.000 A 
ATOM      6  C   UNL     1       5.513   4.269  18.640  0.00  0.00    +0.000 A 
ATOM      7  C   UNL     1       6.674   4.631  17.947  0.00  0.00    +0.000 A 
ATOM      8  C   UNL     1       6.613   4.678  16.575  0.00  0.00    +0.000 A 
ATOM      9  C   UNL     1       5.458   4.378  15.898  0.00  0.00    +0.000 A 
ATOM     10  C   UNL     1       4.287   4.066  16.559  0.00  0.00    +0.000 A 
ATOM     11  O   UNL     1       5.628   4.428  14.549  0.00  0.00    +0.000 OA
ATOM     12  C   UNL     1       7.020   4.797  14.461  0.00  0.00    +0.000 C 
ATOM     13  O   UNL     1       7.645   4.981  15.748  0.00  0.00    +0.000 OA
ENDBRANCH   3   5
BRANCH   2  14
ATOM     14  C   UNL     1       2.869   5.888  19.946  0.00  0.00    +0.000 C 
BRANCH  14  15
ATOM     15  C   UNL     1       2.553   7.101  19.158  0.00  0.00    +0.000 A 
ATOM     16  N   UNL     1       2.851   7.313  17.881  0.00  0.00    +0.000 NA
ATOM     17  N   UNL     1       2.306   8.529  17.488  0.00  0.00    +0.000 NA
ATOM     18  C   UNL     1       1.704   9.013  18.537  0.00  0.00    +0.000 A 
ATOM     19  N   UNL     1       1.841   8.160  19.584  0.00  0.00    +0.000 N 
ATOM     20  C   UNL     1       1.135   8.592  20.765  0.00  0.00    +0.000 C 
ATOM     21  C   UNL     1       0.223   9.704  20.201  0.00  0.00    +0.000 C 
ATOM     22  C   UNL     1       0.893  10.186  18.887  0.00  0.00    +0.000 C 
ENDBRANCH  14  15
ENDBRANCH   2  14
TORSDOF 3
ENDMDL
MODEL 3
REMARK VINA RESULT:      -7.4      2.056      4.225
REMARK  Name = 
REMARK  4 active torsions:
REMARK  status: ('A' for Active; 'I' for Inactive)
REMARK    1  A    between atoms: C_1  and  N_2
REMARK    2  A    between atoms: N_2  and  C_3
REMARK    3  A    between atoms: C_3  and  C_4
REMARK    4  A    between atoms: C_12  and  C_14
REMARK                            x       y       z     vdW  Elec       q    Type
REMARK                         _______ _______ _______ _____ _____    ______ ____
ROOT
ATOM      1  C   UNL     1       5.715   4.053  15.830  0.00  0.00    +0.000 C 
ATOM      2  N   UNL     1       4.590   4.621  16.575  0.00  0.00    +0.000 N 
ATOM      3  C   UNL     1       4.768   5.965  16.967  0.00  0.00    +0.000 C 
ATOM      4  O   UNL     1       5.742   6.615  16.581  0.00  0.00    +0.000 OA
ENDROOT
BRANCH   3   5
ATOM      5  C   UNL     1       3.767   6.710  17.801  0.00  0.00    +0.000 A 
ATOM      6  C   UNL     1       3.378   6.342  19.107  0.00  0.00    +0.000 A 
ATOM      7  C   UNL     1       2.396   7.056  19.804  0.00  0.00    +0.000 A 
ATOM      8  C   UNL     1       1.884   8.185  19.213  0.00  0.00    +0.000 A 
ATOM      9  C   UNL     1       2.317   8.609  17.982  0.00  0.00    +0.000 A 
ATOM     10  C   UNL     1       3.248   7.897  17.253  0.00  0.00    +0.000 A 
ATOM     11  O   UNL     1       1.727   9.775  17.605  0.00  0.00    +0.000 OA
ATOM     12  C   UNL     1       0.872  10.030  18.740  0.00  0.00    +0.000 C 
ATOM     13  O   UNL     1       0.951   9.008  19.755  0.00  0.00    +0.000 OA
ENDBRANCH   3   5
BRANCH   2  14
ATOM     14  C   UNL     1       3.537   3.748  17.090  0.00  0.00    +0.000 C 
BRANCH  14  15
ATOM     15  C   UNL     1       3.709   3.214  18.460  0.00  0.00    +0.000 A 
ATOM     16  N   UNL     1       4.858   2.894  19.044  0.00  0.00    +0.000 NA
ATOM     17  N   UNL     1       4.606   2.515  20.357  0.00  0.00    +0.000 NA
ATOM     18  C   UNL     1       3.317   2.613  20.521  0.00  0.00    +0.000 A 
ATOM     19  N   UNL     1       2.734   3.037  19.370  0.00  0.00    +0.000 N 
ATOM     20  C   UNL     1       1.313   3.243  19.495  0.00  0.00    +0.000 C 
ATOM     21  C   UNL     1       1.122   3.215  21.028  0.00  0.00    +0.000 C 
ATOM     22  C   UNL     1       2.337   2.438  21.600  0.00  0.00    +0.000 C 
ENDBRANCH  14  15
ENDBRANCH   2  14
TORSDOF 3
ENDMDL
MODEL 4
REMARK VINA RESULT:      -7.4      1.406      2.103
REMARK  Name = 
REMARK  4 active torsions:
REMARK  status: ('A' for Active; 'I' for Inactive)
REMARK    1  A    between atoms: C_1  and  N_2
REMARK    2  A    between atoms: N_2  and  C_3
REMARK    3  A    between atoms: C_3  and  C_4
REMARK    4  A    between atoms: C_12  and  C_14
REMARK                            x       y       z     vdW  Elec       q    Type
REMARK                         _______ _______ _______ _____ _____    ______ ____
ROOT
ATOM      1  C   UNL     1       3.546   1.628  18.301  0.00  0.00    +0.000 C 
ATOM      2  N   UNL     1       3.492   2.969  18.884  0.00  0.00    +0.000 N 
ATOM      3  C   UNL     1       2.431   3.770  18.412  0.00  0.00    +0.000 C 
ATOM      4  O   UNL     1       1.562   3.302  17.673  0.00  0.00    +0.000 OA
ENDROOT
BRANCH   3   5
ATOM      5  C   UNL     1       2.241   5.200  18.828  0.00  0.00    +0.000 A 
ATOM      6  C   UNL     1       1.984   5.624  20.149  0.00  0.00    +0.000 A 
ATOM      7  C   UNL     1       1.764   6.973  20.453  0.00  0.00    +0.000 A 
ATOM      8  C   UNL     1       1.897   7.888  19.436  0.00  0.00    +0.000 A 
ATOM      9  C   UNL     1       2.237   7.502  18.164  0.00  0.00    +0.000 A 
ATOM     10  C   UNL     1       2.411   6.175  17.828  0.00  0.00    +0.000 A 
ATOM     11  O   UNL     1       2.372   8.565  17.326  0.00  0.00    +0.000 OA
ATOM     12  C   UNL     1       2.074   9.659  18.219  0.00  0.00    +0.000 C 
ATOM     13  O   UNL     1       1.748   9.231  19.557  0.00  0.00    +0.000 OA
ENDBRANCH   3   5
BRANCH   2  14
ATOM     14  C   UNL     1       4.626   3.479  19.655  0.00  0.00    +0.000 C 
BRANCH  14  15
ATOM     15  C   UNL     1       5.569   4.381  18.956  0.00  0.00    +0.000 A 
ATOM     16  N   UNL     1       6.456   5.190  19.525  0.00  0.00    +0.000 NA
ATOM     17  N   UNL     1       7.211   5.801  18.531  0.00  0.00    +0.000 NA
ATOM     18  C   UNL     1       6.754   5.347  17.398  0.00  0.00    +0.000 A 
ATOM     19  N   UNL     1       5.739   4.474  17.624  0.00  0.00    +0.000 N 
ATOM     20  C   UNL     1       5.229   3.870  16.419  0.00  0.00    +0.000 C 
ATOM     21  C   UNL     1       6.323   4.238  15.392  0.00  0.00    +0.000 C 
ATOM     22  C   UNL     1       7.053   5.481  15.967  0.00  0.00    +0.000 C 
ENDBRANCH  14  15
ENDBRANCH   2  14
TORSDOF 3
ENDMDL
MODEL 5
REMARK VINA RESULT:      -7.2      3.115      6.600
REMARK  Name = 
REMARK  4 active torsions:
REMARK  status: ('A' for Active; 'I' for Inactive)
REMARK    1  A    between atoms: C_1  and  N_2
REMARK    2  A    between atoms: N_2  and  C_3
REMARK    3  A    between atoms: C_3  and  C_4
REMARK    4  A    between atoms: C_12  and  C_14
REMARK                            x       y       z     vdW  Elec       q    Type
REMARK                         _______ _______ _______ _____ _____    ______ ____
ROOT
ATOM      1  C   UNL     1       1.399   4.521  20.314  0.00  0.00    +0.000 C 
ATOM      2  N   UNL     1       2.547   4.976  19.530  0.00  0.00    +0.000 N 
ATOM      3  C   UNL     1       3.221   3.952  18.831  0.00  0.00    +0.000 C 
ATOM      4  O   UNL     1       2.773   2.804  18.800  0.00  0.00    +0.000 OA
ENDROOT
BRANCH   3   5
ATOM      5  C   UNL     1       4.466   4.196  18.028  0.00  0.00    +0.000 A 
ATOM      6  C   UNL     1       5.756   4.354  18.577  0.00  0.00    +0.000 A 
ATOM      7  C   UNL     1       6.864   4.634  17.767  0.00  0.00    +0.000 A 
ATOM      8  C   UNL     1       6.673   4.659  16.407  0.00  0.00    +0.000 A 
ATOM      9  C   UNL     1       5.442   4.416  15.851  0.00  0.00    +0.000 A 
ATOM     10  C   UNL     1       4.324   4.187  16.628  0.00  0.00    +0.000 A 
ATOM     11  O   UNL     1       5.482   4.432  14.491  0.00  0.00    +0.000 OA
ATOM     12  C   UNL     1       6.878   4.716  14.260  0.00  0.00    +0.000 C 
ATOM     13  O   UNL     1       7.635   4.885  15.477  0.00  0.00    +0.000 OA
ENDBRANCH   3   5
BRANCH   2  14
ATOM     14  C   UNL     1       3.077   6.325  19.721  0.00  0.00    +0.000 C 
BRANCH  14  15
ATOM     15  C   UNL     1       2.099   7.408  19.971  0.00  0.00    +0.000 A 
ATOM     16  N   UNL     1       1.391   7.592  21.080  0.00  0.00    +0.000 NA
ATOM     17  N   UNL     1       0.656   8.765  20.956  0.00  0.00    +0.000 NA
ATOM     18  C   UNL     1       0.939   9.248  19.779  0.00  0.00    +0.000 A 
ATOM     19  N   UNL     1       1.821   8.433  19.144  0.00  0.00    +0.000 N 
ATOM     20  C   UNL     1       2.242   8.940  17.862  0.00  0.00    +0.000 C 
ATOM     21  C   UNL     1       1.749  10.403  17.922  0.00  0.00    +0.000 C 
ATOM     22  C   UNL     1       0.609  10.431  18.975  0.00  0.00    +0.000 C 
ENDBRANCH  14  15
ENDBRANCH   2  14
TORSDOF 3
ENDMDL
MODEL 6
REMARK VINA RESULT:      -7.2      3.416      6.119
REMARK  Name = 
REMARK  4 active torsions:
REMARK  status: ('A' for Active; 'I' for Inactive)
REMARK    1  A    between atoms: C_1  and  N_2
REMARK    2  A    between atoms: N_2  and  C_3
REMARK    3  A    between atoms: C_3  and  C_4
REMARK    4  A    between atoms: C_12  and  C_14
REMARK                            x       y       z     vdW  Elec       q    Type
REMARK                         _______ _______ _______ _____ _____    ______ ____
ROOT
ATOM      1  C   UNL     1       0.880   3.095  19.986  0.00  0.00    +0.000 C 
ATOM      2  N   UNL     1       2.102   3.787  19.572  0.00  0.00    +0.000 N 
ATOM      3  C   UNL     1       2.786   3.174  18.500  0.00  0.00    +0.000 C 
ATOM      4  O   UNL     1       2.296   2.214  17.900  0.00  0.00    +0.000 OA
ENDROOT
BRANCH   3   5
ATOM      5  C   UNL     1       4.096   3.682  17.973  0.00  0.00    +0.000 A 
ATOM      6  C   UNL     1       5.198   4.043  18.777  0.00  0.00    +0.000 A 
ATOM      7  C   UNL     1       6.372   4.562  18.216  0.00  0.00    +0.000 A 
ATOM      8  C   UNL     1       6.454   4.623  16.846  0.00  0.00    +0.000 A 
ATOM      9  C   UNL     1       5.426   4.189  16.046  0.00  0.00    +0.000 A 
ATOM     10  C   UNL     1       4.241   3.720  16.574  0.00  0.00    +0.000 A 
ATOM     11  O   UNL     1       5.732   4.283  14.724  0.00  0.00    +0.000 OA
ATOM     12  C   UNL     1       7.068   4.828  14.788  0.00  0.00    +0.000 C 
ATOM     13  O   UNL     1       7.521   5.068  16.136  0.00  0.00    +0.000 OA
ENDBRANCH   3   5
BRANCH   2  14
ATOM     14  C   UNL     1       2.668   4.840  20.412  0.00  0.00    +0.000 C 
BRANCH  14  15
ATOM     15  C   UNL     1       2.124   6.206  20.246  0.00  0.00    +0.000 A 
ATOM     16  N   UNL     1       1.445   6.902  21.152  0.00  0.00    +0.000 NA
ATOM     17  N   UNL     1       1.188   8.170  20.646  0.00  0.00    +0.000 NA
ATOM     18  C   UNL     1       1.712   8.198  19.453  0.00  0.00    +0.000 A 
ATOM     19  N   UNL     1       2.292   7.002  19.174  0.00  0.00    +0.000 N 
ATOM     20  C   UNL     1       2.962   6.980  17.898  0.00  0.00    +0.000 C 
ATOM     21  C   UNL     1       3.018   8.482  17.542  0.00  0.00    +0.000 C 
ATOM     22  C   UNL     1       1.887   9.161  18.359  0.00  0.00    +0.000 C 
ENDBRANCH  14  15
ENDBRANCH   2  14
TORSDOF 3
ENDMDL
MODEL 7
REMARK VINA RESULT:      -7.1      3.857      7.168
REMARK  Name = 
REMARK  4 active torsions:
REMARK  status: ('A' for Active; 'I' for Inactive)
REMARK    1  A    between atoms: C_1  and  N_2
REMARK    2  A    between atoms: N_2  and  C_3
REMARK    3  A    between atoms: C_3  and  C_4
REMARK    4  A    between atoms: C_12  and  C_14
REMARK                            x       y       z     vdW  Elec       q    Type
REMARK                         _______ _______ _______ _____ _____    ______ ____
ROOT
ATOM      1  C   UNL     1       6.156   5.322  19.652  0.00  0.00    +0.000 C 
ATOM      2  N   UNL     1       5.799   5.088  18.252  0.00  0.00    +0.000 N 
ATOM      3  C   UNL     1       6.866   4.643  17.443  0.00  0.00    +0.000 C 
ATOM      4  O   UNL     1       7.959   4.358  17.935  0.00  0.00    +0.000 OA
ENDROOT
BRANCH   3   5
ATOM      5  C   UNL     1       6.728   4.415  15.966  0.00  0.00    +0.000 A 
ATOM      6  C   UNL     1       5.825   3.506  15.375  0.00  0.00    +0.000 A 
ATOM      7  C   UNL     1       5.792   3.308  13.989  0.00  0.00    +0.000 A 
ATOM      8  C   UNL     1       6.604   4.095  13.210  0.00  0.00    +0.000 A 
ATOM      9  C   UNL     1       7.422   5.049  13.762  0.00  0.00    +0.000 A 
ATOM     10  C   UNL     1       7.510   5.231  15.127  0.00  0.00    +0.000 A 
ATOM     11  O   UNL     1       8.098   5.754  12.815  0.00  0.00    +0.000 OA
ATOM     12  C   UNL     1       7.611   5.130  11.607  0.00  0.00    +0.000 C 
ATOM     13  O   UNL     1       6.679   4.058  11.855  0.00  0.00    +0.000 OA
ENDBRANCH   3   5
BRANCH   2  14
ATOM     14  C   UNL     1       4.518   5.566  17.733  0.00  0.00    +0.000 C 
BRANCH  14  15
ATOM     15  C   UNL     1       3.346   4.676  17.896  0.00  0.00    +0.000 A 
ATOM     16  N   UNL     1       2.881   3.811  17.002  0.00  0.00    +0.000 NA
ATOM     17  N   UNL     1       1.826   3.104  17.566  0.00  0.00    +0.000 NA
ATOM     18  C   UNL     1       1.684   3.568  18.775  0.00  0.00    +0.000 A 
ATOM     19  N   UNL     1       2.602   4.541  19.009  0.00  0.00    +0.000 N 
ATOM     20  C   UNL     1       2.558   5.052  20.356  0.00  0.00    +0.000 C 
ATOM     21  C   UNL     1       1.682   3.998  21.068  0.00  0.00    +0.000 C 
ATOM     22  C   UNL     1       0.850   3.306  19.955  0.00  0.00    +0.000 C 
ENDBRANCH  14  15
ENDBRANCH   2  14
TORSDOF 3
ENDMDL
MODEL 8
REMARK VINA RESULT:      -7.1      2.673      4.247
REMARK  Name = 
REMARK  4 active torsions:
REMARK  status: ('A' for Active; 'I' for Inactive)
REMARK    1  A    between atoms: C_1  and  N_2
REMARK    2  A    between atoms: N_2  and  C_3
REMARK    3  A    between atoms: C_3  and  C_4
REMARK    4  A    between atoms: C_12  and  C_14
REMARK                            x       y       z     vdW  Elec       q    Type
REMARK                         _______ _______ _______ _____ _____    ______ ____
ROOT
ATOM      1  C   UNL     1       5.079   7.600  16.445  0.00  0.00    +0.000 C 
ATOM      2  N   UNL     1       4.473   6.336  16.862  0.00  0.00    +0.000 N 
ATOM      3  C   UNL     1       3.456   6.467  17.832  0.00  0.00    +0.000 C 
ATOM      4  O   UNL     1       3.047   7.578  18.176  0.00  0.00    +0.000 OA
ENDROOT
BRANCH   3   5
ATOM      5  C   UNL     1       2.758   5.288  18.446  0.00  0.00    +0.000 A 
ATOM      6  C   UNL     1       2.016   4.330  17.724  0.00  0.00    +0.000 A 
ATOM      7  C   UNL     1       1.346   3.286  18.374  0.00  0.00    +0.000 A 
ATOM      8  C   UNL     1       1.509   3.168  19.733  0.00  0.00    +0.000 A 
ATOM      9  C   UNL     1       2.302   4.038  20.438  0.00  0.00    +0.000 A 
ATOM     10  C   UNL     1       2.933   5.104  19.830  0.00  0.00    +0.000 A 
ATOM     11  O   UNL     1       2.373   3.711  21.757  0.00  0.00    +0.000 OA
ATOM     12  C   UNL     1       1.531   2.540  21.796  0.00  0.00    +0.000 C 
ATOM     13  O   UNL     1       0.960   2.204  20.515  0.00  0.00    +0.000 OA
ENDBRANCH   3   5
BRANCH   2  14
ATOM     14  C   UNL     1       5.099   5.066  16.496  0.00  0.00    +0.000 C 
BRANCH  14  15
ATOM     15  C   UNL     1       6.101   5.094  15.407  0.00  0.00    +0.000 A 
ATOM     16  N   UNL     1       7.333   5.585  15.479  0.00  0.00    +0.000 NA
ATOM     17  N   UNL     1       7.986   5.342  14.277  0.00  0.00    +0.000 NA
ATOM     18  C   UNL     1       7.129   4.721  13.518  0.00  0.00    +0.000 A 
ATOM     19  N   UNL     1       5.955   4.556  14.182  0.00  0.00    +0.000 N 
ATOM     20  C   UNL     1       4.978   3.807  13.433  0.00  0.00    +0.000 C 
ATOM     21  C   UNL     1       5.839   3.208  12.298  0.00  0.00    +0.000 C 
ATOM     22  C   UNL     1       7.090   4.118  12.179  0.00  0.00    +0.000 C 
ENDBRANCH  14  15
ENDBRANCH   2  14
TORSDOF 3
ENDMDL
MODEL 9
REMARK VINA RESULT:      -7.1      1.772      2.500
REMARK  Name = 
REMARK  4 active torsions:
REMARK  status: ('A' for Active; 'I' for Inactive)
REMARK    1  A    between atoms: C_1  and  N_2
REMARK    2  A    between atoms: N_2  and  C_3
REMARK    3  A    between atoms: C_3  and  C_4
REMARK    4  A    between atoms: C_12  and  C_14
REMARK                            x       y       z     vdW  Elec       q    Type
REMARK                         _______ _______ _______ _____ _____    ______ ____
ROOT
ATOM      1  C   UNL     1       3.535   2.150  18.758  0.00  0.00    +0.000 C 
ATOM      2  N   UNL     1       3.516   3.612  18.781  0.00  0.00    +0.000 N 
ATOM      3  C   UNL     1       2.401   4.172  19.442  0.00  0.00    +0.000 C 
ATOM      4  O   UNL     1       1.601   3.460  20.052  0.00  0.00    +0.000 OA
ENDROOT
BRANCH   3   5
ATOM      5  C   UNL     1       2.155   5.651  19.514  0.00  0.00    +0.000 A 
ATOM      6  C   UNL     1       1.801   6.349  20.688  0.00  0.00    +0.000 A 
ATOM      7  C   UNL     1       1.532   7.723  20.667  0.00  0.00    +0.000 A 
ATOM      8  C   UNL     1       1.714   8.393  19.482  0.00  0.00    +0.000 A 
ATOM      9  C   UNL     1       2.147   7.746  18.351  0.00  0.00    +0.000 A 
ATOM     10  C   UNL     1       2.371   6.384  18.333  0.00  0.00    +0.000 A 
ATOM     11  O   UNL     1       2.316   8.600  17.306  0.00  0.00    +0.000 OA
ATOM     12  C   UNL     1       1.936   9.854  17.911  0.00  0.00    +0.000 C 
ATOM     13  O   UNL     1       1.530   9.724  19.288  0.00  0.00    +0.000 OA
ENDBRANCH   3   5
BRANCH   2  14
ATOM     14  C   UNL     1       4.433   4.371  17.933  0.00  0.00    +0.000 C 
BRANCH  14  15
ATOM     15  C   UNL     1       5.624   4.964  18.583  0.00  0.00    +0.000 A 
ATOM     16  N   UNL     1       6.274   4.477  19.634  0.00  0.00    +0.000 NA
ATOM     17  N   UNL     1       7.386   5.273  19.884  0.00  0.00    +0.000 NA
ATOM     18  C   UNL     1       7.368   6.215  18.984  0.00  0.00    +0.000 A 
ATOM     19  N   UNL     1       6.292   6.056  18.169  0.00  0.00    +0.000 N 
ATOM     20  C   UNL     1       6.244   7.018  17.097  0.00  0.00    +0.000 C 
ATOM     21  C   UNL     1       7.666   7.620  17.146  0.00  0.00    +0.000 C 
ATOM     22  C   UNL     1       8.196   7.358  18.581  0.00  0.00    +0.000 C 
ENDBRANCH  14  15
ENDBRANCH   2  14
TORSDOF 3
ENDMDL
