MODEL 1
REMARK VINA RESULT:      -7.3      0.000      0.000
REMARK  Name = 
REMARK  10 active torsions:
REMARK  status: ('A' for Active; 'I' for Inactive)
REMARK    1  A    between atoms: C_1  and  C_2
REMARK    2  A    between atoms: C_4  and  S_5
REMARK    3  A    between atoms: S_5  and  C_6
REMARK    4  A    between atoms: C_6  and  C_7
REMARK    5  A    between atoms: N_9  and  C_10
REMARK    6  A    between atoms: C_19  and  C_20
REMARK    7  A    between atoms: C_23  and  O_24
REMARK    8  A    between atoms: O_24  and  C_25
REMARK    9  A    between atoms: C_25  and  C_26
REMARK   10  A    between atoms: C_26  and  O_28
REMARK                            x       y       z     vdW  Elec       q    Type
REMARK                         _______ _______ _______ _____ _____    ______ ____
ROOT
ATOM      1  C   UNL     1       2.354   3.550  17.852  0.00  0.00    +0.000 C 
ENDROOT
BRANCH   1   2
ATOM      2  C   UNL     1       2.163   4.799  18.668  0.00  0.00    +0.000 A 
ATOM      3  N   UNL     1       1.972   6.008  18.108  0.00  0.00    +0.000 NA
ATOM      4  N   UNL     1       1.884   6.830  19.194  0.00  0.00    +0.000 N 
ATOM      5  N   UNL     1       1.953   6.218  20.402  0.00  0.00    +0.000 NA
ATOM      6  C   UNL     1       2.095   4.931  20.076  0.00  0.00    +0.000 A 
ATOM      7  C   UNL     1       2.157   3.891  21.125  0.00  0.00    +0.000 C 
BRANCH   4   8
ATOM      8  C   UNL     1       1.712   8.238  19.097  0.00  0.00    +0.000 A 
ATOM      9  C   UNL     1       2.136   8.942  17.961  0.00  0.00    +0.000 A 
ATOM     10  C   UNL     1       1.949  10.329  17.887  0.00  0.00    +0.000 A 
ATOM     11  C   UNL     1       1.364  11.027  18.951  0.00  0.00    +0.000 A 
ATOM     12 CL   UNL     1       1.189  12.739  18.796  0.00  0.00    +0.000 Cl
ATOM     13  C   UNL     1       0.945  10.331  20.089  0.00  0.00    +0.000 A 
ATOM     14 CL   UNL     1       0.238  11.126  21.452  0.00  0.00    +0.000 Cl
ATOM     15  C   UNL     1       1.106   8.939  20.155  0.00  0.00    +0.000 A 
ENDBRANCH   4   8
ENDBRANCH   1   2
BRANCH   1  16
ATOM     16  S   UNL     1       4.089   2.949  17.965  0.00  0.00    +0.000 S 
BRANCH  16  20
ATOM     17  C   UNL     1       8.180   5.869  19.387  0.00  0.00    +0.000 C 
ATOM     18  C   UNL     1       7.083   5.687  18.373  0.00  0.00    +0.000 A 
ATOM     19  C   UNL     1       6.188   4.603  18.524  0.00  0.00    +0.000 A 
ATOM     20  C   UNL     1       5.121   4.379  17.637  0.00  0.00    +0.000 A 
ATOM     21  C   UNL     1       4.943   5.288  16.598  0.00  0.00    +0.000 A 
ATOM     22  C   UNL     1       5.825   6.371  16.435  0.00  0.00    +0.000 A 
ATOM     23  C   UNL     1       6.916   6.564  17.293  0.00  0.00    +0.000 A 
BRANCH  23  24
ATOM     24  O   UNL     1       7.848   7.571  17.141  0.00  0.00    +0.000 OA
BRANCH  24  25
ATOM     25  C   UNL     1       7.432   8.860  17.612  0.00  0.00    +0.000 C 
BRANCH  25  26
ATOM     26  C   UNL     1       8.563   9.635  18.278  0.00  0.00    +0.000 C 
ATOM     27  O   UNL     1       8.927  10.748  17.923  0.00  0.00    +0.000 OA
BRANCH  26  28
ATOM     28  O   UNL     1       9.128   8.980  19.318  0.00  0.00    +0.000 OA
ATOM     29  H   UNL     1       9.684   8.242  18.989  0.00  0.00    +0.000 HD
ENDBRANCH  26  28
ENDBRANCH  25  26
ENDBRANCH  24  25
ENDBRANCH  23  24
ENDBRANCH  16  20
ENDBRANCH   1  16
TORSDOF 8
ENDMDL
MODEL 2
REMARK VINA RESULT:      -7.2      1.203      1.864
REMARK  Name = 
REMARK  10 active torsions:
REMARK  status: ('A' for Active; 'I' for Inactive)
REMARK    1  A    between atoms: C_1  and  C_2
REMARK    2  A    between atoms: C_4  and  S_5
REMARK    3  A    between atoms: S_5  and  C_6
REMARK    4  A    between atoms: C_6  and  C_7
REMARK    5  A    between atoms: N_9  and  C_10
REMARK    6  A    between atoms: C_19  and  C_20
REMARK    7  A    between atoms: C_23  and  O_24
REMARK    8  A    between atoms: O_24  and  C_25
REMARK    9  A    between atoms: C_25  and  C_26
REMARK   10  A    between atoms: C_26  and  O_28
REMARK                            x       y       z     vdW  Elec       q    Type
REMARK                         _______ _______ _______ _____ _____    ______ ____
ROOT
ATOM      1  C   UNL     1       1.853   2.558  18.485  0.00  0.00    +0.000 C 
ENDROOT
BRANCH   1   2
ATOM      2  C   UNL     1       1.879   3.772  19.372  0.00  0.00    +0.000 A 
ATOM      3  N   UNL     1       1.562   5.003  18.926  0.00  0.00    +0.000 NA
ATOM      4  N   UNL     1       1.752   5.780  20.032  0.00  0.00    +0.000 N 
ATOM      5  N   UNL     1       2.115   5.120  21.159  0.00  0.00    +0.000 NA
ATOM      6  C   UNL     1       2.164   3.847  20.756  0.00  0.00    +0.000 A 
ATOM      7  C   UNL     1       2.478   2.766  21.715  0.00  0.00    +0.000 C 
BRANCH   4   8
ATOM      8  C   UNL     1       1.570   7.190  20.038  0.00  0.00    +0.000 A 
ATOM      9  C   UNL     1       1.939   7.970  18.933  0.00  0.00    +0.000 A 
ATOM     10  C   UNL     1       1.743   9.359  18.961  0.00  0.00    +0.000 A 
ATOM     11  C   UNL     1       1.203   9.979  20.094  0.00  0.00    +0.000 A 
ATOM     12 CL   UNL     1       1.015  11.697  20.062  0.00  0.00    +0.000 Cl
ATOM     13  C   UNL     1       0.840   9.206  21.201  0.00  0.00    +0.000 A 
ATOM     14 CL   UNL     1       0.192   9.903  22.644  0.00  0.00    +0.000 Cl
ATOM     15  C   UNL     1       1.010   7.814  21.166  0.00  0.00    +0.000 A 
ENDBRANCH   4   8
ENDBRANCH   1   2
BRANCH   1  16
ATOM     16  S   UNL     1       3.560   1.991  18.096  0.00  0.00    +0.000 S 
BRANCH  16  20
ATOM     17  C   UNL     1       5.497   5.661  14.923  0.00  0.00    +0.000 C 
ATOM     18  C   UNL     1       5.395   5.186  16.347  0.00  0.00    +0.000 A 
ATOM     19  C   UNL     1       4.660   4.009  16.622  0.00  0.00    +0.000 A 
ATOM     20  C   UNL     1       4.539   3.483  17.920  0.00  0.00    +0.000 A 
ATOM     21  C   UNL     1       5.199   4.148  18.950  0.00  0.00    +0.000 A 
ATOM     22  C   UNL     1       5.934   5.319  18.693  0.00  0.00    +0.000 A 
ATOM     23  C   UNL     1       6.012   5.867  17.405  0.00  0.00    +0.000 A 
BRANCH  23  24
ATOM     24  O   UNL     1       6.664   7.046  17.107  0.00  0.00    +0.000 OA
BRANCH  24  25
ATOM     25  C   UNL     1       7.903   7.248  17.800  0.00  0.00    +0.000 C 
BRANCH  25  26
ATOM     26  C   UNL     1       8.157   8.713  18.134  0.00  0.00    +0.000 C 
ATOM     27  O   UNL     1       7.632   9.647  17.543  0.00  0.00    +0.000 OA
BRANCH  26  28
ATOM     28  O   UNL     1       9.018   8.893  19.162  0.00  0.00    +0.000 OA
ATOM     29  H   UNL     1       9.242   9.843  19.251  0.00  0.00    +0.000 HD
ENDBRANCH  26  28
ENDBRANCH  25  26
ENDBRANCH  24  25
ENDBRANCH  23  24
ENDBRANCH  16  20
ENDBRANCH   1  16
TORSDOF 8
ENDMDL
MODEL 3
REMARK VINA RESULT:      -7.2      6.223      9.230
REMARK  Name = 
REMARK  10 active torsions:
REMARK  status: ('A' for Active; 'I' for Inactive)
REMARK    1  A    between atoms: C_1  and  C_2
REMARK    2  A    between atoms: C_4  and  S_5
REMARK    3  A    between atoms: S_5  and  C_6
REMARK    4  A    between atoms: C_6  and  C_7
REMARK    5  A    between atoms: N_9  and  C_10
REMARK    6  A    between atoms: C_19  and  C_20
REMARK    7  A    between atoms: C_23  and  O_24
REMARK    8  A    between atoms: O_24  and  C_25
REMARK    9  A    between atoms: C_25  and  C_26
REMARK   10  A    between atoms: C_26  and  O_28
REMARK                            x       y       z     vdW  Elec       q    Type
REMARK                         _______ _______ _______ _____ _____    ______ ____
ROOT
ATOM      1  C   UNL     1       0.759  10.795  19.410  0.00  0.00    +0.000 C 
ENDROOT
BRANCH   1   2
ATOM      2  C   UNL     1       1.150   9.409  19.843  0.00  0.00    +0.000 A 
ATOM      3  N   UNL     1       1.648   8.496  18.989  0.00  0.00    +0.000 NA
ATOM      4  N   UNL     1       1.823   7.403  19.788  0.00  0.00    +0.000 N 
ATOM      5  N   UNL     1       1.522   7.577  21.097  0.00  0.00    +0.000 NA
ATOM      6  C   UNL     1       1.128   8.853  21.145  0.00  0.00    +0.000 A 
ATOM      7  C   UNL     1       0.753   9.477  22.432  0.00  0.00    +0.000 C 
BRANCH   4   8
ATOM      8  C   UNL     1       2.307   6.154  19.309  0.00  0.00    +0.000 A 
ATOM      9  C   UNL     1       3.170   6.088  18.206  0.00  0.00    +0.000 A 
ATOM     10  C   UNL     1       3.638   4.845  17.758  0.00  0.00    +0.000 A 
ATOM     11  C   UNL     1       3.232   3.662  18.387  0.00  0.00    +0.000 A 
ATOM     12 CL   UNL     1       3.832   2.166  17.762  0.00  0.00    +0.000 Cl
ATOM     13  C   UNL     1       2.366   3.722  19.483  0.00  0.00    +0.000 A 
ATOM     14 CL   UNL     1       1.800   2.304  20.295  0.00  0.00    +0.000 Cl
ATOM     15  C   UNL     1       1.917   4.966  19.951  0.00  0.00    +0.000 A 
ENDBRANCH   4   8
ENDBRANCH   1   2
BRANCH   1  16
ATOM     16  S   UNL     1      -1.003  11.138  19.814  0.00  0.00    +0.000 S 
BRANCH  16  20
ATOM     17  C   UNL     1      -5.280  12.156  16.993  0.00  0.00    +0.000 C 
ATOM     18  C   UNL     1      -3.956  11.442  17.019  0.00  0.00    +0.000 A 
ATOM     19  C   UNL     1      -3.147  11.546  18.173  0.00  0.00    +0.000 A 
ATOM     20  C   UNL     1      -1.910  10.887  18.287  0.00  0.00    +0.000 A 
ATOM     21  C   UNL     1      -1.502  10.089  17.223  0.00  0.00    +0.000 A 
ATOM     22  C   UNL     1      -2.296   9.975  16.067  0.00  0.00    +0.000 A 
ATOM     23  C   UNL     1      -3.506  10.671  15.937  0.00  0.00    +0.000 A 
BRANCH  23  24
ATOM     24  O   UNL     1      -4.292  10.647  14.803  0.00  0.00    +0.000 OA
BRANCH  24  25
ATOM     25  C   UNL     1      -4.195   9.449  14.022  0.00  0.00    +0.000 C 
BRANCH  25  26
ATOM     26  C   UNL     1      -3.729   9.715  12.595  0.00  0.00    +0.000 C 
ATOM     27  O   UNL     1      -4.487   9.931  11.660  0.00  0.00    +0.000 OA
BRANCH  26  28
ATOM     28  O   UNL     1      -2.383   9.702  12.454  0.00  0.00    +0.000 OA
ATOM     29  H   UNL     1      -2.037   8.798  12.614  0.00  0.00    +0.000 HD
ENDBRANCH  26  28
ENDBRANCH  25  26
ENDBRANCH  24  25
ENDBRANCH  23  24
ENDBRANCH  16  20
ENDBRANCH   1  16
TORSDOF 8
ENDMDL
MODEL 4
REMARK VINA RESULT:      -7.1      4.301      5.906
REMARK  Name = 
REMARK  10 active torsions:
REMARK  status: ('A' for Active; 'I' for Inactive)
REMARK    1  A    between atoms: C_1  and  C_2
REMARK    2  A    between atoms: C_4  and  S_5
REMARK    3  A    between atoms: S_5  and  C_6
REMARK    4  A    between atoms: C_6  and  C_7
REMARK    5  A    between atoms: N_9  and  C_10
REMARK    6  A    between atoms: C_19  and  C_20
REMARK    7  A    between atoms: C_23  and  O_24
REMARK    8  A    between atoms: O_24  and  C_25
REMARK    9  A    between atoms: C_25  and  C_26
REMARK   10  A    between atoms: C_26  and  O_28
REMARK                            x       y       z     vdW  Elec       q    Type
REMARK                         _______ _______ _______ _____ _____    ______ ____
ROOT
ATOM      1  C   UNL     1       1.824   9.689  17.978  0.00  0.00    +0.000 C 
ENDROOT
BRANCH   1   2
ATOM      2  C   UNL     1       0.667  10.571  18.357  0.00  0.00    +0.000 A 
ATOM      3  N   UNL     1      -0.599  10.309  17.982  0.00  0.00    +0.000 NA
ATOM      4  N   UNL     1      -1.291  11.362  18.505  0.00  0.00    +0.000 N 
ATOM      5  N   UNL     1      -0.560  12.244  19.230  0.00  0.00    +0.000 NA
ATOM      6  C   UNL     1       0.672  11.732  19.168  0.00  0.00    +0.000 A 
ATOM      7  C   UNL     1       1.792  12.374  19.889  0.00  0.00    +0.000 C 
BRANCH   4   8
ATOM      8  C   UNL     1      -2.691  11.540  18.334  0.00  0.00    +0.000 A 
ATOM      9  C   UNL     1      -3.328  11.160  17.145  0.00  0.00    +0.000 A 
ATOM     10  C   UNL     1      -4.712  11.340  17.003  0.00  0.00    +0.000 A 
ATOM     11  C   UNL     1      -5.463  11.921  18.032  0.00  0.00    +0.000 A 
ATOM     12 CL   UNL     1      -7.159  12.132  17.775  0.00  0.00    +0.000 Cl
ATOM     13  C   UNL     1      -4.831  12.308  19.218  0.00  0.00    +0.000 A 
ATOM     14 CL   UNL     1      -5.687  13.054  20.522  0.00  0.00    +0.000 Cl
ATOM     15  C   UNL     1      -3.452  12.104  19.373  0.00  0.00    +0.000 A 
ENDBRANCH   4   8
ENDBRANCH   1   2
BRANCH   1  16
ATOM     16  S   UNL     1       1.888   8.193  19.047  0.00  0.00    +0.000 S 
BRANCH  16  20
ATOM     17  C   UNL     1       2.860   3.205  17.836  0.00  0.00    +0.000 C 
ATOM     18  C   UNL     1       3.293   4.633  17.640  0.00  0.00    +0.000 A 
ATOM     19  C   UNL     1       2.567   5.660  18.285  0.00  0.00    +0.000 A 
ATOM     20  C   UNL     1       2.923   7.016  18.176  0.00  0.00    +0.000 A 
ATOM     21  C   UNL     1       4.050   7.329  17.422  0.00  0.00    +0.000 A 
ATOM     22  C   UNL     1       4.782   6.318  16.773  0.00  0.00    +0.000 A 
ATOM     23  C   UNL     1       4.397   4.972  16.845  0.00  0.00    +0.000 A 
BRANCH  23  24
ATOM     24  O   UNL     1       5.039   3.949  16.179  0.00  0.00    +0.000 OA
BRANCH  24  25
ATOM     25  C   UNL     1       6.430   4.174  15.916  0.00  0.00    +0.000 C 
BRANCH  25  26
ATOM     26  C   UNL     1       6.718   4.408  14.438  0.00  0.00    +0.000 C 
ATOM     27  O   UNL     1       6.099   3.870  13.530  0.00  0.00    +0.000 OA
BRANCH  26  28
ATOM     28  O   UNL     1       7.726   5.284  14.215  0.00  0.00    +0.000 OA
ATOM     29  H   UNL     1       7.455   6.185  14.489  0.00  0.00    +0.000 HD
ENDBRANCH  26  28
ENDBRANCH  25  26
ENDBRANCH  24  25
ENDBRANCH  23  24
ENDBRANCH  16  20
ENDBRANCH   1  16
TORSDOF 8
ENDMDL
MODEL 5
REMARK VINA RESULT:      -7.1      4.938      7.577
REMARK  Name = 
REMARK  10 active torsions:
REMARK  status: ('A' for Active; 'I' for Inactive)
REMARK    1  A    between atoms: C_1  and  C_2
REMARK    2  A    between atoms: C_4  and  S_5
REMARK    3  A    between atoms: S_5  and  C_6
REMARK    4  A    between atoms: C_6  and  C_7
REMARK    5  A    between atoms: N_9  and  C_10
REMARK    6  A    between atoms: C_19  and  C_20
REMARK    7  A    between atoms: C_23  and  O_24
REMARK    8  A    between atoms: O_24  and  C_25
REMARK    9  A    between atoms: C_25  and  C_26
REMARK   10  A    between atoms: C_26  and  O_28
REMARK                            x       y       z     vdW  Elec       q    Type
REMARK                         _______ _______ _______ _____ _____    ______ ____
ROOT
ATOM      1  C   UNL     1       1.509   4.501  19.231  0.00  0.00    +0.000 C 
ENDROOT
BRANCH   1   2
ATOM      2  C   UNL     1       2.647   3.982  18.397  0.00  0.00    +0.000 A 
ATOM      3  N   UNL     1       3.377   4.776  17.592  0.00  0.00    +0.000 NA
ATOM      4  N   UNL     1       4.252   3.898  17.020  0.00  0.00    +0.000 N 
ATOM      5  N   UNL     1       4.161   2.614  17.446  0.00  0.00    +0.000 NA
ATOM      6  C   UNL     1       3.170   2.668  18.341  0.00  0.00    +0.000 A 
ATOM      7  C   UNL     1       2.776   1.461  19.100  0.00  0.00    +0.000 C 
BRANCH   4   8
ATOM      8  C   UNL     1       5.220   4.279  16.050  0.00  0.00    +0.000 A 
ATOM      9  C   UNL     1       6.198   5.240  16.344  0.00  0.00    +0.000 A 
ATOM     10  C   UNL     1       7.145   5.593  15.373  0.00  0.00    +0.000 A 
ATOM     11  C   UNL     1       7.110   5.012  14.099  0.00  0.00    +0.000 A 
ATOM     12 CL   UNL     1       8.297   5.517  12.948  0.00  0.00    +0.000 Cl
ATOM     13  C   UNL     1       6.133   4.058  13.799  0.00  0.00    +0.000 A 
ATOM     14 CL   UNL     1       6.011   3.317  12.242  0.00  0.00    +0.000 Cl
ATOM     15  C   UNL     1       5.200   3.682  14.777  0.00  0.00    +0.000 A 
ENDBRANCH   4   8
ENDBRANCH   1   2
BRANCH   1  16
ATOM     16  S   UNL     1       2.134   5.403  20.708  0.00  0.00    +0.000 S 
BRANCH  16  20
ATOM     17  C   UNL     1       2.076   9.655  17.673  0.00  0.00    +0.000 C 
ATOM     18  C   UNL     1       1.624   9.061  18.980  0.00  0.00    +0.000 A 
ATOM     19  C   UNL     1       1.977   7.726  19.281  0.00  0.00    +0.000 A 
ATOM     20  C   UNL     1       1.618   7.107  20.491  0.00  0.00    +0.000 A 
ATOM     21  C   UNL     1       0.912   7.866  21.420  0.00  0.00    +0.000 A 
ATOM     22  C   UNL     1       0.553   9.196  21.135  0.00  0.00    +0.000 A 
ATOM     23  C   UNL     1       0.872   9.795  19.908  0.00  0.00    +0.000 A 
BRANCH  23  24
ATOM     24  O   UNL     1       0.490  11.072  19.551  0.00  0.00    +0.000 OA
BRANCH  24  25
ATOM     25  C   UNL     1      -0.922  11.264  19.399  0.00  0.00    +0.000 C 
BRANCH  25  26
ATOM     26  C   UNL     1      -1.383  11.112  17.954  0.00  0.00    +0.000 C 
ATOM     27  O   UNL     1      -1.509  10.034  17.389  0.00  0.00    +0.000 OA
BRANCH  26  28
ATOM     28  O   UNL     1      -1.655  12.290  17.346  0.00  0.00    +0.000 OA
ATOM     29  H   UNL     1      -1.461  13.035  17.954  0.00  0.00    +0.000 HD
ENDBRANCH  26  28
ENDBRANCH  25  26
ENDBRANCH  24  25
ENDBRANCH  23  24
ENDBRANCH  16  20
ENDBRANCH   1  16
TORSDOF 8
ENDMDL
MODEL 6
REMARK VINA RESULT:      -7.1      4.760      7.040
REMARK  Name = 
REMARK  10 active torsions:
REMARK  status: ('A' for Active; 'I' for Inactive)
REMARK    1  A    between atoms: C_1  and  C_2
REMARK    2  A    between atoms: C_4  and  S_5
REMARK    3  A    between atoms: S_5  and  C_6
REMARK    4  A    between atoms: C_6  and  C_7
REMARK    5  A    between atoms: N_9  and  C_10
REMARK    6  A    between atoms: C_19  and  C_20
REMARK    7  A    between atoms: C_23  and  O_24
REMARK    8  A    between atoms: O_24  and  C_25
REMARK    9  A    between atoms: C_25  and  C_26
REMARK   10  A    between atoms: C_26  and  O_28
REMARK                            x       y       z     vdW  Elec       q    Type
REMARK                         _______ _______ _______ _____ _____    ______ ____
ROOT
ATOM      1  C   UNL     1       6.586   5.756  16.736  0.00  0.00    +0.000 C 
ENDROOT
BRANCH   1   2
ATOM      2  C   UNL     1       7.337   6.761  17.564  0.00  0.00    +0.000 A 
ATOM      3  N   UNL     1       7.480   8.047  17.192  0.00  0.00    +0.000 NA
ATOM      4  N   UNL     1       8.240   8.568  18.199  0.00  0.00    +0.000 N 
ATOM      5  N   UNL     1       8.543   7.716  19.208  0.00  0.00    +0.000 NA
ATOM      6  C   UNL     1       7.947   6.582  18.829  0.00  0.00    +0.000 A 
ATOM      7  C   UNL     1       7.988   5.385  19.696  0.00  0.00    +0.000 C 
BRANCH   4   8
ATOM      8  C   UNL     1       8.684   9.919  18.224  0.00  0.00    +0.000 A 
ATOM      9  C   UNL     1       8.003  10.917  17.513  0.00  0.00    +0.000 A 
ATOM     10  C   UNL     1       8.458  12.243  17.560  0.00  0.00    +0.000 A 
ATOM     11  C   UNL     1       9.603  12.577  18.292  0.00  0.00    +0.000 A 
ATOM     12 CL   UNL     1      10.115  14.228  18.282  0.00  0.00    +0.000 Cl
ATOM     13  C   UNL     1      10.289  11.584  18.998  0.00  0.00    +0.000 A 
ATOM     14 CL   UNL     1      11.724  11.916  19.903  0.00  0.00    +0.000 Cl
ATOM     15  C   UNL     1       9.822  10.262  18.975  0.00  0.00    +0.000 A 
ENDBRANCH   4   8
ENDBRANCH   1   2
BRANCH   1  16
ATOM     16  S   UNL     1       5.096   6.515  15.971  0.00  0.00    +0.000 S 
BRANCH  16  20
ATOM     17  C   UNL     1       2.832   4.829  20.367  0.00  0.00    +0.000 C 
ATOM     18  C   UNL     1       2.967   5.981  19.408  0.00  0.00    +0.000 A 
ATOM     19  C   UNL     1       3.813   5.837  18.285  0.00  0.00    +0.000 A 
ATOM     20  C   UNL     1       3.973   6.855  17.328  0.00  0.00    +0.000 A 
ATOM     21  C   UNL     1       3.239   8.025  17.501  0.00  0.00    +0.000 A 
ATOM     22  C   UNL     1       2.393   8.183  18.613  0.00  0.00    +0.000 A 
ATOM     23  C   UNL     1       2.273   7.185  19.591  0.00  0.00    +0.000 A 
BRANCH  23  24
ATOM     24  O   UNL     1       1.509   7.312  20.732  0.00  0.00    +0.000 OA
BRANCH  24  25
ATOM     25  C   UNL     1       1.484   8.626  21.305  0.00  0.00    +0.000 C 
BRANCH  25  26
ATOM     26  C   UNL     1       0.284   8.846  22.218  0.00  0.00    +0.000 C 
ATOM     27  O   UNL     1      -0.765   8.224  22.126  0.00  0.00    +0.000 OA
BRANCH  26  28
ATOM     28  O   UNL     1       0.488   9.796  23.160  0.00  0.00    +0.000 OA
ATOM     29  H   UNL     1      -0.352   9.993  23.626  0.00  0.00    +0.000 HD
ENDBRANCH  26  28
ENDBRANCH  25  26
ENDBRANCH  24  25
ENDBRANCH  23  24
ENDBRANCH  16  20
ENDBRANCH   1  16
TORSDOF 8
ENDMDL
MODEL 7
REMARK VINA RESULT:      -6.9      5.099      6.988
REMARK  Name = 
REMARK  10 active torsions:
REMARK  status: ('A' for Active; 'I' for Inactive)
REMARK    1  A    between atoms: C_1  and  C_2
REMARK    2  A    between atoms: C_4  and  S_5
REMARK    3  A    between atoms: S_5  and  C_6
REMARK    4  A    between atoms: C_6  and  C_7
REMARK    5  A    between atoms: N_9  and  C_10
REMARK    6  A    between atoms: C_19  and  C_20
REMARK    7  A    between atoms: C_23  and  O_24
REMARK    8  A    between atoms: O_24  and  C_25
REMARK    9  A    between atoms: C_25  and  C_26
REMARK   10  A    between atoms: C_26  and  O_28
REMARK                            x       y       z     vdW  Elec       q    Type
REMARK                         _______ _______ _______ _____ _____    ______ ____
ROOT
ATOM      1  C   UNL     1       0.024  11.051  18.631  0.00  0.00    +0.000 C 
ENDROOT
BRANCH   1   2
ATOM      2  C   UNL     1      -1.402  11.463  18.867  0.00  0.00    +0.000 A 
ATOM      3  N   UNL     1      -1.811  12.034  20.015  0.00  0.00    +0.000 NA
ATOM      4  N   UNL     1      -3.150  12.203  19.806  0.00  0.00    +0.000 N 
ATOM      5  N   UNL     1      -3.606  11.827  18.586  0.00  0.00    +0.000 NA
ATOM      6  C   UNL     1      -2.500  11.390  17.976  0.00  0.00    +0.000 A 
ATOM      7  C   UNL     1      -2.547  10.928  16.573  0.00  0.00    +0.000 C 
BRANCH   4   8
ATOM      8  C   UNL     1      -4.030  12.751  20.778  0.00  0.00    +0.000 A 
ATOM      9  C   UNL     1      -5.355  13.073  20.454  0.00  0.00    +0.000 A 
ATOM     10  C   UNL     1      -6.205  13.607  21.433  0.00  0.00    +0.000 A 
ATOM     11  C   UNL     1      -5.736  13.845  22.730  0.00  0.00    +0.000 A 
ATOM     12 CL   UNL     1      -6.837  14.527  23.875  0.00  0.00    +0.000 Cl
ATOM     13  C   UNL     1      -4.414  13.531  23.058  0.00  0.00    +0.000 A 
ATOM     14 CL   UNL     1      -3.756  13.820  24.630  0.00  0.00    +0.000 Cl
ATOM     15  C   UNL     1      -3.568  12.972  22.088  0.00  0.00    +0.000 A 
ENDBRANCH   4   8
ENDBRANCH   1   2
BRANCH   1  16
ATOM     16  S   UNL     1       0.681  10.101  20.063  0.00  0.00    +0.000 S 
BRANCH  16  20
ATOM     17  C   UNL     1       2.436   5.208  20.580  0.00  0.00    +0.000 C 
ATOM     18  C   UNL     1       2.379   6.413  19.681  0.00  0.00    +0.000 A 
ATOM     19  C   UNL     1       1.687   7.563  20.125  0.00  0.00    +0.000 A 
ATOM     20  C   UNL     1       1.611   8.739  19.358  0.00  0.00    +0.000 A 
ATOM     21  C   UNL     1       2.273   8.755  18.134  0.00  0.00    +0.000 A 
ATOM     22  C   UNL     1       2.966   7.620  17.678  0.00  0.00    +0.000 A 
ATOM     23  C   UNL     1       2.999   6.433  18.424  0.00  0.00    +0.000 A 
BRANCH  23  24
ATOM     24  O   UNL     1       3.609   5.271  17.997  0.00  0.00    +0.000 OA
BRANCH  24  25
ATOM     25  C   UNL     1       5.032   5.350  17.847  0.00  0.00    +0.000 C 
BRANCH  25  26
ATOM     26  C   UNL     1       5.781   4.699  19.004  0.00  0.00    +0.000 C 
ATOM     27  O   UNL     1       6.544   5.302  19.747  0.00  0.00    +0.000 OA
BRANCH  26  28
ATOM     28  O   UNL     1       5.517   3.379  19.145  0.00  0.00    +0.000 OA
ATOM     29  H   UNL     1       5.093   3.032  18.332  0.00  0.00    +0.000 HD
ENDBRANCH  26  28
ENDBRANCH  25  26
ENDBRANCH  24  25
ENDBRANCH  23  24
ENDBRANCH  16  20
ENDBRANCH   1  16
TORSDOF 8
ENDMDL
MODEL 8
REMARK VINA RESULT:      -6.9      3.745      5.742
REMARK  Name = 
REMARK  10 active torsions:
REMARK  status: ('A' for Active; 'I' for Inactive)
REMARK    1  A    between atoms: C_1  and  C_2
REMARK    2  A    between atoms: C_4  and  S_5
REMARK    3  A    between atoms: S_5  and  C_6
REMARK    4  A    between atoms: C_6  and  C_7
REMARK    5  A    between atoms: N_9  and  C_10
REMARK    6  A    between atoms: C_19  and  C_20
REMARK    7  A    between atoms: C_23  and  O_24
REMARK    8  A    between atoms: O_24  and  C_25
REMARK    9  A    between atoms: C_25  and  C_26
REMARK   10  A    between atoms: C_26  and  O_28
REMARK                            x       y       z     vdW  Elec       q    Type
REMARK                         _______ _______ _______ _____ _____    ______ ____
ROOT
ATOM      1  C   UNL     1       1.802   9.145  17.957  0.00  0.00    +0.000 C 
ENDROOT
BRANCH   1   2
ATOM      2  C   UNL     1       1.204  10.270  18.754  0.00  0.00    +0.000 A 
ATOM      3  N   UNL     1       0.234  10.077  19.667  0.00  0.00    +0.000 NA
ATOM      4  N   UNL     1      -0.021  11.344  20.107  0.00  0.00    +0.000 N 
ATOM      5  N   UNL     1       0.757  12.318  19.574  0.00  0.00    +0.000 NA
ATOM      6  C   UNL     1       1.555  11.642  18.744  0.00  0.00    +0.000 A 
ATOM      7  C   UNL     1       2.616  12.339  17.985  0.00  0.00    +0.000 C 
BRANCH   4   8
ATOM      8  C   UNL     1      -1.017  11.651  21.073  0.00  0.00    +0.000 A 
ATOM      9  C   UNL     1      -0.893  11.221  22.402  0.00  0.00    +0.000 A 
ATOM     10  C   UNL     1      -1.887  11.542  23.337  0.00  0.00    +0.000 A 
ATOM     11  C   UNL     1      -3.019  12.270  22.951  0.00  0.00    +0.000 A 
ATOM     12 CL   UNL     1      -4.213  12.606  24.155  0.00  0.00    +0.000 Cl
ATOM     13  C   UNL     1      -3.151  12.695  21.626  0.00  0.00    +0.000 A 
ATOM     14 CL   UNL     1      -4.532  13.575  21.069  0.00  0.00    +0.000 Cl
ATOM     15  C   UNL     1      -2.146  12.399  20.694  0.00  0.00    +0.000 A 
ENDBRANCH   4   8
ENDBRANCH   1   2
BRANCH   1  16
ATOM     16  S   UNL     1       2.156   7.693  19.030  0.00  0.00    +0.000 S 
BRANCH  16  20
ATOM     17  C   UNL     1       3.409   2.835  17.574  0.00  0.00    +0.000 C 
ATOM     18  C   UNL     1       3.734   4.297  17.418  0.00  0.00    +0.000 A 
ATOM     19  C   UNL     1       2.971   5.245  18.136  0.00  0.00    +0.000 A 
ATOM     20  C   UNL     1       3.228   6.626  18.067  0.00  0.00    +0.000 A 
ATOM     21  C   UNL     1       4.295   7.045  17.279  0.00  0.00    +0.000 A 
ATOM     22  C   UNL     1       5.064   6.113  16.559  0.00  0.00    +0.000 A 
ATOM     23  C   UNL     1       4.775   4.742  16.592  0.00  0.00    +0.000 A 
BRANCH  23  24
ATOM     24  O   UNL     1       5.454   3.793  15.857  0.00  0.00    +0.000 OA
BRANCH  24  25
ATOM     25  C   UNL     1       6.512   4.302  15.034  0.00  0.00    +0.000 C 
BRANCH  25  26
ATOM     26  C   UNL     1       6.247   4.103  13.546  0.00  0.00    +0.000 C 
ATOM     27  O   UNL     1       5.185   3.698  13.092  0.00  0.00    +0.000 OA
BRANCH  26  28
ATOM     28  O   UNL     1       7.299   4.428  12.760  0.00  0.00    +0.000 OA
ATOM     29  H   UNL     1       7.456   5.395  12.792  0.00  0.00    +0.000 HD
ENDBRANCH  26  28
ENDBRANCH  25  26
ENDBRANCH  24  25
ENDBRANCH  23  24
ENDBRANCH  16  20
ENDBRANCH   1  16
TORSDOF 8
ENDMDL
MODEL 9
REMARK VINA RESULT:      -6.9      5.187      7.350
REMARK  Name = 
REMARK  10 active torsions:
REMARK  status: ('A' for Active; 'I' for Inactive)
REMARK    1  A    between atoms: C_1  and  C_2
REMARK    2  A    between atoms: C_4  and  S_5
REMARK    3  A    between atoms: S_5  and  C_6
REMARK    4  A    between atoms: C_6  and  C_7
REMARK    5  A    between atoms: N_9  and  C_10
REMARK    6  A    between atoms: C_19  and  C_20
REMARK    7  A    between atoms: C_23  and  O_24
REMARK    8  A    between atoms: O_24  and  C_25
REMARK    9  A    between atoms: C_25  and  C_26
REMARK   10  A    between atoms: C_26  and  O_28
REMARK                            x       y       z     vdW  Elec       q    Type
REMARK                         _______ _______ _______ _____ _____    ______ ____
ROOT
ATOM      1  C   UNL     1       6.468   6.627  16.375  0.00  0.00    +0.000 C 
ENDROOT
BRANCH   1   2
ATOM      2  C   UNL     1       7.327   7.452  17.293  0.00  0.00    +0.000 A 
ATOM      3  N   UNL     1       7.543   8.766  17.098  0.00  0.00    +0.000 NA
ATOM      4  N   UNL     1       8.385   9.087  18.124  0.00  0.00    +0.000 N 
ATOM      5  N   UNL     1       8.673   8.080  18.984  0.00  0.00    +0.000 NA
ATOM      6  C   UNL     1       7.981   7.053  18.484  0.00  0.00    +0.000 A 
ATOM      7  C   UNL     1       7.976   5.743  19.170  0.00  0.00    +0.000 C 
BRANCH   4   8
ATOM      8  C   UNL     1       8.925  10.388  18.314  0.00  0.00    +0.000 A 
ATOM      9  C   UNL     1       8.326  11.512  17.729  0.00  0.00    +0.000 A 
ATOM     10  C   UNL     1       8.875  12.785  17.937  0.00  0.00    +0.000 A 
ATOM     11  C   UNL     1      10.033  12.944  18.707  0.00  0.00    +0.000 A 
ATOM     12 CL   UNL     1      10.664  14.542  18.899  0.00  0.00    +0.000 Cl
ATOM     13  C   UNL     1      10.638  11.825  19.288  0.00  0.00    +0.000 A 
ATOM     14 CL   UNL     1      12.084  11.939  20.229  0.00  0.00    +0.000 Cl
ATOM     15  C   UNL     1      10.077  10.553  19.104  0.00  0.00    +0.000 A 
ENDBRANCH   4   8
ENDBRANCH   1   2
BRANCH   1  16
ATOM     16  S   UNL     1       6.508   4.851  16.856  0.00  0.00    +0.000 S 
BRANCH  16  20
ATOM     17  C   UNL     1       3.193   1.264  18.709  0.00  0.00    +0.000 C 
ATOM     18  C   UNL     1       3.365   2.710  18.327  0.00  0.00    +0.000 A 
ATOM     19  C   UNL     1       4.620   3.141  17.840  0.00  0.00    +0.000 A 
ATOM     20  C   UNL     1       4.855   4.468  17.436  0.00  0.00    +0.000 A 
ATOM     21  C   UNL     1       3.790   5.361  17.503  0.00  0.00    +0.000 A 
ATOM     22  C   UNL     1       2.536   4.947  17.986  0.00  0.00    +0.000 A 
ATOM     23  C   UNL     1       2.318   3.635  18.432  0.00  0.00    +0.000 A 
BRANCH  23  24
ATOM     24  O   UNL     1       1.129   3.192  18.974  0.00  0.00    +0.000 OA
BRANCH  24  25
ATOM     25  C   UNL     1       0.742   3.832  20.197  0.00  0.00    +0.000 C 
BRANCH  25  26
ATOM     26  C   UNL     1       1.713   3.556  21.338  0.00  0.00    +0.000 C 
ATOM     27  O   UNL     1       2.570   4.347  21.710  0.00  0.00    +0.000 OA
BRANCH  26  28
ATOM     28  O   UNL     1       1.536   2.347  21.919  0.00  0.00    +0.000 OA
ATOM     29  H   UNL     1       0.629   2.018  21.742  0.00  0.00    +0.000 HD
ENDBRANCH  26  28
ENDBRANCH  25  26
ENDBRANCH  24  25
ENDBRANCH  23  24
ENDBRANCH  16  20
ENDBRANCH   1  16
TORSDOF 8
ENDMDL
