MODEL 1
REMARK VINA RESULT:      -8.8      0.000      0.000
REMARK  Name = 
REMARK  8 active torsions:
REMARK  status: ('A' for Active; 'I' for Inactive)
REMARK    1  A    between atoms: C_4  and  C_5
REMARK    2  A    between atoms: C_14  and  O_15
REMARK    3  A    between atoms: O_15  and  C_16
REMARK    4  A    between atoms: C_16  and  C_17
REMARK    5  A    between atoms: C_17  and  C_18
REMARK    6  A    between atoms: C_18  and  C_19
REMARK    7  A    between atoms: C_19  and  N_20
REMARK    8  A    between atoms: C_32  and  O_33
REMARK                            x       y       z     vdW  Elec       q    Type
REMARK                         _______ _______ _______ _____ _____    ______ ____
ROOT
ATOM      1  O   UNL     1       2.057  10.828  17.452  0.00  0.00    +0.000 OA
ATOM      2  C   UNL     1       1.679  10.399  18.534  0.00  0.00    +0.000 A 
ATOM      3  C   UNL     1       0.995  11.317  19.451  0.00  0.00    +0.000 A 
ATOM      4  C   UNL     1       0.559  10.874  20.635  0.00  0.00    +0.000 A 
ATOM      5  O   UNL     1       0.733   9.575  21.093  0.00  0.00    +0.000 OA
ATOM      6  C   UNL     1       1.357   8.667  20.266  0.00  0.00    +0.000 A 
ATOM      7  C   UNL     1       1.487   7.355  20.747  0.00  0.00    +0.000 A 
ATOM      8  C   UNL     1       2.103   6.363  19.965  0.00  0.00    +0.000 A 
ATOM      9  C   UNL     1       2.588   6.710  18.705  0.00  0.00    +0.000 A 
ATOM     10  C   UNL     1       2.461   8.019  18.228  0.00  0.00    +0.000 A 
ATOM     11  C   UNL     1       1.843   9.006  19.004  0.00  0.00    +0.000 A 
ENDROOT
BRANCH   4  12
ATOM     12  C   UNL     1      -0.151  11.780  21.560  0.00  0.00    +0.000 A 
ATOM     13  C   UNL     1       0.110  13.161  21.563  0.00  0.00    +0.000 A 
ATOM     14  C   UNL     1      -0.553  14.018  22.441  0.00  0.00    +0.000 A 
ATOM     15  C   UNL     1      -1.496  13.507  23.326  0.00  0.00    +0.000 A 
ATOM     16  C   UNL     1      -1.778  12.141  23.332  0.00  0.00    +0.000 A 
ATOM     17  C   UNL     1      -1.115  11.286  22.451  0.00  0.00    +0.000 A 
ENDBRANCH   4  12
BRANCH  10  18
ATOM     18  O   UNL     1       2.950   8.317  16.989  0.00  0.00    +0.000 OA
ATOM     19  H   UNL     1       2.277   8.751  16.445  0.00  0.00    +0.000 HD
ENDBRANCH  10  18
BRANCH   8  20
ATOM     20  O   UNL     1       2.175   5.113  20.529  0.00  0.00    +0.000 OA
BRANCH  20  21
ATOM     21  C   UNL     1       0.943   4.395  20.683  0.00  0.00    +0.000 C 
BRANCH  21  22
ATOM     22  C   UNL     1       1.115   2.921  20.273  0.00  0.00    +0.000 C 
BRANCH  22  23
ATOM     23  C   UNL     1       1.296   2.753  18.758  0.00  0.00    +0.000 C 
BRANCH  23  24
ATOM     24  C   UNL     1       2.437   1.790  18.371  0.00  0.00    +0.000 C 
BRANCH  24  25
ATOM     25  N   UNL     1       3.301   2.445  17.401  0.00  0.00    +0.000 N 
ATOM     26  C   UNL     1       4.186   3.427  17.713  0.00  0.00    +0.000 A 
ATOM     27  N   UNL     1       4.483   4.342  16.818  0.00  0.00    +0.000 NA
ATOM     28  C   UNL     1       5.493   5.172  17.267  0.00  0.00    +0.000 A 
ATOM     29  C   UNL     1       6.068   6.238  16.538  0.00  0.00    +0.000 A 
ATOM     30  C   UNL     1       7.124   6.970  17.089  0.00  0.00    +0.000 A 
ATOM     31  C   UNL     1       7.603   6.643  18.347  0.00  0.00    +0.000 A 
ATOM     32  F   UNL     1       8.635   7.336  18.850  0.00  0.00    +0.000 F 
ATOM     33  C   UNL     1       7.043   5.613  19.106  0.00  0.00    +0.000 A 
ATOM     34  C   UNL     1       5.973   4.889  18.546  0.00  0.00    +0.000 A 
ATOM     35  S   UNL     1       5.047   3.584  19.197  0.00  0.00    +0.000 S 
ATOM     36  H   UNL     1       2.853   2.626  16.507  0.00  0.00    +0.000 HD
ENDBRANCH  24  25
ENDBRANCH  23  24
ENDBRANCH  22  23
ENDBRANCH  21  22
ENDBRANCH  20  21
ENDBRANCH   8  20
TORSDOF 8
ENDMDL
MODEL 2
REMARK VINA RESULT:      -8.3      1.183      1.663
REMARK  Name = 
REMARK  8 active torsions:
REMARK  status: ('A' for Active; 'I' for Inactive)
REMARK    1  A    between atoms: C_4  and  C_5
REMARK    2  A    between atoms: C_14  and  O_15
REMARK    3  A    between atoms: O_15  and  C_16
REMARK    4  A    between atoms: C_16  and  C_17
REMARK    5  A    between atoms: C_17  and  C_18
REMARK    6  A    between atoms: C_18  and  C_19
REMARK    7  A    between atoms: C_19  and  N_20
REMARK    8  A    between atoms: C_32  and  O_33
REMARK                            x       y       z     vdW  Elec       q    Type
REMARK                         _______ _______ _______ _____ _____    ______ ____
ROOT
ATOM      1  O   UNL     1       1.507  11.418  17.931  0.00  0.00    +0.000 OA
ATOM      2  C   UNL     1       1.144  10.935  18.996  0.00  0.00    +0.000 A 
ATOM      3  C   UNL     1       0.414  11.787  19.940  0.00  0.00    +0.000 A 
ATOM      4  C   UNL     1      -0.006  11.283  21.105  0.00  0.00    +0.000 A 
ATOM      5  O   UNL     1       0.226   9.978  21.518  0.00  0.00    +0.000 OA
ATOM      6  C   UNL     1       0.895   9.130  20.664  0.00  0.00    +0.000 A 
ATOM      7  C   UNL     1       1.083   7.809  21.099  0.00  0.00    +0.000 A 
ATOM      8  C   UNL     1       1.749   6.875  20.286  0.00  0.00    +0.000 A 
ATOM      9  C   UNL     1       2.223   7.288  19.043  0.00  0.00    +0.000 A 
ATOM     10  C   UNL     1       2.037   8.606  18.611  0.00  0.00    +0.000 A 
ATOM     11  C   UNL     1       1.370   9.535  19.417  0.00  0.00    +0.000 A 
ENDROOT
BRANCH   4  12
ATOM     12  C   UNL     1      -0.762  12.122  22.058  0.00  0.00    +0.000 A 
ATOM     13  C   UNL     1      -1.906  11.627  22.707  0.00  0.00    +0.000 A 
ATOM     14  C   UNL     1      -2.626  12.418  23.601  0.00  0.00    +0.000 A 
ATOM     15  C   UNL     1      -2.208  13.718  23.865  0.00  0.00    +0.000 A 
ATOM     16  C   UNL     1      -1.069  14.225  23.241  0.00  0.00    +0.000 A 
ATOM     17  C   UNL     1      -0.349  13.429  22.348  0.00  0.00    +0.000 A 
ENDBRANCH   4  12
BRANCH  10  18
ATOM     18  O   UNL     1       2.517   8.969  17.386  0.00  0.00    +0.000 OA
ATOM     19  H   UNL     1       2.056   8.497  16.678  0.00  0.00    +0.000 HD
ENDBRANCH  10  18
BRANCH   8  20
ATOM     20  O   UNL     1       1.876   5.610  20.807  0.00  0.00    +0.000 OA
BRANCH  20  21
ATOM     21  C   UNL     1       0.995   4.601  20.293  0.00  0.00    +0.000 C 
BRANCH  21  22
ATOM     22  C   UNL     1       1.292   3.236  20.940  0.00  0.00    +0.000 C 
BRANCH  22  23
ATOM     23  C   UNL     1       1.547   2.138  19.898  0.00  0.00    +0.000 C 
BRANCH  23  24
ATOM     24  C   UNL     1       2.708   2.454  18.933  0.00  0.00    +0.000 C 
BRANCH  24  25
ATOM     25  N   UNL     1       3.736   3.190  19.653  0.00  0.00    +0.000 N 
ATOM     26  C   UNL     1       4.574   4.087  19.074  0.00  0.00    +0.000 A 
ATOM     27  N   UNL     1       5.778   4.264  19.568  0.00  0.00    +0.000 NA
ATOM     28  C   UNL     1       6.431   5.304  18.935  0.00  0.00    +0.000 A 
ATOM     29  C   UNL     1       7.728   5.773  19.247  0.00  0.00    +0.000 A 
ATOM     30  C   UNL     1       8.255   6.873  18.562  0.00  0.00    +0.000 A 
ATOM     31  C   UNL     1       7.500   7.498  17.583  0.00  0.00    +0.000 A 
ATOM     32  F   UNL     1       8.009   8.568  16.955  0.00  0.00    +0.000 F 
ATOM     33  C   UNL     1       6.226   7.046  17.231  0.00  0.00    +0.000 A 
ATOM     34  C   UNL     1       5.710   5.932  17.920  0.00  0.00    +0.000 A 
ATOM     35  S   UNL     1       4.201   5.109  17.738  0.00  0.00    +0.000 S 
ATOM     36  H   UNL     1       4.218   2.639  20.358  0.00  0.00    +0.000 HD
ENDBRANCH  24  25
ENDBRANCH  23  24
ENDBRANCH  22  23
ENDBRANCH  21  22
ENDBRANCH  20  21
ENDBRANCH   8  20
TORSDOF 8
ENDMDL
MODEL 3
REMARK VINA RESULT:      -8.2      4.895      9.148
REMARK  Name = 
REMARK  8 active torsions:
REMARK  status: ('A' for Active; 'I' for Inactive)
REMARK    1  A    between atoms: C_4  and  C_5
REMARK    2  A    between atoms: C_14  and  O_15
REMARK    3  A    between atoms: O_15  and  C_16
REMARK    4  A    between atoms: C_16  and  C_17
REMARK    5  A    between atoms: C_17  and  C_18
REMARK    6  A    between atoms: C_18  and  C_19
REMARK    7  A    between atoms: C_19  and  N_20
REMARK    8  A    between atoms: C_32  and  O_33
REMARK                            x       y       z     vdW  Elec       q    Type
REMARK                         _______ _______ _______ _____ _____    ______ ____
ROOT
ATOM      1  O   UNL     1       2.370   8.768  17.171  0.00  0.00    +0.000 OA
ATOM      2  C   UNL     1       2.165   8.322  18.292  0.00  0.00    +0.000 A 
ATOM      3  C   UNL     1       2.528   6.928  18.568  0.00  0.00    +0.000 A 
ATOM      4  C   UNL     1       2.327   6.416  19.788  0.00  0.00    +0.000 A 
ATOM      5  O   UNL     1       1.756   7.116  20.842  0.00  0.00    +0.000 OA
ATOM      6  C   UNL     1       1.409   8.434  20.641  0.00  0.00    +0.000 A 
ATOM      7  C   UNL     1       0.865   9.121  21.737  0.00  0.00    +0.000 A 
ATOM      8  C   UNL     1       0.490  10.471  21.622  0.00  0.00    +0.000 A 
ATOM      9  C   UNL     1       0.664  11.111  20.397  0.00  0.00    +0.000 A 
ATOM     10  C   UNL     1       1.204  10.424  19.304  0.00  0.00    +0.000 A 
ATOM     11  C   UNL     1       1.582   9.082  19.419  0.00  0.00    +0.000 A 
ENDROOT
BRANCH   4  12
ATOM     12  C   UNL     1       2.708   5.021  20.089  0.00  0.00    +0.000 A 
ATOM     13  C   UNL     1       3.720   4.375  19.359  0.00  0.00    +0.000 A 
ATOM     14  C   UNL     1       4.078   3.055  19.635  0.00  0.00    +0.000 A 
ATOM     15  C   UNL     1       3.432   2.363  20.654  0.00  0.00    +0.000 A 
ATOM     16  C   UNL     1       2.432   2.990  21.398  0.00  0.00    +0.000 A 
ATOM     17  C   UNL     1       2.079   4.311  21.120  0.00  0.00    +0.000 A 
ENDBRANCH   4  12
BRANCH  10  18
ATOM     18  O   UNL     1       1.357  11.089  18.122  0.00  0.00    +0.000 OA
ATOM     19  H   UNL     1       0.565  11.600  17.905  0.00  0.00    +0.000 HD
ENDBRANCH  10  18
BRANCH   8  20
ATOM     20  O   UNL     1      -0.028  11.048  22.755  0.00  0.00    +0.000 OA
BRANCH  20  21
ATOM     21  C   UNL     1      -1.401  10.767  23.062  0.00  0.00    +0.000 C 
BRANCH  21  22
ATOM     22  C   UNL     1      -2.119  12.033  23.562  0.00  0.00    +0.000 C 
BRANCH  22  23
ATOM     23  C   UNL     1      -1.748  13.279  22.743  0.00  0.00    +0.000 C 
BRANCH  23  24
ATOM     24  C   UNL     1      -2.962  13.997  22.119  0.00  0.00    +0.000 C 
BRANCH  24  25
ATOM     25  N   UNL     1      -3.776  13.022  21.409  0.00  0.00    +0.000 N 
ATOM     26  C   UNL     1      -3.538  12.618  20.135  0.00  0.00    +0.000 A 
ATOM     27  N   UNL     1      -4.541  12.240  19.376  0.00  0.00    +0.000 NA
ATOM     28  C   UNL     1      -4.094  11.740  18.167  0.00  0.00    +0.000 A 
ATOM     29  C   UNL     1      -4.911  11.221  17.137  0.00  0.00    +0.000 A 
ATOM     30  C   UNL     1      -4.327  10.696  15.981  0.00  0.00    +0.000 A 
ATOM     31  C   UNL     1      -2.948  10.685  15.852  0.00  0.00    +0.000 A 
ATOM     32  F   UNL     1      -2.402  10.153  14.750  0.00  0.00    +0.000 F 
ATOM     33  C   UNL     1      -2.110  11.213  16.838  0.00  0.00    +0.000 A 
ATOM     34  C   UNL     1      -2.710  11.748  17.994  0.00  0.00    +0.000 A 
ATOM     35  S   UNL     1      -1.994  12.485  19.384  0.00  0.00    +0.000 S 
ATOM     36  H   UNL     1      -4.773  13.111  21.586  0.00  0.00    +0.000 HD
ENDBRANCH  24  25
ENDBRANCH  23  24
ENDBRANCH  22  23
ENDBRANCH  21  22
ENDBRANCH  20  21
ENDBRANCH   8  20
TORSDOF 8
ENDMDL
MODEL 4
REMARK VINA RESULT:      -8.1      0.703      1.070
REMARK  Name = 
REMARK  8 active torsions:
REMARK  status: ('A' for Active; 'I' for Inactive)
REMARK    1  A    between atoms: C_4  and  C_5
REMARK    2  A    between atoms: C_14  and  O_15
REMARK    3  A    between atoms: O_15  and  C_16
REMARK    4  A    between atoms: C_16  and  C_17
REMARK    5  A    between atoms: C_17  and  C_18
REMARK    6  A    between atoms: C_18  and  C_19
REMARK    7  A    between atoms: C_19  and  N_20
REMARK    8  A    between atoms: C_32  and  O_33
REMARK                            x       y       z     vdW  Elec       q    Type
REMARK                         _______ _______ _______ _____ _____    ______ ____
ROOT
ATOM      1  O   UNL     1       1.850  10.789  17.736  0.00  0.00    +0.000 OA
ATOM      2  C   UNL     1       1.369  10.442  18.807  0.00  0.00    +0.000 A 
ATOM      3  C   UNL     1       0.563  11.408  19.559  0.00  0.00    +0.000 A 
ATOM      4  C   UNL     1       0.013  11.054  20.725  0.00  0.00    +0.000 A 
ATOM      5  O   UNL     1       0.176   9.808  21.316  0.00  0.00    +0.000 OA
ATOM      6  C   UNL     1       0.912   8.857  20.646  0.00  0.00    +0.000 A 
ATOM      7  C   UNL     1       1.028   7.598  21.255  0.00  0.00    +0.000 A 
ATOM      8  C   UNL     1       1.756   6.566  20.636  0.00  0.00    +0.000 A 
ATOM      9  C   UNL     1       2.365   6.821  19.409  0.00  0.00    +0.000 A 
ATOM     10  C   UNL     1       2.251   8.078  18.803  0.00  0.00    +0.000 A 
ATOM     11  C   UNL     1       1.522   9.103  19.416  0.00  0.00    +0.000 A 
ENDROOT
BRANCH   4  12
ATOM     12  C   UNL     1      -0.820  12.008  21.484  0.00  0.00    +0.000 A 
ATOM     13  C   UNL     1      -1.594  11.582  22.578  0.00  0.00    +0.000 A 
ATOM     14  C   UNL     1      -2.388  12.479  23.292  0.00  0.00    +0.000 A 
ATOM     15  C   UNL     1      -2.415  13.821  22.926  0.00  0.00    +0.000 A 
ATOM     16  C   UNL     1      -1.646  14.267  21.851  0.00  0.00    +0.000 A 
ATOM     17  C   UNL     1      -0.851  13.367  21.140  0.00  0.00    +0.000 A 
ENDBRANCH   4  12
BRANCH  10  18
ATOM     18  O   UNL     1       2.862   8.284  17.601  0.00  0.00    +0.000 OA
ATOM     19  H   UNL     1       3.437   7.540  17.371  0.00  0.00    +0.000 HD
ENDBRANCH  10  18
BRANCH   8  20
ATOM     20  O   UNL     1       1.803   5.374  21.316  0.00  0.00    +0.000 OA
BRANCH  20  21
ATOM     21  C   UNL     1       2.286   4.231  20.597  0.00  0.00    +0.000 C 
BRANCH  21  22
ATOM     22  C   UNL     1       1.115   3.366  20.097  0.00  0.00    +0.000 C 
BRANCH  22  23
ATOM     23  C   UNL     1       1.062   3.283  18.564  0.00  0.00    +0.000 C 
BRANCH  23  24
ATOM     24  C   UNL     1       2.162   2.394  17.950  0.00  0.00    +0.000 C 
BRANCH  24  25
ATOM     25  N   UNL     1       2.986   3.203  17.066  0.00  0.00    +0.000 N 
ATOM     26  C   UNL     1       3.978   4.026  17.493  0.00  0.00    +0.000 A 
ATOM     27  N   UNL     1       4.269   5.105  16.803  0.00  0.00    +0.000 NA
ATOM     28  C   UNL     1       5.384   5.741  17.315  0.00  0.00    +0.000 A 
ATOM     29  C   UNL     1       5.979   6.910  16.788  0.00  0.00    +0.000 A 
ATOM     30  C   UNL     1       7.142   7.424  17.372  0.00  0.00    +0.000 A 
ATOM     31  C   UNL     1       7.704   6.782  18.462  0.00  0.00    +0.000 A 
ATOM     32  F   UNL     1       8.834   7.272  18.993  0.00  0.00    +0.000 F 
ATOM     33  C   UNL     1       7.129   5.640  19.024  0.00  0.00    +0.000 A 
ATOM     34  C   UNL     1       5.954   5.137  18.435  0.00  0.00    +0.000 A 
ATOM     35  S   UNL     1       4.982   3.776  18.870  0.00  0.00    +0.000 S 
ATOM     36  H   UNL     1       2.475   3.616  16.290  0.00  0.00    +0.000 HD
ENDBRANCH  24  25
ENDBRANCH  23  24
ENDBRANCH  22  23
ENDBRANCH  21  22
ENDBRANCH  20  21
ENDBRANCH   8  20
TORSDOF 8
ENDMDL
MODEL 5
REMARK VINA RESULT:      -8.0      1.956      2.612
REMARK  Name = 
REMARK  8 active torsions:
REMARK  status: ('A' for Active; 'I' for Inactive)
REMARK    1  A    between atoms: C_4  and  C_5
REMARK    2  A    between atoms: C_14  and  O_15
REMARK    3  A    between atoms: O_15  and  C_16
REMARK    4  A    between atoms: C_16  and  C_17
REMARK    5  A    between atoms: C_17  and  C_18
REMARK    6  A    between atoms: C_18  and  C_19
REMARK    7  A    between atoms: C_19  and  N_20
REMARK    8  A    between atoms: C_32  and  O_33
REMARK                            x       y       z     vdW  Elec       q    Type
REMARK                         _______ _______ _______ _____ _____    ______ ____
ROOT
ATOM      1  O   UNL     1       0.197  12.459  18.521  0.00  0.00    +0.000 OA
ATOM      2  C   UNL     1      -0.026  11.912  19.593  0.00  0.00    +0.000 A 
ATOM      3  C   UNL     1      -0.777  12.649  20.613  0.00  0.00    +0.000 A 
ATOM      4  C   UNL     1      -1.047  12.072  21.789  0.00  0.00    +0.000 A 
ATOM      5  O   UNL     1      -0.632  10.795  22.144  0.00  0.00    +0.000 OA
ATOM      6  C   UNL     1       0.065  10.052  21.217  0.00  0.00    +0.000 A 
ATOM      7  C   UNL     1       0.440   8.754  21.595  0.00  0.00    +0.000 A 
ATOM      8  C   UNL     1       1.148   7.925  20.708  0.00  0.00    +0.000 A 
ATOM      9  C   UNL     1       1.475   8.420  19.447  0.00  0.00    +0.000 A 
ATOM     10  C   UNL     1       1.104   9.716  19.072  0.00  0.00    +0.000 A 
ATOM     11  C   UNL     1       0.394  10.539  19.952  0.00  0.00    +0.000 A 
ENDROOT
BRANCH   4  12
ATOM     12  C   UNL     1      -1.822  12.792  22.820  0.00  0.00    +0.000 A 
ATOM     13  C   UNL     1      -1.343  13.989  23.379  0.00  0.00    +0.000 A 
ATOM     14  C   UNL     1      -2.069  14.668  24.358  0.00  0.00    +0.000 A 
ATOM     15  C   UNL     1      -3.292  14.163  24.787  0.00  0.00    +0.000 A 
ATOM     16  C   UNL     1      -3.791  12.983  24.236  0.00  0.00    +0.000 A 
ATOM     17  C   UNL     1      -3.063  12.307  23.255  0.00  0.00    +0.000 A 
ENDBRANCH   4  12
BRANCH  10  18
ATOM     18  O   UNL     1       1.444  10.161  17.828  0.00  0.00    +0.000 OA
ATOM     19  H   UNL     1       1.760   9.435  17.272  0.00  0.00    +0.000 HD
ENDBRANCH  10  18
BRANCH   8  20
ATOM     20  O   UNL     1       1.462   6.673  21.178  0.00  0.00    +0.000 OA
BRANCH  20  21
ATOM     21  C   UNL     1       1.885   5.700  20.212  0.00  0.00    +0.000 C 
BRANCH  21  22
ATOM     22  C   UNL     1       1.044   4.416  20.326  0.00  0.00    +0.000 C 
BRANCH  22  23
ATOM     23  C   UNL     1       1.705   3.362  21.226  0.00  0.00    +0.000 C 
BRANCH  23  24
ATOM     24  C   UNL     1       2.847   2.586  20.539  0.00  0.00    +0.000 C 
BRANCH  24  25
ATOM     25  N   UNL     1       3.932   3.508  20.240  0.00  0.00    +0.000 N 
ATOM     26  C   UNL     1       4.491   3.649  19.010  0.00  0.00    +0.000 A 
ATOM     27  N   UNL     1       5.753   4.000  18.907  0.00  0.00    +0.000 NA
ATOM     28  C   UNL     1       6.104   4.223  17.589  0.00  0.00    +0.000 A 
ATOM     29  C   UNL     1       7.376   4.642  17.135  0.00  0.00    +0.000 A 
ATOM     30  C   UNL     1       7.586   4.883  15.774  0.00  0.00    +0.000 A 
ATOM     31  C   UNL     1       6.544   4.711  14.877  0.00  0.00    +0.000 A 
ATOM     32  F   UNL     1       6.754   4.973  13.579  0.00  0.00    +0.000 F 
ATOM     33  C   UNL     1       5.283   4.273  15.286  0.00  0.00    +0.000 A 
ATOM     34  C   UNL     1       5.085   4.024  16.658  0.00  0.00    +0.000 A 
ATOM     35  S   UNL     1       3.682   3.467  17.500  0.00  0.00    +0.000 S 
ATOM     36  H   UNL     1       4.635   3.567  20.971  0.00  0.00    +0.000 HD
ENDBRANCH  24  25
ENDBRANCH  23  24
ENDBRANCH  22  23
ENDBRANCH  21  22
ENDBRANCH  20  21
ENDBRANCH   8  20
TORSDOF 8
ENDMDL
MODEL 6
REMARK VINA RESULT:      -7.9      1.724      2.015
REMARK  Name = 
REMARK  8 active torsions:
REMARK  status: ('A' for Active; 'I' for Inactive)
REMARK    1  A    between atoms: C_4  and  C_5
REMARK    2  A    between atoms: C_14  and  O_15
REMARK    3  A    between atoms: O_15  and  C_16
REMARK    4  A    between atoms: C_16  and  C_17
REMARK    5  A    between atoms: C_17  and  C_18
REMARK    6  A    between atoms: C_18  and  C_19
REMARK    7  A    between atoms: C_19  and  N_20
REMARK    8  A    between atoms: C_32  and  O_33
REMARK                            x       y       z     vdW  Elec       q    Type
REMARK                         _______ _______ _______ _____ _____    ______ ____
ROOT
ATOM      1  O   UNL     1       2.282  10.571  17.382  0.00  0.00    +0.000 OA
ATOM      2  C   UNL     1       1.748  10.258  18.438  0.00  0.00    +0.000 A 
ATOM      3  C   UNL     1       0.969  11.272  19.156  0.00  0.00    +0.000 A 
ATOM      4  C   UNL     1       0.363  10.956  20.306  0.00  0.00    +0.000 A 
ATOM      5  O   UNL     1       0.439   9.708  20.909  0.00  0.00    +0.000 OA
ATOM      6  C   UNL     1       1.146   8.714  20.270  0.00  0.00    +0.000 A 
ATOM      7  C   UNL     1       1.175   7.456  20.891  0.00  0.00    +0.000 A 
ATOM      8  C   UNL     1       1.866   6.382  20.303  0.00  0.00    +0.000 A 
ATOM      9  C   UNL     1       2.528   6.595  19.096  0.00  0.00    +0.000 A 
ATOM     10  C   UNL     1       2.502   7.850  18.479  0.00  0.00    +0.000 A 
ATOM     11  C   UNL     1       1.809   8.917  19.060  0.00  0.00    +0.000 A 
ENDROOT
BRANCH   4  12
ATOM     12  C   UNL     1      -0.443  11.960  21.030  0.00  0.00    +0.000 A 
ATOM     13  C   UNL     1      -0.957  13.089  20.369  0.00  0.00    +0.000 A 
ATOM     14  C   UNL     1      -1.712  14.042  21.051  0.00  0.00    +0.000 A 
ATOM     15  C   UNL     1      -1.973  13.876  22.407  0.00  0.00    +0.000 A 
ATOM     16  C   UNL     1      -1.483  12.757  23.080  0.00  0.00    +0.000 A 
ATOM     17  C   UNL     1      -0.729  11.804  22.394  0.00  0.00    +0.000 A 
ENDBRANCH   4  12
BRANCH  10  18
ATOM     18  O   UNL     1       3.163   8.015  17.297  0.00  0.00    +0.000 OA
ATOM     19  H   UNL     1       3.035   8.909  16.948  0.00  0.00    +0.000 HD
ENDBRANCH  10  18
BRANCH   8  20
ATOM     20  O   UNL     1       1.828   5.195  20.992  0.00  0.00    +0.000 OA
BRANCH  20  21
ATOM     21  C   UNL     1       0.977   4.164  20.469  0.00  0.00    +0.000 C 
BRANCH  21  22
ATOM     22  C   UNL     1       1.083   2.886  21.319  0.00  0.00    +0.000 C 
BRANCH  22  23
ATOM     23  C   UNL     1       2.530   2.570  21.725  0.00  0.00    +0.000 C 
BRANCH  23  24
ATOM     24  C   UNL     1       3.441   2.195  20.538  0.00  0.00    +0.000 C 
BRANCH  24  25
ATOM     25  N   UNL     1       4.260   3.346  20.188  0.00  0.00    +0.000 N 
ATOM     26  C   UNL     1       4.777   3.562  18.951  0.00  0.00    +0.000 A 
ATOM     27  N   UNL     1       5.909   4.216  18.826  0.00  0.00    +0.000 NA
ATOM     28  C   UNL     1       6.206   4.453  17.497  0.00  0.00    +0.000 A 
ATOM     29  C   UNL     1       7.334   5.158  17.018  0.00  0.00    +0.000 A 
ATOM     30  C   UNL     1       7.490   5.374  15.646  0.00  0.00    +0.000 A 
ATOM     31  C   UNL     1       6.535   4.898  14.762  0.00  0.00    +0.000 A 
ATOM     32  F   UNL     1       6.685   5.137  13.452  0.00  0.00    +0.000 F 
ATOM     33  C   UNL     1       5.422   4.175  15.198  0.00  0.00    +0.000 A 
ATOM     34  C   UNL     1       5.280   3.955  16.581  0.00  0.00    +0.000 A 
ATOM     35  S   UNL     1       4.056   3.103  17.455  0.00  0.00    +0.000 S 
ATOM     36  H   UNL     1       4.917   3.620  20.913  0.00  0.00    +0.000 HD
ENDBRANCH  24  25
ENDBRANCH  23  24
ENDBRANCH  22  23
ENDBRANCH  21  22
ENDBRANCH  20  21
ENDBRANCH   8  20
TORSDOF 8
ENDMDL
MODEL 7
REMARK VINA RESULT:      -7.8      4.704      9.532
REMARK  Name = 
REMARK  8 active torsions:
REMARK  status: ('A' for Active; 'I' for Inactive)
REMARK    1  A    between atoms: C_4  and  C_5
REMARK    2  A    between atoms: C_14  and  O_15
REMARK    3  A    between atoms: O_15  and  C_16
REMARK    4  A    between atoms: C_16  and  C_17
REMARK    5  A    between atoms: C_17  and  C_18
REMARK    6  A    between atoms: C_18  and  C_19
REMARK    7  A    between atoms: C_19  and  N_20
REMARK    8  A    between atoms: C_32  and  O_33
REMARK                            x       y       z     vdW  Elec       q    Type
REMARK                         _______ _______ _______ _____ _____    ______ ____
ROOT
ATOM      1  O   UNL     1       2.076   2.151  18.811  0.00  0.00    +0.000 OA
ATOM      2  C   UNL     1       2.610   3.219  18.543  0.00  0.00    +0.000 A 
ATOM      3  C   UNL     1       3.598   3.256  17.460  0.00  0.00    +0.000 A 
ATOM      4  C   UNL     1       4.189   4.411  17.136  0.00  0.00    +0.000 A 
ATOM      5  O   UNL     1       3.955   5.615  17.786  0.00  0.00    +0.000 OA
ATOM      6  C   UNL     1       3.026   5.641  18.802  0.00  0.00    +0.000 A 
ATOM      7  C   UNL     1       2.788   6.881  19.414  0.00  0.00    +0.000 A 
ATOM      8  C   UNL     1       1.850   6.999  20.454  0.00  0.00    +0.000 A 
ATOM      9  C   UNL     1       1.165   5.858  20.869  0.00  0.00    +0.000 A 
ATOM     10  C   UNL     1       1.405   4.622  20.260  0.00  0.00    +0.000 A 
ATOM     11  C   UNL     1       2.334   4.505  19.221  0.00  0.00    +0.000 A 
ENDROOT
BRANCH   4  12
ATOM     12  C   UNL     1       5.170   4.469  16.033  0.00  0.00    +0.000 A 
ATOM     13  C   UNL     1       4.893   3.880  14.787  0.00  0.00    +0.000 A 
ATOM     14  C   UNL     1       5.819   3.926  13.746  0.00  0.00    +0.000 A 
ATOM     15  C   UNL     1       7.037   4.571  13.932  0.00  0.00    +0.000 A 
ATOM     16  C   UNL     1       7.328   5.173  15.156  0.00  0.00    +0.000 A 
ATOM     17  C   UNL     1       6.397   5.127  16.196  0.00  0.00    +0.000 A 
ENDBRANCH   4  12
BRANCH  10  18
ATOM     18  O   UNL     1       0.712   3.530  20.696  0.00  0.00    +0.000 OA
ATOM     19  H   UNL     1       0.758   2.809  20.053  0.00  0.00    +0.000 HD
ENDBRANCH  10  18
BRANCH   8  20
ATOM     20  O   UNL     1       1.694   8.257  20.981  0.00  0.00    +0.000 OA
BRANCH  20  21
ATOM     21  C   UNL     1       0.364   8.649  21.353  0.00  0.00    +0.000 C 
BRANCH  21  22
ATOM     22  C   UNL     1       0.366   9.359  22.718  0.00  0.00    +0.000 C 
BRANCH  22  23
ATOM     23  C   UNL     1      -0.337  10.723  22.670  0.00  0.00    +0.000 C 
BRANCH  23  24
ATOM     24  C   UNL     1      -0.301  11.393  21.281  0.00  0.00    +0.000 C 
BRANCH  24  25
ATOM     25  N   UNL     1      -1.642  11.385  20.717  0.00  0.00    +0.000 N 
ATOM     26  C   UNL     1      -1.912  11.188  19.401  0.00  0.00    +0.000 A 
ATOM     27  N   UNL     1      -2.975  11.743  18.865  0.00  0.00    +0.000 NA
ATOM     28  C   UNL     1      -3.155  11.324  17.561  0.00  0.00    +0.000 A 
ATOM     29  C   UNL     1      -4.219  11.707  16.712  0.00  0.00    +0.000 A 
ATOM     30  C   UNL     1      -4.315  11.167  15.426  0.00  0.00    +0.000 A 
ATOM     31  C   UNL     1      -3.366  10.256  14.992  0.00  0.00    +0.000 A 
ATOM     32  F   UNL     1      -3.487   9.726  13.766  0.00  0.00    +0.000 F 
ATOM     33  C   UNL     1      -2.288   9.874  15.793  0.00  0.00    +0.000 A 
ATOM     34  C   UNL     1      -2.196  10.432  17.083  0.00  0.00    +0.000 A 
ATOM     35  S   UNL     1      -1.008  10.201  18.316  0.00  0.00    +0.000 S 
ATOM     36  H   UNL     1      -2.261  12.085  21.117  0.00  0.00    +0.000 HD
ENDBRANCH  24  25
ENDBRANCH  23  24
ENDBRANCH  22  23
ENDBRANCH  21  22
ENDBRANCH  20  21
ENDBRANCH   8  20
TORSDOF 8
ENDMDL
MODEL 8
REMARK VINA RESULT:      -7.7      2.412      4.662
REMARK  Name = 
REMARK  8 active torsions:
REMARK  status: ('A' for Active; 'I' for Inactive)
REMARK    1  A    between atoms: C_4  and  C_5
REMARK    2  A    between atoms: C_14  and  O_15
REMARK    3  A    between atoms: O_15  and  C_16
REMARK    4  A    between atoms: C_16  and  C_17
REMARK    5  A    between atoms: C_17  and  C_18
REMARK    6  A    between atoms: C_18  and  C_19
REMARK    7  A    between atoms: C_19  and  N_20
REMARK    8  A    between atoms: C_32  and  O_33
REMARK                            x       y       z     vdW  Elec       q    Type
REMARK                         _______ _______ _______ _____ _____    ______ ____
ROOT
ATOM      1  O   UNL     1       0.156   9.183  21.883  0.00  0.00    +0.000 OA
ATOM      2  C   UNL     1       0.662   9.646  20.869  0.00  0.00    +0.000 A 
ATOM      3  C   UNL     1       0.481  11.073  20.584  0.00  0.00    +0.000 A 
ATOM      4  C   UNL     1       1.033  11.609  19.491  0.00  0.00    +0.000 A 
ATOM      5  O   UNL     1       1.766  10.891  18.556  0.00  0.00    +0.000 OA
ATOM      6  C   UNL     1       1.979   9.549  18.781  0.00  0.00    +0.000 A 
ATOM      7  C   UNL     1       2.752   8.861  17.834  0.00  0.00    +0.000 A 
ATOM      8  C   UNL     1       3.024   7.491  17.990  0.00  0.00    +0.000 A 
ATOM      9  C   UNL     1       2.506   6.829  19.101  0.00  0.00    +0.000 A 
ATOM     10  C   UNL     1       1.733   7.515  20.044  0.00  0.00    +0.000 A 
ATOM     11  C   UNL     1       1.467   8.880  19.892  0.00  0.00    +0.000 A 
ENDROOT
BRANCH   4  12
ATOM     12  C   UNL     1       0.880  13.050  19.201  0.00  0.00    +0.000 A 
ATOM     13  C   UNL     1      -0.394  13.631  19.083  0.00  0.00    +0.000 A 
ATOM     14  C   UNL     1      -0.543  14.990  18.802  0.00  0.00    +0.000 A 
ATOM     15  C   UNL     1       0.583  15.790  18.643  0.00  0.00    +0.000 A 
ATOM     16  C   UNL     1       1.856  15.235  18.768  0.00  0.00    +0.000 A 
ATOM     17  C   UNL     1       2.002  13.876  19.051  0.00  0.00    +0.000 A 
ENDBRANCH   4  12
BRANCH  10  18
ATOM     18  O   UNL     1       1.246   6.829  21.118  0.00  0.00    +0.000 OA
ATOM     19  H   UNL     1       0.351   6.502  20.944  0.00  0.00    +0.000 HD
ENDBRANCH  10  18
BRANCH   8  20
ATOM     20  O   UNL     1       3.793   6.916  17.007  0.00  0.00    +0.000 OA
BRANCH  20  21
ATOM     21  C   UNL     1       5.217   7.022  17.146  0.00  0.00    +0.000 C 
BRANCH  21  22
ATOM     22  C   UNL     1       5.928   6.509  15.881  0.00  0.00    +0.000 C 
BRANCH  22  23
ATOM     23  C   UNL     1       6.843   5.310  16.169  0.00  0.00    +0.000 C 
BRANCH  23  24
ATOM     24  C   UNL     1       6.191   3.945  15.869  0.00  0.00    +0.000 C 
BRANCH  24  25
ATOM     25  N   UNL     1       4.753   4.055  16.060  0.00  0.00    +0.000 N 
ATOM     26  C   UNL     1       4.105   3.668  17.190  0.00  0.00    +0.000 A 
ATOM     27  N   UNL     1       2.864   3.244  17.113  0.00  0.00    +0.000 NA
ATOM     28  C   UNL     1       2.332   3.024  18.370  0.00  0.00    +0.000 A 
ATOM     29  C   UNL     1       1.013   2.596  18.642  0.00  0.00    +0.000 A 
ATOM     30  C   UNL     1       0.582   2.462  19.966  0.00  0.00    +0.000 A 
ATOM     31  C   UNL     1       1.452   2.753  21.003  0.00  0.00    +0.000 A 
ATOM     32  F   UNL     1       1.015   2.646  22.266  0.00  0.00    +0.000 F 
ATOM     33  C   UNL     1       2.770   3.154  20.772  0.00  0.00    +0.000 A 
ATOM     34  C   UNL     1       3.196   3.276  19.435  0.00  0.00    +0.000 A 
ATOM     35  S   UNL     1       4.735   3.726  18.792  0.00  0.00    +0.000 S 
ATOM     36  H   UNL     1       4.209   3.832  15.231  0.00  0.00    +0.000 HD
ENDBRANCH  24  25
ENDBRANCH  23  24
ENDBRANCH  22  23
ENDBRANCH  21  22
ENDBRANCH  20  21
ENDBRANCH   8  20
TORSDOF 8
ENDMDL
MODEL 9
REMARK VINA RESULT:      -7.6      5.051      9.195
REMARK  Name = 
REMARK  8 active torsions:
REMARK  status: ('A' for Active; 'I' for Inactive)
REMARK    1  A    between atoms: C_4  and  C_5
REMARK    2  A    between atoms: C_14  and  O_15
REMARK    3  A    between atoms: O_15  and  C_16
REMARK    4  A    between atoms: C_16  and  C_17
REMARK    5  A    between atoms: C_17  and  C_18
REMARK    6  A    between atoms: C_18  and  C_19
REMARK    7  A    between atoms: C_19  and  N_20
REMARK    8  A    between atoms: C_32  and  O_33
REMARK                            x       y       z     vdW  Elec       q    Type
REMARK                         _______ _______ _______ _____ _____    ______ ____
ROOT
ATOM      1  O   UNL     1       2.760   8.783  17.462  0.00  0.00    +0.000 OA
ATOM      2  C   UNL     1       2.303   8.261  18.470  0.00  0.00    +0.000 A 
ATOM      3  C   UNL     1       2.705   6.888  18.791  0.00  0.00    +0.000 A 
ATOM      4  C   UNL     1       2.232   6.295  19.893  0.00  0.00    +0.000 A 
ATOM      5  O   UNL     1       1.338   6.888  20.774  0.00  0.00    +0.000 OA
ATOM      6  C   UNL     1       0.938   8.183  20.528  0.00  0.00    +0.000 A 
ATOM      7  C   UNL     1       0.060   8.763  21.456  0.00  0.00    +0.000 A 
ATOM      8  C   UNL     1      -0.392  10.084  21.286  0.00  0.00    +0.000 A 
ATOM      9  C   UNL     1       0.045  10.802  20.175  0.00  0.00    +0.000 A 
ATOM     10  C   UNL     1       0.918  10.221  19.249  0.00  0.00    +0.000 A 
ATOM     11  C   UNL     1       1.373   8.910  19.420  0.00  0.00    +0.000 A 
ENDROOT
BRANCH   4  12
ATOM     12  C   UNL     1       2.645   4.920  20.242  0.00  0.00    +0.000 A 
ATOM     13  C   UNL     1       1.981   4.201  21.251  0.00  0.00    +0.000 A 
ATOM     14  C   UNL     1       2.373   2.905  21.588  0.00  0.00    +0.000 A 
ATOM     15  C   UNL     1       3.432   2.306  20.915  0.00  0.00    +0.000 A 
ATOM     16  C   UNL     1       4.096   2.998  19.903  0.00  0.00    +0.000 A 
ATOM     17  C   UNL     1       3.701   4.293  19.566  0.00  0.00    +0.000 A 
ENDBRANCH   4  12
BRANCH  10  18
ATOM     18  O   UNL     1       1.321  10.960  18.175  0.00  0.00    +0.000 OA
ATOM     19  H   UNL     1       0.561  11.296  17.678  0.00  0.00    +0.000 HD
ENDBRANCH  10  18
BRANCH   8  20
ATOM     20  O   UNL     1      -1.245  10.554  22.254  0.00  0.00    +0.000 OA
BRANCH  20  21
ATOM     21  C   UNL     1      -0.723  11.529  23.167  0.00  0.00    +0.000 C 
BRANCH  21  22
ATOM     22  C   UNL     1      -1.509  12.849  23.066  0.00  0.00    +0.000 C 
BRANCH  22  23
ATOM     23  C   UNL     1      -3.011  12.656  23.320  0.00  0.00    +0.000 C 
BRANCH  23  24
ATOM     24  C   UNL     1      -3.890  12.918  22.081  0.00  0.00    +0.000 C 
BRANCH  24  25
ATOM     25  N   UNL     1      -3.039  12.984  20.902  0.00  0.00    +0.000 N 
ATOM     26  C   UNL     1      -3.306  12.341  19.736  0.00  0.00    +0.000 A 
ATOM     27  N   UNL     1      -2.314  11.951  18.968  0.00  0.00    +0.000 NA
ATOM     28  C   UNL     1      -2.779  11.440  17.772  0.00  0.00    +0.000 A 
ATOM     29  C   UNL     1      -1.975  10.963  16.712  0.00  0.00    +0.000 A 
ATOM     30  C   UNL     1      -2.572  10.518  15.528  0.00  0.00    +0.000 A 
ATOM     31  C   UNL     1      -3.951  10.551  15.400  0.00  0.00    +0.000 A 
ATOM     32  F   UNL     1      -4.507  10.147  14.249  0.00  0.00    +0.000 F 
ATOM     33  C   UNL     1      -4.778  10.991  16.436  0.00  0.00    +0.000 A 
ATOM     34  C   UNL     1      -4.167  11.427  17.627  0.00  0.00    +0.000 A 
ATOM     35  S   UNL     1      -4.870  12.013  19.093  0.00  0.00    +0.000 S 
ATOM     36  H   UNL     1      -2.045  12.967  21.111  0.00  0.00    +0.000 HD
ENDBRANCH  24  25
ENDBRANCH  23  24
ENDBRANCH  22  23
ENDBRANCH  21  22
ENDBRANCH  20  21
ENDBRANCH   8  20
TORSDOF 8
ENDMDL
