MODEL 1
REMARK VINA RESULT:      -7.7      0.000      0.000
REMARK  Name = 
REMARK  4 active torsions:
REMARK  status: ('A' for Active; 'I' for Inactive)
REMARK    1  A    between atoms: C_2  and  C_17
REMARK    2  A    between atoms: N_3  and  C_4
REMARK    3  A    between atoms: C_7  and  C_8
REMARK    4  A    between atoms: C_8  and  N_9
REMARK                            x       y       z     vdW  Elec       q    Type
REMARK                         _______ _______ _______ _____ _____    ______ ____
ROOT
ATOM      1  C   UNL     1       1.446   8.692  19.507  0.00  0.00    +0.000 A 
ATOM      2  C   UNL     1       1.809   7.534  20.196  0.00  0.00    +0.000 A 
ATOM      3  C   UNL     1       2.643   6.582  19.587  0.00  0.00    +0.000 A 
ATOM      4  C   UNL     1       3.127   6.778  18.287  0.00  0.00    +0.000 A 
ATOM      5  C   UNL     1       2.828   7.985  17.644  0.00  0.00    +0.000 A 
ATOM      6  C   UNL     1       1.990   8.926  18.243  0.00  0.00    +0.000 A 
ENDROOT
BRANCH   1   9
ATOM      7  O   UNL     1       1.486  10.363  21.955  0.00  0.00    +0.000 OA
ATOM      8  C   UNL     1       0.568  10.360  21.151  0.00  0.00    +0.000 C 
ATOM      9  N   UNL     1       0.519   9.638  19.981  0.00  0.00    +0.000 N 
ATOM     10  H   UNL     1      -0.279   9.798  19.375  0.00  0.00    +0.000 HD
BRANCH   8  11
ATOM     11  C   UNL     1      -0.649  11.176  21.482  0.00  0.00    +0.000 A 
ATOM     12  C   UNL     1      -1.086  11.111  22.818  0.00  0.00    +0.000 A 
ATOM     13  C   UNL     1      -2.230  11.795  23.239  0.00  0.00    +0.000 A 
ATOM     14  C   UNL     1      -2.948  12.557  22.323  0.00  0.00    +0.000 A 
ATOM     15 CL   UNL     1      -4.362  13.394  22.831  0.00  0.00    +0.000 Cl
ATOM     16  C   UNL     1      -2.532  12.646  21.001  0.00  0.00    +0.000 A 
ATOM     17  C   UNL     1      -1.379  11.959  20.575  0.00  0.00    +0.000 A 
ATOM     18 CL   UNL     1      -0.946  12.186  18.916  0.00  0.00    +0.000 Cl
ENDBRANCH   8  11
ENDBRANCH   1   9
BRANCH   4  19
ATOM     19  C   UNL     1       4.002   5.758  17.597  0.00  0.00    +0.000 C 
BRANCH  19  20
ATOM     20  N   UNL     1       5.219   6.209  16.923  0.00  0.00    +0.000 NA
ATOM     21  C   UNL     1       5.510   5.696  15.584  0.00  0.00    +0.000 C 
ATOM     22  C   UNL     1       6.453   4.477  15.525  0.00  0.00    +0.000 C 
ATOM     23  O   UNL     1       7.619   4.631  16.342  0.00  0.00    +0.000 OA
ATOM     24  C   UNL     1       7.295   5.002  17.685  0.00  0.00    +0.000 C 
ATOM     25  C   UNL     1       6.438   6.273  17.729  0.00  0.00    +0.000 C 
ENDBRANCH  19  20
ENDBRANCH   4  19
TORSDOF 4
ENDMDL
MODEL 2
REMARK VINA RESULT:      -7.6      1.606      2.119
REMARK  Name = 
REMARK  4 active torsions:
REMARK  status: ('A' for Active; 'I' for Inactive)
REMARK    1  A    between atoms: C_2  and  C_17
REMARK    2  A    between atoms: N_3  and  C_4
REMARK    3  A    between atoms: C_7  and  C_8
REMARK    4  A    between atoms: C_8  and  N_9
REMARK                            x       y       z     vdW  Elec       q    Type
REMARK                         _______ _______ _______ _____ _____    ______ ____
ROOT
ATOM      1  C   UNL     1       1.563   8.845  19.477  0.00  0.00    +0.000 A 
ATOM      2  C   UNL     1       1.987   9.024  18.160  0.00  0.00    +0.000 A 
ATOM      3  C   UNL     1       2.762   8.038  17.527  0.00  0.00    +0.000 A 
ATOM      4  C   UNL     1       3.117   6.862  18.200  0.00  0.00    +0.000 A 
ATOM      5  C   UNL     1       2.609   6.657  19.488  0.00  0.00    +0.000 A 
ATOM      6  C   UNL     1       1.849   7.641  20.122  0.00  0.00    +0.000 A 
ENDROOT
BRANCH   1   9
ATOM      7  O   UNL     1      -1.139  10.019  19.145  0.00  0.00    +0.000 OA
ATOM      8  C   UNL     1      -0.351  10.364  20.010  0.00  0.00    +0.000 C 
ATOM      9  N   UNL     1       0.895   9.824  20.234  0.00  0.00    +0.000 N 
ATOM     10  H   UNL     1       1.405  10.165  21.041  0.00  0.00    +0.000 HD
BRANCH   8  11
ATOM     11  C   UNL     1      -0.742  11.520  20.886  0.00  0.00    +0.000 A 
ATOM     12  C   UNL     1      -0.937  12.749  20.229  0.00  0.00    +0.000 A 
ATOM     13  C   UNL     1      -1.265  13.906  20.941  0.00  0.00    +0.000 A 
ATOM     14  C   UNL     1      -1.407  13.843  22.323  0.00  0.00    +0.000 A 
ATOM     15 CL   UNL     1      -1.802  15.264  23.208  0.00  0.00    +0.000 Cl
ATOM     16  C   UNL     1      -1.230  12.640  22.995  0.00  0.00    +0.000 A 
ATOM     17  C   UNL     1      -0.901  11.472  22.280  0.00  0.00    +0.000 A 
ATOM     18 CL   UNL     1      -0.751  10.034  23.228  0.00  0.00    +0.000 Cl
ENDBRANCH   8  11
ENDBRANCH   1   9
BRANCH   4  19
ATOM     19  C   UNL     1       3.973   5.798  17.554  0.00  0.00    +0.000 C 
BRANCH  19  20
ATOM     20  N   UNL     1       5.168   6.203  16.815  0.00  0.00    +0.000 NA
ATOM     21  C   UNL     1       5.471   5.532  15.549  0.00  0.00    +0.000 C 
ATOM     22  C   UNL     1       6.459   4.351  15.639  0.00  0.00    +0.000 C 
ATOM     23  O   UNL     1       7.623   4.653  16.416  0.00  0.00    +0.000 OA
ATOM     24  C   UNL     1       7.293   5.183  17.704  0.00  0.00    +0.000 C 
ATOM     25  C   UNL     1       6.388   6.416  17.592  0.00  0.00    +0.000 C 
ENDBRANCH  19  20
ENDBRANCH   4  19
TORSDOF 4
ENDMDL
MODEL 3
REMARK VINA RESULT:      -7.5      6.171      9.010
REMARK  Name = 
REMARK  4 active torsions:
REMARK  status: ('A' for Active; 'I' for Inactive)
REMARK    1  A    between atoms: C_2  and  C_17
REMARK    2  A    between atoms: N_3  and  C_4
REMARK    3  A    between atoms: C_7  and  C_8
REMARK    4  A    between atoms: C_8  and  N_9
REMARK                            x       y       z     vdW  Elec       q    Type
REMARK                         _______ _______ _______ _____ _____    ______ ____
ROOT
ATOM      1  C   UNL     1       7.834   8.178  17.860  0.00  0.00    +0.000 A 
ATOM      2  C   UNL     1       6.641   7.995  17.161  0.00  0.00    +0.000 A 
ATOM      3  C   UNL     1       5.954   6.773  17.244  0.00  0.00    +0.000 A 
ATOM      4  C   UNL     1       6.448   5.723  18.028  0.00  0.00    +0.000 A 
ATOM      5  C   UNL     1       7.597   5.953  18.794  0.00  0.00    +0.000 A 
ATOM      6  C   UNL     1       8.287   7.162  18.703  0.00  0.00    +0.000 A 
ENDROOT
BRANCH   1   9
ATOM      7  O   UNL     1       8.946   9.972  19.941  0.00  0.00    +0.000 OA
ATOM      8  C   UNL     1       9.112  10.138  18.744  0.00  0.00    +0.000 C 
ATOM      9  N   UNL     1       8.656   9.314  17.741  0.00  0.00    +0.000 N 
ATOM     10  H   UNL     1       8.940   9.542  16.795  0.00  0.00    +0.000 HD
BRANCH   8  11
ATOM     11  C   UNL     1       9.836  11.379  18.308  0.00  0.00    +0.000 A 
ATOM     12  C   UNL     1      11.207  11.432  18.622  0.00  0.00    +0.000 A 
ATOM     13  C   UNL     1      11.980  12.552  18.302  0.00  0.00    +0.000 A 
ATOM     14  C   UNL     1      11.386  13.632  17.657  0.00  0.00    +0.000 A 
ATOM     15 CL   UNL     1      12.328  15.018  17.268  0.00  0.00    +0.000 Cl
ATOM     16  C   UNL     1      10.038  13.601  17.327  0.00  0.00    +0.000 A 
ATOM     17  C   UNL     1       9.257  12.473  17.647  0.00  0.00    +0.000 A 
ATOM     18 CL   UNL     1       7.605  12.543  17.143  0.00  0.00    +0.000 Cl
ENDBRANCH   8  11
ENDBRANCH   1   9
BRANCH   4  19
ATOM     19  C   UNL     1       5.745   4.388  18.113  0.00  0.00    +0.000 C 
BRANCH  19  20
ATOM     20  N   UNL     1       4.719   4.191  19.136  0.00  0.00    +0.000 NA
ATOM     21  C   UNL     1       3.855   3.014  19.045  0.00  0.00    +0.000 C 
ATOM     22  C   UNL     1       2.497   3.235  18.348  0.00  0.00    +0.000 C 
ATOM     23  O   UNL     1       1.816   4.408  18.808  0.00  0.00    +0.000 OA
ATOM     24  C   UNL     1       2.647   5.572  18.758  0.00  0.00    +0.000 C 
ATOM     25  C   UNL     1       3.950   5.368  19.539  0.00  0.00    +0.000 C 
ENDBRANCH  19  20
ENDBRANCH   4  19
TORSDOF 4
ENDMDL
MODEL 4
REMARK VINA RESULT:      -7.5      1.229      1.569
REMARK  Name = 
REMARK  4 active torsions:
REMARK  status: ('A' for Active; 'I' for Inactive)
REMARK    1  A    between atoms: C_2  and  C_17
REMARK    2  A    between atoms: N_3  and  C_4
REMARK    3  A    between atoms: C_7  and  C_8
REMARK    4  A    between atoms: C_8  and  N_9
REMARK                            x       y       z     vdW  Elec       q    Type
REMARK                         _______ _______ _______ _____ _____    ______ ____
ROOT
ATOM      1  C   UNL     1       1.529   8.240  19.648  0.00  0.00    +0.000 A 
ATOM      2  C   UNL     1       1.990   7.086  20.282  0.00  0.00    +0.000 A 
ATOM      3  C   UNL     1       2.850   6.205  19.607  0.00  0.00    +0.000 A 
ATOM      4  C   UNL     1       3.264   6.469  18.295  0.00  0.00    +0.000 A 
ATOM      5  C   UNL     1       2.867   7.675  17.706  0.00  0.00    +0.000 A 
ATOM      6  C   UNL     1       2.002   8.545  18.371  0.00  0.00    +0.000 A 
ENDROOT
BRANCH   1   9
ATOM      7  O   UNL     1       1.574  11.187  19.963  0.00  0.00    +0.000 OA
ATOM      8  C   UNL     1       0.660  10.478  20.351  0.00  0.00    +0.000 C 
ATOM      9  N   UNL     1       0.571   9.114  20.192  0.00  0.00    +0.000 N 
ATOM     10  H   UNL     1      -0.288   8.671  20.501  0.00  0.00    +0.000 HD
BRANCH   8  11
ATOM     11  C   UNL     1      -0.451  11.133  21.120  0.00  0.00    +0.000 A 
ATOM     12  C   UNL     1      -1.166  12.132  20.433  0.00  0.00    +0.000 A 
ATOM     13  C   UNL     1      -2.198  12.840  21.056  0.00  0.00    +0.000 A 
ATOM     14  C   UNL     1      -2.528  12.551  22.376  0.00  0.00    +0.000 A 
ATOM     15 CL   UNL     1      -3.790  13.424  23.152  0.00  0.00    +0.000 Cl
ATOM     16  C   UNL     1      -1.844  11.562  23.072  0.00  0.00    +0.000 A 
ATOM     17  C   UNL     1      -0.806  10.846  22.447  0.00  0.00    +0.000 A 
ATOM     18 CL   UNL     1      -0.065   9.615  23.409  0.00  0.00    +0.000 Cl
ENDBRANCH   8  11
ENDBRANCH   1   9
BRANCH   4  19
ATOM     19  C   UNL     1       4.166   5.524  17.535  0.00  0.00    +0.000 C 
BRANCH  19  20
ATOM     20  N   UNL     1       5.400   6.043  16.947  0.00  0.00    +0.000 NA
ATOM     21  C   UNL     1       5.732   5.671  15.571  0.00  0.00    +0.000 C 
ATOM     22  C   UNL     1       6.681   4.466  15.416  0.00  0.00    +0.000 C 
ATOM     23  O   UNL     1       7.822   4.536  16.278  0.00  0.00    +0.000 OA
ATOM     24  C   UNL     1       7.457   4.766  17.642  0.00  0.00    +0.000 C 
ATOM     25  C   UNL     1       6.595   6.025  17.791  0.00  0.00    +0.000 C 
ENDBRANCH  19  20
ENDBRANCH   4  19
TORSDOF 4
ENDMDL
MODEL 5
REMARK VINA RESULT:      -7.5      1.981      2.452
REMARK  Name = 
REMARK  4 active torsions:
REMARK  status: ('A' for Active; 'I' for Inactive)
REMARK    1  A    between atoms: C_2  and  C_17
REMARK    2  A    between atoms: N_3  and  C_4
REMARK    3  A    between atoms: C_7  and  C_8
REMARK    4  A    between atoms: C_8  and  N_9
REMARK                            x       y       z     vdW  Elec       q    Type
REMARK                         _______ _______ _______ _____ _____    ______ ____
ROOT
ATOM      1  C   UNL     1       1.082   8.829  19.805  0.00  0.00    +0.000 A 
ATOM      2  C   UNL     1       1.498   7.761  20.600  0.00  0.00    +0.000 A 
ATOM      3  C   UNL     1       2.360   6.784  20.075  0.00  0.00    +0.000 A 
ATOM      4  C   UNL     1       2.820   6.865  18.755  0.00  0.00    +0.000 A 
ATOM      5  C   UNL     1       2.466   7.989  17.999  0.00  0.00    +0.000 A 
ATOM      6  C   UNL     1       1.599   8.955  18.515  0.00  0.00    +0.000 A 
ENDROOT
BRANCH   1   9
ATOM      7  O   UNL     1       1.319  11.147  21.638  0.00  0.00    +0.000 OA
ATOM      8  C   UNL     1       0.280  10.821  21.088  0.00  0.00    +0.000 C 
ATOM      9  N   UNL     1       0.126   9.783  20.198  0.00  0.00    +0.000 N 
ATOM     10  H   UNL     1      -0.785   9.682  19.763  0.00  0.00    +0.000 HD
BRANCH   8  11
ATOM     11  C   UNL     1      -0.965  11.581  21.445  0.00  0.00    +0.000 A 
ATOM     12  C   UNL     1      -1.399  11.455  22.778  0.00  0.00    +0.000 A 
ATOM     13  C   UNL     1      -2.566  12.084  23.221  0.00  0.00    +0.000 A 
ATOM     14  C   UNL     1      -3.310  12.852  22.332  0.00  0.00    +0.000 A 
ATOM     15 CL   UNL     1      -4.753  13.621  22.867  0.00  0.00    +0.000 Cl
ATOM     16  C   UNL     1      -2.898  13.001  21.014  0.00  0.00    +0.000 A 
ATOM     17  C   UNL     1      -1.722  12.370  20.566  0.00  0.00    +0.000 A 
ATOM     18 CL   UNL     1      -1.298  12.670  18.916  0.00  0.00    +0.000 Cl
ENDBRANCH   8  11
ENDBRANCH   1   9
BRANCH   4  19
ATOM     19  C   UNL     1       3.724   5.814  18.155  0.00  0.00    +0.000 C 
BRANCH  19  20
ATOM     20  N   UNL     1       3.125   4.689  17.439  0.00  0.00    +0.000 NA
ATOM     21  C   UNL     1       1.715   4.376  17.679  0.00  0.00    +0.000 C 
ATOM     22  C   UNL     1       1.444   3.283  18.732  0.00  0.00    +0.000 C 
ATOM     23  O   UNL     1       2.264   2.122  18.559  0.00  0.00    +0.000 OA
ATOM     24  C   UNL     1       3.653   2.450  18.463  0.00  0.00    +0.000 C 
ATOM     25  C   UNL     1       3.918   3.464  17.344  0.00  0.00    +0.000 C 
ENDBRANCH  19  20
ENDBRANCH   4  19
TORSDOF 4
ENDMDL
MODEL 6
REMARK VINA RESULT:      -7.5      1.205      1.554
REMARK  Name = 
REMARK  4 active torsions:
REMARK  status: ('A' for Active; 'I' for Inactive)
REMARK    1  A    between atoms: C_2  and  C_17
REMARK    2  A    between atoms: N_3  and  C_4
REMARK    3  A    between atoms: C_7  and  C_8
REMARK    4  A    between atoms: C_8  and  N_9
REMARK                            x       y       z     vdW  Elec       q    Type
REMARK                         _______ _______ _______ _____ _____    ______ ____
ROOT
ATOM      1  C   UNL     1       1.651   8.710  19.432  0.00  0.00    +0.000 A 
ATOM      2  C   UNL     1       2.113   8.906  18.131  0.00  0.00    +0.000 A 
ATOM      3  C   UNL     1       2.910   7.930  17.510  0.00  0.00    +0.000 A 
ATOM      4  C   UNL     1       3.250   6.747  18.179  0.00  0.00    +0.000 A 
ATOM      5  C   UNL     1       2.705   6.526  19.450  0.00  0.00    +0.000 A 
ATOM      6  C   UNL     1       1.923   7.500  20.072  0.00  0.00    +0.000 A 
ENDROOT
BRANCH   1   9
ATOM      7  O   UNL     1      -0.998   9.959  18.973  0.00  0.00    +0.000 OA
ATOM      8  C   UNL     1      -0.260  10.256  19.898  0.00  0.00    +0.000 C 
ATOM      9  N   UNL     1       0.957   9.679  20.180  0.00  0.00    +0.000 N 
ATOM     10  H   UNL     1       1.422   9.979  21.030  0.00  0.00    +0.000 HD
BRANCH   8  11
ATOM     11  C   UNL     1      -0.681  11.389  20.788  0.00  0.00    +0.000 A 
ATOM     12  C   UNL     1      -0.901  11.059  22.138  0.00  0.00    +0.000 A 
ATOM     13  C   UNL     1      -1.333  12.020  23.057  0.00  0.00    +0.000 A 
ATOM     14  C   UNL     1      -1.546  13.326  22.632  0.00  0.00    +0.000 A 
ATOM     15 CL   UNL     1      -2.086  14.513  23.754  0.00  0.00    +0.000 Cl
ATOM     16  C   UNL     1      -1.326  13.681  21.307  0.00  0.00    +0.000 A 
ATOM     17  C   UNL     1      -0.889  12.715  20.380  0.00  0.00    +0.000 A 
ATOM     18 CL   UNL     1      -0.613  13.295  18.775  0.00  0.00    +0.000 Cl
ENDBRANCH   8  11
ENDBRANCH   1   9
BRANCH   4  19
ATOM     19  C   UNL     1       4.129   5.694  17.547  0.00  0.00    +0.000 C 
BRANCH  19  20
ATOM     20  N   UNL     1       5.367   6.107  16.888  0.00  0.00    +0.000 NA
ATOM     21  C   UNL     1       5.686   5.540  15.577  0.00  0.00    +0.000 C 
ATOM     22  C   UNL     1       6.617   4.311  15.590  0.00  0.00    +0.000 C 
ATOM     23  O   UNL     1       7.765   4.485  16.429  0.00  0.00    +0.000 OA
ATOM     24  C   UNL     1       7.410   4.911  17.749  0.00  0.00    +0.000 C 
ATOM     25  C   UNL     1       6.566   6.190  17.721  0.00  0.00    +0.000 C 
ENDBRANCH  19  20
ENDBRANCH   4  19
TORSDOF 4
ENDMDL
MODEL 7
REMARK VINA RESULT:      -7.3      6.801      8.806
REMARK  Name = 
REMARK  4 active torsions:
REMARK  status: ('A' for Active; 'I' for Inactive)
REMARK    1  A    between atoms: C_2  and  C_17
REMARK    2  A    between atoms: N_3  and  C_4
REMARK    3  A    between atoms: C_7  and  C_8
REMARK    4  A    between atoms: C_8  and  N_9
REMARK                            x       y       z     vdW  Elec       q    Type
REMARK                         _______ _______ _______ _____ _____    ______ ____
ROOT
ATOM      1  C   UNL     1       8.036   8.306  17.934  0.00  0.00    +0.000 A 
ATOM      2  C   UNL     1       8.447   7.314  18.824  0.00  0.00    +0.000 A 
ATOM      3  C   UNL     1       7.742   6.102  18.906  0.00  0.00    +0.000 A 
ATOM      4  C   UNL     1       6.623   5.865  18.098  0.00  0.00    +0.000 A 
ATOM      5  C   UNL     1       6.277   6.833  17.147  0.00  0.00    +0.000 A 
ATOM      6  C   UNL     1       6.969   8.043  17.073  0.00  0.00    +0.000 A 
ENDROOT
BRANCH   1   9
ATOM      7  O   UNL     1       9.242   9.987  20.057  0.00  0.00    +0.000 OA
ATOM      8  C   UNL     1       9.109  10.348  18.900  0.00  0.00    +0.000 C 
ATOM      9  N   UNL     1       8.597   9.594  17.869  0.00  0.00    +0.000 N 
ATOM     10  H   UNL     1       8.620  10.006  16.942  0.00  0.00    +0.000 HD
BRANCH   8  11
ATOM     11  C   UNL     1       9.488  11.763  18.565  0.00  0.00    +0.000 A 
ATOM     12  C   UNL     1       8.438  12.588  18.119  0.00  0.00    +0.000 A 
ATOM     13  C   UNL     1       8.672  13.914  17.740  0.00  0.00    +0.000 A 
ATOM     14  C   UNL     1       9.962  14.428  17.809  0.00  0.00    +0.000 A 
ATOM     15 CL   UNL     1      10.260  16.055  17.336  0.00  0.00    +0.000 Cl
ATOM     16  C   UNL     1      11.013  13.637  18.255  0.00  0.00    +0.000 A 
ATOM     17  C   UNL     1      10.780  12.303  18.639  0.00  0.00    +0.000 A 
ATOM     18 CL   UNL     1      12.164  11.440  19.215  0.00  0.00    +0.000 Cl
ENDBRANCH   8  11
ENDBRANCH   1   9
BRANCH   4  19
ATOM     19  C   UNL     1       5.829   4.583  18.185  0.00  0.00    +0.000 C 
BRANCH  19  20
ATOM     20  N   UNL     1       4.924   4.386  19.317  0.00  0.00    +0.000 NA
ATOM     21  C   UNL     1       4.397   3.044  19.568  0.00  0.00    +0.000 C 
ATOM     22  C   UNL     1       3.007   2.750  18.969  0.00  0.00    +0.000 C 
ATOM     23  O   UNL     1       2.057   3.791  19.220  0.00  0.00    +0.000 OA
ATOM     24  C   UNL     1       2.551   5.079  18.838  0.00  0.00    +0.000 C 
ATOM     25  C   UNL     1       3.886   5.396  19.520  0.00  0.00    +0.000 C 
ENDBRANCH  19  20
ENDBRANCH   4  19
TORSDOF 4
ENDMDL
MODEL 8
REMARK VINA RESULT:      -7.3      1.693      2.146
REMARK  Name = 
REMARK  4 active torsions:
REMARK  status: ('A' for Active; 'I' for Inactive)
REMARK    1  A    between atoms: C_2  and  C_17
REMARK    2  A    between atoms: N_3  and  C_4
REMARK    3  A    between atoms: C_7  and  C_8
REMARK    4  A    between atoms: C_8  and  N_9
REMARK                            x       y       z     vdW  Elec       q    Type
REMARK                         _______ _______ _______ _____ _____    ______ ____
ROOT
ATOM      1  C   UNL     1       2.221   7.478  19.516  0.00  0.00    +0.000 A 
ATOM      2  C   UNL     1       2.265   6.161  19.974  0.00  0.00    +0.000 A 
ATOM      3  C   UNL     1       2.829   5.154  19.175  0.00  0.00    +0.000 A 
ATOM      4  C   UNL     1       3.359   5.450  17.913  0.00  0.00    +0.000 A 
ATOM      5  C   UNL     1       3.389   6.789  17.506  0.00  0.00    +0.000 A 
ATOM      6  C   UNL     1       2.818   7.789  18.293  0.00  0.00    +0.000 A 
ENDROOT
BRANCH   1   9
ATOM      7  O   UNL     1       0.472   9.630  18.469  0.00  0.00    +0.000 OA
ATOM      8  C   UNL     1       0.795   9.529  19.641  0.00  0.00    +0.000 C 
ATOM      9  N   UNL     1       1.566   8.528  20.185  0.00  0.00    +0.000 N 
ATOM     10  H   UNL     1       1.687   8.537  21.192  0.00  0.00    +0.000 HD
BRANCH   8  11
ATOM     11  C   UNL     1       0.360  10.618  20.579  0.00  0.00    +0.000 A 
ATOM     12  C   UNL     1      -0.464  10.215  21.647  0.00  0.00    +0.000 A 
ATOM     13  C   UNL     1      -0.965  11.143  22.565  0.00  0.00    +0.000 A 
ATOM     14  C   UNL     1      -0.640  12.488  22.424  0.00  0.00    +0.000 A 
ATOM     15 CL   UNL     1      -1.259  13.638  23.544  0.00  0.00    +0.000 Cl
ATOM     16  C   UNL     1       0.179  12.911  21.386  0.00  0.00    +0.000 A 
ATOM     17  C   UNL     1       0.686  11.978  20.461  0.00  0.00    +0.000 A 
ATOM     18 CL   UNL     1       1.727  12.627  19.242  0.00  0.00    +0.000 Cl
ENDBRANCH   8  11
ENDBRANCH   1   9
BRANCH   4  19
ATOM     19  C   UNL     1       3.946   4.382  17.020  0.00  0.00    +0.000 C 
BRANCH  19  20
ATOM     20  N   UNL     1       5.386   4.133  17.066  0.00  0.00    +0.000 NA
ATOM     21  C   UNL     1       6.225   5.020  17.872  0.00  0.00    +0.000 C 
ATOM     22  C   UNL     1       6.892   6.183  17.110  0.00  0.00    +0.000 C 
ATOM     23  O   UNL     1       7.512   5.769  15.887  0.00  0.00    +0.000 OA
ATOM     24  C   UNL     1       6.622   5.017  15.057  0.00  0.00    +0.000 C 
ATOM     25  C   UNL     1       6.043   3.807  15.801  0.00  0.00    +0.000 C 
ENDBRANCH  19  20
ENDBRANCH   4  19
TORSDOF 4
ENDMDL
MODEL 9
REMARK VINA RESULT:      -7.2      1.959      2.812
REMARK  Name = 
REMARK  4 active torsions:
REMARK  status: ('A' for Active; 'I' for Inactive)
REMARK    1  A    between atoms: C_2  and  C_17
REMARK    2  A    between atoms: N_3  and  C_4
REMARK    3  A    between atoms: C_7  and  C_8
REMARK    4  A    between atoms: C_8  and  N_9
REMARK                            x       y       z     vdW  Elec       q    Type
REMARK                         _______ _______ _______ _____ _____    ______ ____
ROOT
ATOM      1  C   UNL     1       2.396   7.220  18.892  0.00  0.00    +0.000 A 
ATOM      2  C   UNL     1       3.038   7.016  17.671  0.00  0.00    +0.000 A 
ATOM      3  C   UNL     1       4.025   6.024  17.548  0.00  0.00    +0.000 A 
ATOM      4  C   UNL     1       4.379   5.223  18.641  0.00  0.00    +0.000 A 
ATOM      5  C   UNL     1       3.663   5.379  19.834  0.00  0.00    +0.000 A 
ATOM      6  C   UNL     1       2.691   6.372  19.961  0.00  0.00    +0.000 A 
ENDROOT
BRANCH   1   9
ATOM      7  O   UNL     1       2.011   9.810  17.503  0.00  0.00    +0.000 OA
ATOM      8  C   UNL     1       1.381   9.470  18.491  0.00  0.00    +0.000 C 
ATOM      9  N   UNL     1       1.490   8.266  19.147  0.00  0.00    +0.000 N 
ATOM     10  H   UNL     1       0.844   8.097  19.910  0.00  0.00    +0.000 HD
BRANCH   8  11
ATOM     11  C   UNL     1       0.432  10.469  19.089  0.00  0.00    +0.000 A 
ATOM     12  C   UNL     1       0.920  11.193  20.193  0.00  0.00    +0.000 A 
ATOM     13  C   UNL     1       0.118  12.124  20.859  0.00  0.00    +0.000 A 
ATOM     14  C   UNL     1      -1.184  12.343  20.422  0.00  0.00    +0.000 A 
ATOM     15 CL   UNL     1      -2.180  13.480  21.242  0.00  0.00    +0.000 Cl
ATOM     16  C   UNL     1      -1.686  11.650  19.328  0.00  0.00    +0.000 A 
ATOM     17  C   UNL     1      -0.879  10.713  18.654  0.00  0.00    +0.000 A 
ATOM     18 CL   UNL     1      -1.609   9.950  17.285  0.00  0.00    +0.000 Cl
ENDBRANCH   8  11
ENDBRANCH   1   9
BRANCH   4  19
ATOM     19  C   UNL     1       5.456   4.169  18.546  0.00  0.00    +0.000 C 
BRANCH  19  20
ATOM     20  N   UNL     1       6.825   4.581  18.237  0.00  0.00    +0.000 NA
ATOM     21  C   UNL     1       7.304   5.864  18.754  0.00  0.00    +0.000 C 
ATOM     22  C   UNL     1       7.191   7.058  17.784  0.00  0.00    +0.000 C 
ATOM     23  O   UNL     1       7.670   6.759  16.468  0.00  0.00    +0.000 OA
ATOM     24  C   UNL     1       7.081   5.569  15.935  0.00  0.00    +0.000 C 
ATOM     25  C   UNL     1       7.288   4.370  16.866  0.00  0.00    +0.000 C 
ENDBRANCH  19  20
ENDBRANCH   4  19
TORSDOF 4
ENDMDL
