MODEL 1
REMARK VINA RESULT:      -8.3      0.000      0.000
REMARK  Name = 
REMARK  9 active torsions:
REMARK  status: ('A' for Active; 'I' for Inactive)
REMARK    1  A    between atoms: C_1  and  C_2
REMARK    2  A    between atoms: C_2  and  C_3
REMARK    3  A    between atoms: C_3  and  N_4
REMARK    4  A    between atoms: C_3  and  C_27
REMARK    5  A    between atoms: C_5  and  C_7
REMARK    6  A    between atoms: C_9  and  C_10
REMARK    7  A    between atoms: N_12  and  C_13
REMARK    8  A    between atoms: C_13  and  C_14
REMARK    9  A    between atoms: C_13  and  C_15
REMARK                            x       y       z     vdW  Elec       q    Type
REMARK                         _______ _______ _______ _____ _____    ______ ____
ROOT
ATOM      1  C   UNL     1       0.405  10.026  18.285  0.00  0.00    +0.000 A 
ATOM      2  C   UNL     1      -0.808   9.835  17.652  0.00  0.00    +0.000 A 
ATOM      3  C   UNL     1      -1.803  10.716  18.200  0.00  0.00    +0.000 A 
ATOM      4  C   UNL     1      -1.128  11.494  19.140  0.00  0.00    +0.000 A 
ATOM      5  N   UNL     1       0.175  11.013  19.211  0.00  0.00    +0.000 N 
ATOM      6  C   UNL     1       1.143  11.483  20.194  0.00  0.00    +0.000 C 
ATOM      7  C   UNL     1       0.689  12.780  20.842  0.00  0.00    +0.000 C 
ATOM      8  O   UNL     1      -0.704  12.714  21.153  0.00  0.00    +0.000 OA
ATOM      9  C   UNL     1      -1.511  12.678  19.966  0.00  0.00    +0.000 C 
ENDROOT
BRANCH   1  11
ATOM     10  N   UNL     1       1.618   7.984  18.447  0.00  0.00    +0.000 N 
ATOM     11  C   UNL     1       1.658   9.315  18.093  0.00  0.00    +0.000 C 
ATOM     12  O   UNL     1       2.668   9.846  17.642  0.00  0.00    +0.000 OA
ATOM     13  H   UNL     1       0.725   7.573  18.683  0.00  0.00    +0.000 HD
BRANCH  10  14
ATOM     14  C   UNL     1       2.775   7.112  18.373  0.00  0.00    +0.000 C 
BRANCH  14  15
ATOM     15  C   UNL     1       2.358   5.660  18.613  0.00  0.00    +0.000 A 
ATOM     16  C   UNL     1       2.622   4.720  17.593  0.00  0.00    +0.000 A 
ATOM     17  C   UNL     1       2.208   3.391  17.711  0.00  0.00    +0.000 A 
ATOM     18  C   UNL     1       1.518   2.987  18.846  0.00  0.00    +0.000 A 
ATOM     19  F   UNL     1       1.097   1.720  18.947  0.00  0.00    +0.000 F 
ATOM     20  C   UNL     1       1.274   3.874  19.882  0.00  0.00    +0.000 A 
ATOM     21  C   UNL     1       1.714   5.197  19.780  0.00  0.00    +0.000 A 
ATOM     22 CL   UNL     1       1.477   6.190  21.176  0.00  0.00    +0.000 Cl
ENDBRANCH  14  15
BRANCH  14  24
ATOM     23  C   UNL     1       5.094   7.028  17.233  0.00  0.00    +0.000 C 
ATOM     24  C   UNL     1       3.598   7.256  17.072  0.00  0.00    +0.000 C 
ENDBRANCH  14  24
ENDBRANCH  10  14
ENDBRANCH   1  11
BRANCH   3  25
ATOM     25  C   UNL     1      -3.191  10.660  17.716  0.00  0.00    +0.000 C 
ATOM     26  O   UNL     1      -3.588   9.655  17.127  0.00  0.00    +0.000 OA
ATOM     27  N   UNL     1      -4.057  11.696  17.980  0.00  0.00    +0.000 N 
ATOM     28  H   UNL     1      -3.795  12.495  18.537  0.00  0.00    +0.000 HD
BRANCH  27  29
ATOM     29  C   UNL     1      -5.481  11.530  17.682  0.00  0.00    +0.000 C 
ATOM     30  C   UNL     1      -6.074  12.781  17.025  0.00  0.00    +0.000 C 
BRANCH  29  31
ATOM     31  C   UNL     1      -6.292  11.163  18.909  0.00  0.00    +0.000 A 
ATOM     32  C   UNL     1      -6.744   9.852  19.077  0.00  0.00    +0.000 A 
ATOM     33  N   UNL     1      -7.504   9.462  20.127  0.00  0.00    +0.000 NA
ATOM     34  C   UNL     1      -7.810  10.436  21.010  0.00  0.00    +0.000 A 
ATOM     35  C   UNL     1      -7.377  11.742  20.850  0.00  0.00    +0.000 A 
ATOM     36  N   UNL     1      -6.609  12.138  19.805  0.00  0.00    +0.000 NA
ENDBRANCH  29  31
ENDBRANCH  27  29
ENDBRANCH   3  25
TORSDOF 7
ENDMDL
MODEL 2
REMARK VINA RESULT:      -8.3      1.173      1.388
REMARK  Name = 
REMARK  9 active torsions:
REMARK  status: ('A' for Active; 'I' for Inactive)
REMARK    1  A    between atoms: C_1  and  C_2
REMARK    2  A    between atoms: C_2  and  C_3
REMARK    3  A    between atoms: C_3  and  N_4
REMARK    4  A    between atoms: C_3  and  C_27
REMARK    5  A    between atoms: C_5  and  C_7
REMARK    6  A    between atoms: C_9  and  C_10
REMARK    7  A    between atoms: N_12  and  C_13
REMARK    8  A    between atoms: C_13  and  C_14
REMARK    9  A    between atoms: C_13  and  C_15
REMARK                            x       y       z     vdW  Elec       q    Type
REMARK                         _______ _______ _______ _____ _____    ______ ____
ROOT
ATOM      1  C   UNL     1       0.495   9.821  18.287  0.00  0.00    +0.000 A 
ATOM      2  C   UNL     1      -0.673   9.762  17.552  0.00  0.00    +0.000 A 
ATOM      3  C   UNL     1      -1.742  10.412  18.259  0.00  0.00    +0.000 A 
ATOM      4  C   UNL     1      -1.159  10.926  19.416  0.00  0.00    +0.000 A 
ATOM      5  N   UNL     1       0.165  10.500  19.433  0.00  0.00    +0.000 N 
ATOM      6  C   UNL     1       1.056  10.719  20.565  0.00  0.00    +0.000 C 
ATOM      7  C   UNL     1       0.497  11.764  21.516  0.00  0.00    +0.000 C 
ATOM      8  O   UNL     1      -0.903  11.555  21.710  0.00  0.00    +0.000 OA
ATOM      9  C   UNL     1      -1.649  11.816  20.512  0.00  0.00    +0.000 C 
ENDROOT
BRANCH   1  11
ATOM     10  N   UNL     1       1.941   7.932  18.369  0.00  0.00    +0.000 N 
ATOM     11  C   UNL     1       1.796   9.247  17.984  0.00  0.00    +0.000 C 
ATOM     12  O   UNL     1       2.690   9.870  17.420  0.00  0.00    +0.000 OA
ATOM     13  H   UNL     1       1.128   7.433  18.704  0.00  0.00    +0.000 HD
BRANCH  10  14
ATOM     14  C   UNL     1       3.177   7.190  18.198  0.00  0.00    +0.000 C 
BRANCH  14  15
ATOM     15  C   UNL     1       2.931   5.696  18.416  0.00  0.00    +0.000 A 
ATOM     16  C   UNL     1       1.715   5.152  17.949  0.00  0.00    +0.000 A 
ATOM     17  C   UNL     1       1.390   3.812  18.174  0.00  0.00    +0.000 A 
ATOM     18  C   UNL     1       2.272   3.002  18.875  0.00  0.00    +0.000 A 
ATOM     19  F   UNL     1       1.948   1.725  19.115  0.00  0.00    +0.000 F 
ATOM     20  C   UNL     1       3.490   3.494  19.316  0.00  0.00    +0.000 A 
ATOM     21  C   UNL     1       3.832   4.826  19.066  0.00  0.00    +0.000 A 
ATOM     22 CL   UNL     1       5.423   5.308  19.541  0.00  0.00    +0.000 Cl
ENDBRANCH  14  15
BRANCH  14  24
ATOM     23  C   UNL     1       4.811   6.332  16.389  0.00  0.00    +0.000 C 
ATOM     24  C   UNL     1       3.895   7.454  16.855  0.00  0.00    +0.000 C 
ENDBRANCH  14  24
ENDBRANCH  10  14
ENDBRANCH   1  11
BRANCH   3  25
ATOM     25  C   UNL     1      -3.100  10.433  17.694  0.00  0.00    +0.000 C 
ATOM     26  O   UNL     1      -3.403   9.629  16.813  0.00  0.00    +0.000 OA
ATOM     27  N   UNL     1      -4.043  11.301  18.194  0.00  0.00    +0.000 N 
ATOM     28  H   UNL     1      -3.860  11.912  18.975  0.00  0.00    +0.000 HD
BRANCH  27  29
ATOM     29  C   UNL     1      -5.438  11.161  17.771  0.00  0.00    +0.000 C 
ATOM     30  C   UNL     1      -5.963  12.439  17.110  0.00  0.00    +0.000 C 
BRANCH  29  31
ATOM     31  C   UNL     1      -6.353  10.762  18.913  0.00  0.00    +0.000 A 
ATOM     32  C   UNL     1      -6.854  11.738  19.776  0.00  0.00    +0.000 A 
ATOM     33  N   UNL     1      -7.644  11.452  20.837  0.00  0.00    +0.000 NA
ATOM     34  C   UNL     1      -7.914  10.141  21.016  0.00  0.00    +0.000 A 
ATOM     35  C   UNL     1      -7.415   9.161  20.174  0.00  0.00    +0.000 A 
ATOM     36  N   UNL     1      -6.630   9.442  19.105  0.00  0.00    +0.000 NA
ENDBRANCH  29  31
ENDBRANCH  27  29
ENDBRANCH   3  25
TORSDOF 7
ENDMDL
MODEL 3
REMARK VINA RESULT:      -8.0      3.545      9.482
REMARK  Name = 
REMARK  9 active torsions:
REMARK  status: ('A' for Active; 'I' for Inactive)
REMARK    1  A    between atoms: C_1  and  C_2
REMARK    2  A    between atoms: C_2  and  C_3
REMARK    3  A    between atoms: C_3  and  N_4
REMARK    4  A    between atoms: C_3  and  C_27
REMARK    5  A    between atoms: C_5  and  C_7
REMARK    6  A    between atoms: C_9  and  C_10
REMARK    7  A    between atoms: N_12  and  C_13
REMARK    8  A    between atoms: C_13  and  C_14
REMARK    9  A    between atoms: C_13  and  C_15
REMARK                            x       y       z     vdW  Elec       q    Type
REMARK                         _______ _______ _______ _____ _____    ______ ____
ROOT
ATOM      1  C   UNL     1       0.388  10.557  19.105  0.00  0.00    +0.000 A 
ATOM      2  C   UNL     1       1.004   9.808  18.120  0.00  0.00    +0.000 A 
ATOM      3  C   UNL     1       1.699   8.692  18.701  0.00  0.00    +0.000 A 
ATOM      4  C   UNL     1       1.423   8.756  20.066  0.00  0.00    +0.000 A 
ATOM      5  N   UNL     1       0.690   9.918  20.282  0.00  0.00    +0.000 N 
ATOM      6  C   UNL     1       0.340  10.402  21.611  0.00  0.00    +0.000 C 
ATOM      7  C   UNL     1       0.532   9.321  22.662  0.00  0.00    +0.000 C 
ATOM      8  O   UNL     1       1.755   8.620  22.431  0.00  0.00    +0.000 OA
ATOM      9  C   UNL     1       1.705   7.851  21.220  0.00  0.00    +0.000 C 
ENDROOT
BRANCH   1  11
ATOM     10  N   UNL     1      -1.555  11.808  19.672  0.00  0.00    +0.000 N 
ATOM     11  C   UNL     1      -0.366  11.793  18.977  0.00  0.00    +0.000 C 
ATOM     12  O   UNL     1       0.024  12.751  18.317  0.00  0.00    +0.000 OA
ATOM     13  H   UNL     1      -1.757  11.045  20.303  0.00  0.00    +0.000 HD
BRANCH  10  14
ATOM     14  C   UNL     1      -2.475  12.930  19.639  0.00  0.00    +0.000 C 
BRANCH  14  15
ATOM     15  C   UNL     1      -3.920  12.428  19.622  0.00  0.00    +0.000 A 
ATOM     16  C   UNL     1      -4.729  12.704  20.745  0.00  0.00    +0.000 A 
ATOM     17  C   UNL     1      -6.036  12.219  20.831  0.00  0.00    +0.000 A 
ATOM     18  C   UNL     1      -6.547  11.444  19.800  0.00  0.00    +0.000 A 
ATOM     19  F   UNL     1      -7.790  10.954  19.894  0.00  0.00    +0.000 F 
ATOM     20  C   UNL     1      -5.794  11.183  18.666  0.00  0.00    +0.000 A 
ATOM     21  C   UNL     1      -4.496  11.694  18.563  0.00  0.00    +0.000 A 
ATOM     22 CL   UNL     1      -3.687  11.424  17.060  0.00  0.00    +0.000 Cl
ENDBRANCH  14  15
BRANCH  14  24
ATOM     23  C   UNL     1      -1.486  13.448  21.971  0.00  0.00    +0.000 C 
ATOM     24  C   UNL     1      -2.251  13.968  20.762  0.00  0.00    +0.000 C 
ENDBRANCH  14  24
ENDBRANCH  10  14
ENDBRANCH   1  11
BRANCH   3  25
ATOM     25  C   UNL     1       2.474   7.777  17.850  0.00  0.00    +0.000 C 
ATOM     26  O   UNL     1       2.925   8.180  16.778  0.00  0.00    +0.000 OA
ATOM     27  N   UNL     1       2.751   6.500  18.281  0.00  0.00    +0.000 N 
ATOM     28  H   UNL     1       2.477   6.162  19.190  0.00  0.00    +0.000 HD
BRANCH  27  29
ATOM     29  C   UNL     1       3.699   5.680  17.523  0.00  0.00    +0.000 C 
ATOM     30  C   UNL     1       3.301   4.201  17.528  0.00  0.00    +0.000 C 
BRANCH  29  31
ATOM     31  C   UNL     1       5.123   5.829  18.022  0.00  0.00    +0.000 A 
ATOM     32  C   UNL     1       5.512   5.206  19.210  0.00  0.00    +0.000 A 
ATOM     33  N   UNL     1       6.754   5.326  19.735  0.00  0.00    +0.000 NA
ATOM     34  C   UNL     1       7.603   6.105  19.031  0.00  0.00    +0.000 A 
ATOM     35  C   UNL     1       7.227   6.737  17.857  0.00  0.00    +0.000 A 
ATOM     36  N   UNL     1       5.988   6.614  17.322  0.00  0.00    +0.000 NA
ENDBRANCH  29  31
ENDBRANCH  27  29
ENDBRANCH   3  25
TORSDOF 7
ENDMDL
MODEL 4
REMARK VINA RESULT:      -8.0      1.177      1.201
REMARK  Name = 
REMARK  9 active torsions:
REMARK  status: ('A' for Active; 'I' for Inactive)
REMARK    1  A    between atoms: C_1  and  C_2
REMARK    2  A    between atoms: C_2  and  C_3
REMARK    3  A    between atoms: C_3  and  N_4
REMARK    4  A    between atoms: C_3  and  C_27
REMARK    5  A    between atoms: C_5  and  C_7
REMARK    6  A    between atoms: C_9  and  C_10
REMARK    7  A    between atoms: N_12  and  C_13
REMARK    8  A    between atoms: C_13  and  C_14
REMARK    9  A    between atoms: C_13  and  C_15
REMARK                            x       y       z     vdW  Elec       q    Type
REMARK                         _______ _______ _______ _____ _____    ______ ____
ROOT
ATOM      1  C   UNL     1       0.384   9.806  18.922  0.00  0.00    +0.000 A 
ATOM      2  C   UNL     1      -0.926   9.552  18.560  0.00  0.00    +0.000 A 
ATOM      3  C   UNL     1      -1.615  10.782  18.282  0.00  0.00    +0.000 A 
ATOM      4  C   UNL     1      -0.654  11.783  18.422  0.00  0.00    +0.000 A 
ATOM      5  N   UNL     1       0.513  11.171  18.867  0.00  0.00    +0.000 N 
ATOM      6  C   UNL     1       1.698  11.918  19.268  0.00  0.00    +0.000 C 
ATOM      7  C   UNL     1       1.634  13.359  18.788  0.00  0.00    +0.000 C 
ATOM      8  O   UNL     1       0.324  13.889  18.996  0.00  0.00    +0.000 OA
ATOM      9  C   UNL     1      -0.646  13.252  18.151  0.00  0.00    +0.000 C 
ENDROOT
BRANCH   1  11
ATOM     10  N   UNL     1       1.934   8.102  18.323  0.00  0.00    +0.000 N 
ATOM     11  C   UNL     1       1.414   8.870  19.342  0.00  0.00    +0.000 C 
ATOM     12  O   UNL     1       1.804   8.777  20.501  0.00  0.00    +0.000 OA
ATOM     13  H   UNL     1       1.671   8.318  17.371  0.00  0.00    +0.000 HD
BRANCH  10  14
ATOM     14  C   UNL     1       2.940   7.078  18.539  0.00  0.00    +0.000 C 
BRANCH  14  15
ATOM     15  C   UNL     1       2.279   5.704  18.651  0.00  0.00    +0.000 A 
ATOM     16  C   UNL     1       2.019   4.996  17.457  0.00  0.00    +0.000 A 
ATOM     17  C   UNL     1       1.356   3.767  17.474  0.00  0.00    +0.000 A 
ATOM     18  C   UNL     1       0.936   3.234  18.684  0.00  0.00    +0.000 A 
ATOM     19  F   UNL     1       0.275   2.070  18.700  0.00  0.00    +0.000 F 
ATOM     20  C   UNL     1       1.205   3.883  19.879  0.00  0.00    +0.000 A 
ATOM     21  C   UNL     1       1.897   5.098  19.867  0.00  0.00    +0.000 A 
ATOM     22 CL   UNL     1       2.298   5.763  21.411  0.00  0.00    +0.000 Cl
ENDBRANCH  14  15
BRANCH  14  24
ATOM     23  C   UNL     1       5.290   6.235  17.871  0.00  0.00    +0.000 C 
ATOM     24  C   UNL     1       4.078   7.075  17.494  0.00  0.00    +0.000 C 
ENDBRANCH  14  24
ENDBRANCH  10  14
ENDBRANCH   1  11
BRANCH   3  25
ATOM     25  C   UNL     1      -3.041  10.768  17.923  0.00  0.00    +0.000 C 
ATOM     26  O   UNL     1      -3.501   9.811  17.301  0.00  0.00    +0.000 OA
ATOM     27  N   UNL     1      -3.869  11.785  18.339  0.00  0.00    +0.000 N 
ATOM     28  H   UNL     1      -3.549  12.540  18.926  0.00  0.00    +0.000 HD
BRANCH  27  29
ATOM     29  C   UNL     1      -5.315  11.648  18.159  0.00  0.00    +0.000 C 
ATOM     30  C   UNL     1      -5.862  12.668  17.155  0.00  0.00    +0.000 C 
BRANCH  29  31
ATOM     31  C   UNL     1      -6.075  11.759  19.467  0.00  0.00    +0.000 A 
ATOM     32  C   UNL     1      -6.836  10.681  19.922  0.00  0.00    +0.000 A 
ATOM     33  N   UNL     1      -7.570  10.721  21.059  0.00  0.00    +0.000 NA
ATOM     34  C   UNL     1      -7.526  11.892  21.730  0.00  0.00    +0.000 A 
ATOM     35  C   UNL     1      -6.784  12.974  21.284  0.00  0.00    +0.000 A 
ATOM     36  N   UNL     1      -6.041  12.936  20.151  0.00  0.00    +0.000 NA
ENDBRANCH  29  31
ENDBRANCH  27  29
ENDBRANCH   3  25
TORSDOF 7
ENDMDL
MODEL 5
REMARK VINA RESULT:      -7.9      1.093      1.382
REMARK  Name = 
REMARK  9 active torsions:
REMARK  status: ('A' for Active; 'I' for Inactive)
REMARK    1  A    between atoms: C_1  and  C_2
REMARK    2  A    between atoms: C_2  and  C_3
REMARK    3  A    between atoms: C_3  and  N_4
REMARK    4  A    between atoms: C_3  and  C_27
REMARK    5  A    between atoms: C_5  and  C_7
REMARK    6  A    between atoms: C_9  and  C_10
REMARK    7  A    between atoms: N_12  and  C_13
REMARK    8  A    between atoms: C_13  and  C_14
REMARK    9  A    between atoms: C_13  and  C_15
REMARK                            x       y       z     vdW  Elec       q    Type
REMARK                         _______ _______ _______ _____ _____    ______ ____
ROOT
ATOM      1  C   UNL     1       0.417   9.880  18.298  0.00  0.00    +0.000 A 
ATOM      2  C   UNL     1      -0.843   9.661  17.775  0.00  0.00    +0.000 A 
ATOM      3  C   UNL     1      -1.751  10.687  18.211  0.00  0.00    +0.000 A 
ATOM      4  C   UNL     1      -0.976  11.571  18.960  0.00  0.00    +0.000 A 
ATOM      5  N   UNL     1       0.301  11.026  19.045  0.00  0.00    +0.000 N 
ATOM      6  C   UNL     1       1.355  11.597  19.874  0.00  0.00    +0.000 C 
ATOM      7  C   UNL     1       1.015  13.014  20.305  0.00  0.00    +0.000 C 
ATOM      8  O   UNL     1      -0.356  13.093  20.698  0.00  0.00    +0.000 OA
ATOM      9  C   UNL     1      -1.239  12.903  19.583  0.00  0.00    +0.000 C 
ENDROOT
BRANCH   1  11
ATOM     10  N   UNL     1       1.614   7.924  18.935  0.00  0.00    +0.000 N 
ATOM     11  C   UNL     1       1.616   9.068  18.167  0.00  0.00    +0.000 C 
ATOM     12  O   UNL     1       2.548   9.363  17.426  0.00  0.00    +0.000 OA
ATOM     13  H   UNL     1       0.765   7.667  19.419  0.00  0.00    +0.000 HD
BRANCH  10  14
ATOM     14  C   UNL     1       2.734   7.003  18.982  0.00  0.00    +0.000 C 
BRANCH  14  15
ATOM     15  C   UNL     1       2.293   5.664  19.575  0.00  0.00    +0.000 A 
ATOM     16  C   UNL     1       2.519   5.444  20.951  0.00  0.00    +0.000 A 
ATOM     17  C   UNL     1       2.206   4.221  21.549  0.00  0.00    +0.000 A 
ATOM     18  C   UNL     1       1.672   3.200  20.776  0.00  0.00    +0.000 A 
ATOM     19  F   UNL     1       1.398   2.017  21.343  0.00  0.00    +0.000 F 
ATOM     20  C   UNL     1       1.403   3.392  19.431  0.00  0.00    +0.000 A 
ATOM     21  C   UNL     1       1.686   4.626  18.837  0.00  0.00    +0.000 A 
ATOM     22 CL   UNL     1       1.196   4.809  17.189  0.00  0.00    +0.000 Cl
ENDBRANCH  14  15
BRANCH  14  24
ATOM     23  C   UNL     1       4.792   6.089  17.712  0.00  0.00    +0.000 C 
ATOM     24  C   UNL     1       3.455   6.810  17.628  0.00  0.00    +0.000 C 
ENDBRANCH  14  24
ENDBRANCH  10  14
ENDBRANCH   1  11
BRANCH   3  25
ATOM     25  C   UNL     1      -3.168  10.637  17.822  0.00  0.00    +0.000 C 
ATOM     26  O   UNL     1      -3.642   9.587  17.388  0.00  0.00    +0.000 OA
ATOM     27  N   UNL     1      -3.975  11.736  18.006  0.00  0.00    +0.000 N 
ATOM     28  H   UNL     1      -3.646  12.584  18.442  0.00  0.00    +0.000 HD
BRANCH  27  29
ATOM     29  C   UNL     1      -5.420  11.602  17.815  0.00  0.00    +0.000 C 
ATOM     30  C   UNL     1      -5.993  12.753  16.983  0.00  0.00    +0.000 C 
BRANCH  29  31
ATOM     31  C   UNL     1      -6.171  11.496  19.128  0.00  0.00    +0.000 A 
ATOM     32  C   UNL     1      -6.820  10.306  19.464  0.00  0.00    +0.000 A 
ATOM     33  N   UNL     1      -7.540  10.152  20.599  0.00  0.00    +0.000 NA
ATOM     34  C   UNL     1      -7.599  11.241  21.395  0.00  0.00    +0.000 A 
ATOM     35  C   UNL     1      -6.969  12.431  21.070  0.00  0.00    +0.000 A 
ATOM     36  N   UNL     1      -6.240  12.589  19.938  0.00  0.00    +0.000 NA
ENDBRANCH  29  31
ENDBRANCH  27  29
ENDBRANCH   3  25
TORSDOF 7
ENDMDL
MODEL 6
REMARK VINA RESULT:      -7.9      1.962      2.225
REMARK  Name = 
REMARK  9 active torsions:
REMARK  status: ('A' for Active; 'I' for Inactive)
REMARK    1  A    between atoms: C_1  and  C_2
REMARK    2  A    between atoms: C_2  and  C_3
REMARK    3  A    between atoms: C_3  and  N_4
REMARK    4  A    between atoms: C_3  and  C_27
REMARK    5  A    between atoms: C_5  and  C_7
REMARK    6  A    between atoms: C_9  and  C_10
REMARK    7  A    between atoms: N_12  and  C_13
REMARK    8  A    between atoms: C_13  and  C_14
REMARK    9  A    between atoms: C_13  and  C_15
REMARK                            x       y       z     vdW  Elec       q    Type
REMARK                         _______ _______ _______ _____ _____    ______ ____
ROOT
ATOM      1  C   UNL     1       0.881   9.570  18.954  0.00  0.00    +0.000 A 
ATOM      2  C   UNL     1      -0.092  10.393  18.420  0.00  0.00    +0.000 A 
ATOM      3  C   UNL     1      -0.972  10.864  19.454  0.00  0.00    +0.000 A 
ATOM      4  C   UNL     1      -0.454  10.350  20.641  0.00  0.00    +0.000 A 
ATOM      5  N   UNL     1       0.616   9.529  20.301  0.00  0.00    +0.000 N 
ATOM      6  C   UNL     1       1.321   8.699  21.269  0.00  0.00    +0.000 C 
ATOM      7  C   UNL     1       1.006   9.122  22.694  0.00  0.00    +0.000 C 
ATOM      8  O   UNL     1      -0.391   9.390  22.831  0.00  0.00    +0.000 OA
ATOM      9  C   UNL     1      -0.783  10.551  22.084  0.00  0.00    +0.000 C 
ENDROOT
BRANCH   1  11
ATOM     10  N   UNL     1       2.280   7.646  18.877  0.00  0.00    +0.000 N 
ATOM     11  C   UNL     1       1.932   8.833  18.272  0.00  0.00    +0.000 C 
ATOM     12  O   UNL     1       2.460   9.224  17.235  0.00  0.00    +0.000 OA
ATOM     13  H   UNL     1       1.719   7.313  19.649  0.00  0.00    +0.000 HD
BRANCH  10  14
ATOM     14  C   UNL     1       3.337   6.785  18.379  0.00  0.00    +0.000 C 
BRANCH  14  15
ATOM     15  C   UNL     1       2.969   5.316  18.595  0.00  0.00    +0.000 A 
ATOM     16  C   UNL     1       1.683   4.892  18.198  0.00  0.00    +0.000 A 
ATOM     17  C   UNL     1       1.250   3.584  18.428  0.00  0.00    +0.000 A 
ATOM     18  C   UNL     1       2.095   2.686  19.065  0.00  0.00    +0.000 A 
ATOM     19  F   UNL     1       1.672   1.440  19.310  0.00  0.00    +0.000 F 
ATOM     20  C   UNL     1       3.377   3.058  19.436  0.00  0.00    +0.000 A 
ATOM     21  C   UNL     1       3.824   4.358  19.180  0.00  0.00    +0.000 A 
ATOM     22 CL   UNL     1       5.478   4.686  19.561  0.00  0.00    +0.000 Cl
ENDBRANCH  14  15
BRANCH  14  24
ATOM     23  C   UNL     1       5.172   6.687  16.561  0.00  0.00    +0.000 C 
ATOM     24  C   UNL     1       3.738   7.056  16.910  0.00  0.00    +0.000 C 
ENDBRANCH  14  24
ENDBRANCH  10  14
ENDBRANCH   1  11
BRANCH   3  25
ATOM     25  C   UNL     1      -2.120  11.719  19.117  0.00  0.00    +0.000 C 
ATOM     26  O   UNL     1      -2.412  11.907  17.936  0.00  0.00    +0.000 OA
ATOM     27  N   UNL     1      -2.903  12.250  20.116  0.00  0.00    +0.000 N 
ATOM     28  H   UNL     1      -2.751  12.046  21.092  0.00  0.00    +0.000 HD
BRANCH  27  29
ATOM     29  C   UNL     1      -4.158  12.916  19.763  0.00  0.00    +0.000 C 
ATOM     30  C   UNL     1      -4.385  14.180  20.598  0.00  0.00    +0.000 C 
BRANCH  29  31
ATOM     31  C   UNL     1      -5.358  11.997  19.888  0.00  0.00    +0.000 A 
ATOM     32  C   UNL     1      -6.114  11.997  21.062  0.00  0.00    +0.000 A 
ATOM     33  N   UNL     1      -7.173  11.178  21.259  0.00  0.00    +0.000 NA
ATOM     34  C   UNL     1      -7.452  10.342  20.236  0.00  0.00    +0.000 A 
ATOM     35  C   UNL     1      -6.704  10.324  19.070  0.00  0.00    +0.000 A 
ATOM     36  N   UNL     1      -5.647  11.147  18.864  0.00  0.00    +0.000 NA
ENDBRANCH  29  31
ENDBRANCH  27  29
ENDBRANCH   3  25
TORSDOF 7
ENDMDL
MODEL 7
REMARK VINA RESULT:      -7.9      5.419      9.874
REMARK  Name = 
REMARK  9 active torsions:
REMARK  status: ('A' for Active; 'I' for Inactive)
REMARK    1  A    between atoms: C_1  and  C_2
REMARK    2  A    between atoms: C_2  and  C_3
REMARK    3  A    between atoms: C_3  and  N_4
REMARK    4  A    between atoms: C_3  and  C_27
REMARK    5  A    between atoms: C_5  and  C_7
REMARK    6  A    between atoms: C_9  and  C_10
REMARK    7  A    between atoms: N_12  and  C_13
REMARK    8  A    between atoms: C_13  and  C_14
REMARK    9  A    between atoms: C_13  and  C_15
REMARK                            x       y       z     vdW  Elec       q    Type
REMARK                         _______ _______ _______ _____ _____    ______ ____
ROOT
ATOM      1  C   UNL     1       1.215  11.076  18.847  0.00  0.00    +0.000 A 
ATOM      2  C   UNL     1       1.795  10.178  17.972  0.00  0.00    +0.000 A 
ATOM      3  C   UNL     1       1.982   8.905  18.614  0.00  0.00    +0.000 A 
ATOM      4  C   UNL     1       1.430   9.049  19.886  0.00  0.00    +0.000 A 
ATOM      5  N   UNL     1       1.037  10.377  20.015  0.00  0.00    +0.000 N 
ATOM      6  C   UNL     1       0.547  10.943  21.265  0.00  0.00    +0.000 C 
ATOM      7  C   UNL     1       0.168   9.854  22.255  0.00  0.00    +0.000 C 
ATOM      8  O   UNL     1       1.154   8.820  22.251  0.00  0.00    +0.000 OA
ATOM      9  C   UNL     1       1.162   8.101  21.009  0.00  0.00    +0.000 C 
ENDROOT
BRANCH   1  11
ATOM     10  N   UNL     1       2.000  13.315  18.659  0.00  0.00    +0.000 N 
ATOM     11  C   UNL     1       0.903  12.481  18.641  0.00  0.00    +0.000 C 
ATOM     12  O   UNL     1      -0.236  12.895  18.454  0.00  0.00    +0.000 OA
ATOM     13  H   UNL     1       2.922  12.903  18.682  0.00  0.00    +0.000 HD
BRANCH  10  14
ATOM     14  C   UNL     1       1.898  14.756  18.517  0.00  0.00    +0.000 C 
BRANCH  14  15
ATOM     15  C   UNL     1       1.487  15.390  19.847  0.00  0.00    +0.000 A 
ATOM     16  C   UNL     1       2.300  15.148  20.975  0.00  0.00    +0.000 A 
ATOM     17  C   UNL     1       1.951  15.635  22.236  0.00  0.00    +0.000 A 
ATOM     18  C   UNL     1       0.779  16.363  22.387  0.00  0.00    +0.000 A 
ATOM     19  F   UNL     1       0.429  16.806  23.601  0.00  0.00    +0.000 F 
ATOM     20  C   UNL     1      -0.025  16.650  21.296  0.00  0.00    +0.000 A 
ATOM     21  C   UNL     1       0.338  16.190  20.027  0.00  0.00    +0.000 A 
ATOM     22 CL   UNL     1      -0.658  16.710  18.713  0.00  0.00    +0.000 Cl
ENDBRANCH  14  15
BRANCH  14  24
ATOM     23  C   UNL     1       4.433  14.592  18.037  0.00  0.00    +0.000 C 
ATOM     24  C   UNL     1       3.165  15.428  17.939  0.00  0.00    +0.000 C 
ENDBRANCH  14  24
ENDBRANCH  10  14
ENDBRANCH   1  11
BRANCH   3  25
ATOM     25  C   UNL     1       2.632   7.800  17.893  0.00  0.00    +0.000 C 
ATOM     26  O   UNL     1       2.976   7.958  16.722  0.00  0.00    +0.000 OA
ATOM     27  N   UNL     1       2.914   6.621  18.544  0.00  0.00    +0.000 N 
ATOM     28  H   UNL     1       2.729   6.485  19.526  0.00  0.00    +0.000 HD
BRANCH  27  29
ATOM     29  C   UNL     1       3.747   5.619  17.878  0.00  0.00    +0.000 C 
ATOM     30  C   UNL     1       3.295   4.192  18.208  0.00  0.00    +0.000 C 
BRANCH  29  31
ATOM     31  C   UNL     1       5.220   5.778  18.206  0.00  0.00    +0.000 A 
ATOM     32  C   UNL     1       5.743   5.185  19.357  0.00  0.00    +0.000 A 
ATOM     33  N   UNL     1       7.037   5.317  19.732  0.00  0.00    +0.000 NA
ATOM     34  C   UNL     1       7.799   6.075  18.915  0.00  0.00    +0.000 A 
ATOM     35  C   UNL     1       7.290   6.678  17.776  0.00  0.00    +0.000 A 
ATOM     36  N   UNL     1       5.997   6.543  17.391  0.00  0.00    +0.000 NA
ENDBRANCH  29  31
ENDBRANCH  27  29
ENDBRANCH   3  25
TORSDOF 7
ENDMDL
MODEL 8
REMARK VINA RESULT:      -7.8      1.324      1.608
REMARK  Name = 
REMARK  9 active torsions:
REMARK  status: ('A' for Active; 'I' for Inactive)
REMARK    1  A    between atoms: C_1  and  C_2
REMARK    2  A    between atoms: C_2  and  C_3
REMARK    3  A    between atoms: C_3  and  N_4
REMARK    4  A    between atoms: C_3  and  C_27
REMARK    5  A    between atoms: C_5  and  C_7
REMARK    6  A    between atoms: C_9  and  C_10
REMARK    7  A    between atoms: N_12  and  C_13
REMARK    8  A    between atoms: C_13  and  C_14
REMARK    9  A    between atoms: C_13  and  C_15
REMARK                            x       y       z     vdW  Elec       q    Type
REMARK                         _______ _______ _______ _____ _____    ______ ____
ROOT
ATOM      1  C   UNL     1       0.611   9.922  18.350  0.00  0.00    +0.000 A 
ATOM      2  C   UNL     1      -0.651   9.694  17.837  0.00  0.00    +0.000 A 
ATOM      3  C   UNL     1      -1.585  10.653  18.359  0.00  0.00    +0.000 A 
ATOM      4  C   UNL     1      -0.826  11.512  19.153  0.00  0.00    +0.000 A 
ATOM      5  N   UNL     1       0.470  11.009  19.177  0.00  0.00    +0.000 N 
ATOM      6  C   UNL     1       1.520  11.559  20.025  0.00  0.00    +0.000 C 
ATOM      7  C   UNL     1       1.140  12.930  20.559  0.00  0.00    +0.000 C 
ATOM      8  O   UNL     1      -0.225  12.932  20.982  0.00  0.00    +0.000 OA
ATOM      9  C   UNL     1      -1.123  12.787  19.871  0.00  0.00    +0.000 C 
ENDROOT
BRANCH   1  11
ATOM     10  N   UNL     1       1.826   7.906  18.702  0.00  0.00    +0.000 N 
ATOM     11  C   UNL     1       1.834   9.165  18.142  0.00  0.00    +0.000 C 
ATOM     12  O   UNL     1       2.792   9.598  17.510  0.00  0.00    +0.000 OA
ATOM     13  H   UNL     1       0.963   7.555  19.093  0.00  0.00    +0.000 HD
BRANCH  10  14
ATOM     14  C   UNL     1       2.966   7.009  18.646  0.00  0.00    +0.000 C 
BRANCH  14  15
ATOM     15  C   UNL     1       2.660   5.718  19.407  0.00  0.00    +0.000 A 
ATOM     16  C   UNL     1       1.311   5.431  19.706  0.00  0.00    +0.000 A 
ATOM     17  C   UNL     1       0.961   4.307  20.458  0.00  0.00    +0.000 A 
ATOM     18  C   UNL     1       1.956   3.461  20.927  0.00  0.00    +0.000 A 
ATOM     19  F   UNL     1       1.623   2.399  21.672  0.00  0.00    +0.000 F 
ATOM     20  C   UNL     1       3.287   3.692  20.622  0.00  0.00    +0.000 A 
ATOM     21  C   UNL     1       3.638   4.799  19.844  0.00  0.00    +0.000 A 
ATOM     22 CL   UNL     1       5.307   4.929  19.409  0.00  0.00    +0.000 Cl
ENDBRANCH  14  15
BRANCH  14  24
ATOM     23  C   UNL     1       4.943   7.033  16.980  0.00  0.00    +0.000 C 
ATOM     24  C   UNL     1       3.473   6.715  17.215  0.00  0.00    +0.000 C 
ENDBRANCH  14  24
ENDBRANCH  10  14
ENDBRANCH   1  11
BRANCH   3  25
ATOM     25  C   UNL     1      -3.007  10.579  17.993  0.00  0.00    +0.000 C 
ATOM     26  O   UNL     1      -3.496   9.494  17.676  0.00  0.00    +0.000 OA
ATOM     27  N   UNL     1      -3.801  11.700  18.070  0.00  0.00    +0.000 N 
ATOM     28  H   UNL     1      -3.459  12.585  18.411  0.00  0.00    +0.000 HD
BRANCH  27  29
ATOM     29  C   UNL     1      -5.249  11.563  17.910  0.00  0.00    +0.000 C 
ATOM     30  C   UNL     1      -5.821  12.625  16.966  0.00  0.00    +0.000 C 
BRANCH  29  31
ATOM     31  C   UNL     1      -5.986  11.605  19.236  0.00  0.00    +0.000 A 
ATOM     32  C   UNL     1      -5.410  12.253  20.330  0.00  0.00    +0.000 A 
ATOM     33  N   UNL     1      -5.991  12.299  21.551  0.00  0.00    +0.000 NA
ATOM     34  C   UNL     1      -7.177  11.661  21.648  0.00  0.00    +0.000 A 
ATOM     35  C   UNL     1      -7.755  11.005  20.574  0.00  0.00    +0.000 A 
ATOM     36  N   UNL     1      -7.182  10.963  19.346  0.00  0.00    +0.000 NA
ENDBRANCH  29  31
ENDBRANCH  27  29
ENDBRANCH   3  25
TORSDOF 7
ENDMDL
MODEL 9
REMARK VINA RESULT:      -7.8      4.165      5.820
REMARK  Name = 
REMARK  9 active torsions:
REMARK  status: ('A' for Active; 'I' for Inactive)
REMARK    1  A    between atoms: C_1  and  C_2
REMARK    2  A    between atoms: C_2  and  C_3
REMARK    3  A    between atoms: C_3  and  N_4
REMARK    4  A    between atoms: C_3  and  C_27
REMARK    5  A    between atoms: C_5  and  C_7
REMARK    6  A    between atoms: C_9  and  C_10
REMARK    7  A    between atoms: N_12  and  C_13
REMARK    8  A    between atoms: C_13  and  C_14
REMARK    9  A    between atoms: C_13  and  C_15
REMARK                            x       y       z     vdW  Elec       q    Type
REMARK                         _______ _______ _______ _____ _____    ______ ____
ROOT
ATOM      1  C   UNL     1       1.589   7.117  20.379  0.00  0.00    +0.000 A 
ATOM      2  C   UNL     1       0.974   7.679  21.482  0.00  0.00    +0.000 A 
ATOM      3  C   UNL     1       0.749   9.083  21.267  0.00  0.00    +0.000 A 
ATOM      4  C   UNL     1       1.188   9.332  19.968  0.00  0.00    +0.000 A 
ATOM      5  N   UNL     1       1.742   8.150  19.488  0.00  0.00    +0.000 N 
ATOM      6  C   UNL     1       2.440   8.060  18.212  0.00  0.00    +0.000 C 
ATOM      7  C   UNL     1       2.155   9.271  17.338  0.00  0.00    +0.000 C 
ATOM      8  O   UNL     1       2.202  10.465  18.121  0.00  0.00    +0.000 OA
ATOM      9  C   UNL     1       1.123  10.521  19.066  0.00  0.00    +0.000 C 
ENDROOT
BRANCH   1  11
ATOM     10  N   UNL     1       3.156   5.636  19.372  0.00  0.00    +0.000 N 
ATOM     11  C   UNL     1       2.051   5.752  20.187  0.00  0.00    +0.000 C 
ATOM     12  O   UNL     1       1.516   4.782  20.714  0.00  0.00    +0.000 OA
ATOM     13  H   UNL     1       3.632   6.477  19.078  0.00  0.00    +0.000 HD
BRANCH  10  14
ATOM     14  C   UNL     1       3.745   4.357  19.018  0.00  0.00    +0.000 C 
BRANCH  14  15
ATOM     15  C   UNL     1       4.764   4.538  17.892  0.00  0.00    +0.000 A 
ATOM     16  C   UNL     1       4.357   4.231  16.576  0.00  0.00    +0.000 A 
ATOM     17  C   UNL     1       5.252   4.305  15.506  0.00  0.00    +0.000 A 
ATOM     18  C   UNL     1       6.567   4.679  15.740  0.00  0.00    +0.000 A 
ATOM     19  F   UNL     1       7.433   4.724  14.720  0.00  0.00    +0.000 F 
ATOM     20  C   UNL     1       6.993   5.023  17.013  0.00  0.00    +0.000 A 
ATOM     21  C   UNL     1       6.091   4.979  18.081  0.00  0.00    +0.000 A 
ATOM     22 CL   UNL     1       6.682   5.549  19.603  0.00  0.00    +0.000 Cl
ENDBRANCH  14  15
BRANCH  14  24
ATOM     23  C   UNL     1       4.446   2.079  20.019  0.00  0.00    +0.000 C 
ATOM     24  C   UNL     1       4.353   3.586  20.212  0.00  0.00    +0.000 C 
ENDBRANCH  14  24
ENDBRANCH  10  14
ENDBRANCH   1  11
BRANCH   3  25
ATOM     25  C   UNL     1       0.149   9.907  22.327  0.00  0.00    +0.000 C 
ATOM     26  O   UNL     1       0.473   9.719  23.499  0.00  0.00    +0.000 OA
ATOM     27  N   UNL     1      -0.716  10.927  22.003  0.00  0.00    +0.000 N 
ATOM     28  H   UNL     1      -0.935  11.171  21.050  0.00  0.00    +0.000 HD
BRANCH  27  29
ATOM     29  C   UNL     1      -1.132  11.869  23.044  0.00  0.00    +0.000 C 
ATOM     30  C   UNL     1      -2.648  11.839  23.264  0.00  0.00    +0.000 C 
BRANCH  29  31
ATOM     31  C   UNL     1      -0.684  13.289  22.755  0.00  0.00    +0.000 A 
ATOM     32  C   UNL     1       0.029  13.568  21.589  0.00  0.00    +0.000 A 
ATOM     33  N   UNL     1       0.493  14.803  21.284  0.00  0.00    +0.000 NA
ATOM     34  C   UNL     1       0.225  15.759  22.199  0.00  0.00    +0.000 A 
ATOM     35  C   UNL     1      -0.472  15.494  23.366  0.00  0.00    +0.000 A 
ATOM     36  N   UNL     1      -0.946  14.261  23.672  0.00  0.00    +0.000 NA
ENDBRANCH  29  31
ENDBRANCH  27  29
ENDBRANCH   3  25
TORSDOF 7
ENDMDL
