MODEL 1
REMARK VINA RESULT:      -7.5      0.000      0.000
REMARK  Name = 
REMARK  5 active torsions:
REMARK  status: ('A' for Active; 'I' for Inactive)
REMARK    1  A    between atoms: C_1  and  C_2
REMARK    2  A    between atoms: C_4  and  C_5
REMARK    3  A    between atoms: C_5  and  C_6
REMARK    4  A    between atoms: C_12  and  O_13
REMARK    5  A    between atoms: C_22  and  O_23
REMARK                            x       y       z     vdW  Elec       q    Type
REMARK                         _______ _______ _______ _____ _____    ______ ____
ROOT
ATOM      1  C   UNL     1       2.327   3.543  17.579  0.00  0.00    +0.000 C 
ATOM      2  C   UNL     1       3.561   4.181  18.267  0.00  0.00    +0.000 C 
ATOM      3  C   UNL     1       3.380   4.232  19.795  0.00  0.00    +0.000 C 
ATOM      4  C   UNL     1       2.365   5.308  20.288  0.00  0.00    +0.000 C 
ATOM      5  C   UNL     1       2.711   6.715  19.675  0.00  0.00    +0.000 C 
ATOM      6  C   UNL     1       1.809   7.868  20.118  0.00  0.00    +0.000 A 
ATOM      7  C   UNL     1       1.318   7.934  21.436  0.00  0.00    +0.000 A 
ATOM      8  C   UNL     1       0.393   8.908  21.816  0.00  0.00    +0.000 A 
ATOM      9  C   UNL     1      -0.014   9.855  20.891  0.00  0.00    +0.000 A 
ATOM     10  C   UNL     1       0.542   9.883  19.619  0.00  0.00    +0.000 A 
ATOM     11  C   UNL     1       1.474   8.906  19.228  0.00  0.00    +0.000 A 
ATOM     12  C   UNL     1       2.048   8.996  17.836  0.00  0.00    +0.000 C 
ATOM     13  C   UNL     1       3.199   8.027  17.580  0.00  0.00    +0.000 C 
ATOM     14  C   UNL     1       2.847   6.638  18.118  0.00  0.00    +0.000 C 
ATOM     15  C   UNL     1       3.916   5.598  17.772  0.00  0.00    +0.000 C 
ATOM     16  C   UNL     1       4.321   5.359  16.319  0.00  0.00    +0.000 C 
ATOM     17  C   UNL     1       5.063   4.006  16.366  0.00  0.00    +0.000 C 
ATOM     18  C   UNL     1       4.837   3.448  17.791  0.00  0.00    +0.000 C 
ENDROOT
BRANCH   9  19
ATOM     19  O   UNL     1      -0.967  10.782  21.194  0.00  0.00    +0.000 OA
ATOM     20  H   UNL     1      -1.181  11.272  20.382  0.00  0.00    +0.000 HD
ENDBRANCH   9  19
BRANCH  18  21
ATOM     21  O   UNL     1       4.736   2.038  17.822  0.00  0.00    +0.000 OA
ATOM     22  H   UNL     1       5.100   1.712  18.662  0.00  0.00    +0.000 HD
ENDBRANCH  18  21
BRANCH   4  23
ATOM     23  C   UNL     1       0.871   4.926  20.110  0.00  0.00    +0.000 C 
BRANCH  23  24
ATOM     24  C   UNL     1       0.570   3.450  20.315  0.00  0.00    +0.000 C 
ATOM     25  F   UNL     1       0.969   3.089  21.564  0.00  0.00    +0.000 F 
ENDBRANCH  23  24
ENDBRANCH   4  23
TORSDOF 4
ENDMDL
MODEL 2
REMARK VINA RESULT:      -7.4      3.843      5.330
REMARK  Name = 
REMARK  5 active torsions:
REMARK  status: ('A' for Active; 'I' for Inactive)
REMARK    1  A    between atoms: C_1  and  C_2
REMARK    2  A    between atoms: C_4  and  C_5
REMARK    3  A    between atoms: C_5  and  C_6
REMARK    4  A    between atoms: C_12  and  O_13
REMARK    5  A    between atoms: C_22  and  O_23
REMARK                            x       y       z     vdW  Elec       q    Type
REMARK                         _______ _______ _______ _____ _____    ______ ____
ROOT
ATOM      1  C   UNL     1       7.487   4.187  16.512  0.00  0.00    +0.000 C 
ATOM      2  C   UNL     1       6.308   5.026  15.957  0.00  0.00    +0.000 C 
ATOM      3  C   UNL     1       5.932   6.163  16.925  0.00  0.00    +0.000 C 
ATOM      4  C   UNL     1       5.185   5.694  18.211  0.00  0.00    +0.000 C 
ATOM      5  C   UNL     1       3.953   4.791  17.834  0.00  0.00    +0.000 C 
ATOM      6  C   UNL     1       3.110   4.300  19.012  0.00  0.00    +0.000 A 
ATOM      7  C   UNL     1       2.881   5.126  20.129  0.00  0.00    +0.000 A 
ATOM      8  C   UNL     1       2.224   4.645  21.263  0.00  0.00    +0.000 A 
ATOM      9  C   UNL     1       1.748   3.344  21.272  0.00  0.00    +0.000 A 
ATOM     10  C   UNL     1       1.857   2.546  20.140  0.00  0.00    +0.000 A 
ATOM     11  C   UNL     1       2.517   3.023  18.994  0.00  0.00    +0.000 A 
ATOM     12  C   UNL     1       2.596   2.111  17.795  0.00  0.00    +0.000 C 
ATOM     13  C   UNL     1       3.138   2.788  16.540  0.00  0.00    +0.000 C 
ATOM     14  C   UNL     1       4.375   3.621  16.884  0.00  0.00    +0.000 C 
ATOM     15  C   UNL     1       5.033   4.219  15.638  0.00  0.00    +0.000 C 
ATOM     16  C   UNL     1       5.482   3.315  14.491  0.00  0.00    +0.000 C 
ATOM     17  C   UNL     1       6.435   4.212  13.673  0.00  0.00    +0.000 C 
ATOM     18  C   UNL     1       6.650   5.487  14.521  0.00  0.00    +0.000 C 
ENDROOT
BRANCH   9  19
ATOM     19  O   UNL     1       1.163   2.807  22.380  0.00  0.00    +0.000 OA
ATOM     20  H   UNL     1       0.234   3.090  22.398  0.00  0.00    +0.000 HD
ENDBRANCH   9  19
BRANCH  18  21
ATOM     21  O   UNL     1       7.950   6.028  14.384  0.00  0.00    +0.000 OA
ATOM     22  H   UNL     1       8.233   5.944  13.458  0.00  0.00    +0.000 HD
ENDBRANCH  18  21
BRANCH   4  23
ATOM     23  C   UNL     1       6.091   5.053  19.295  0.00  0.00    +0.000 C 
BRANCH  23  24
ATOM     24  C   UNL     1       7.315   5.877  19.660  0.00  0.00    +0.000 C 
ATOM     25  F   UNL     1       8.432   5.170  19.343  0.00  0.00    +0.000 F 
ENDBRANCH  23  24
ENDBRANCH   4  23
TORSDOF 4
ENDMDL
MODEL 3
REMARK VINA RESULT:      -7.2      2.221      3.764
REMARK  Name = 
REMARK  5 active torsions:
REMARK  status: ('A' for Active; 'I' for Inactive)
REMARK    1  A    between atoms: C_1  and  C_2
REMARK    2  A    between atoms: C_4  and  C_5
REMARK    3  A    between atoms: C_5  and  C_6
REMARK    4  A    between atoms: C_12  and  O_13
REMARK    5  A    between atoms: C_22  and  O_23
REMARK                            x       y       z     vdW  Elec       q    Type
REMARK                         _______ _______ _______ _____ _____    ______ ____
ROOT
ATOM      1  C   UNL     1       4.943   4.089  19.346  0.00  0.00    +0.000 C 
ATOM      2  C   UNL     1       3.524   3.861  18.765  0.00  0.00    +0.000 C 
ATOM      3  C   UNL     1       3.354   4.580  17.415  0.00  0.00    +0.000 C 
ATOM      4  C   UNL     1       3.220   6.130  17.522  0.00  0.00    +0.000 C 
ATOM      5  C   UNL     1       2.098   6.516  18.556  0.00  0.00    +0.000 C 
ATOM      6  C   UNL     1       1.840   8.013  18.722  0.00  0.00    +0.000 A 
ATOM      7  C   UNL     1       1.909   8.884  17.617  0.00  0.00    +0.000 A 
ATOM      8  C   UNL     1       1.803  10.267  17.777  0.00  0.00    +0.000 A 
ATOM      9  C   UNL     1       1.579  10.789  19.040  0.00  0.00    +0.000 A 
ATOM     10  C   UNL     1       1.390   9.947  20.128  0.00  0.00    +0.000 A 
ATOM     11  C   UNL     1       1.495   8.554  19.976  0.00  0.00    +0.000 A 
ATOM     12  C   UNL     1       1.271   7.692  21.194  0.00  0.00    +0.000 C 
ATOM     13  C   UNL     1       1.196   6.199  20.888  0.00  0.00    +0.000 C 
ATOM     14  C   UNL     1       2.322   5.801  19.930  0.00  0.00    +0.000 C 
ATOM     15  C   UNL     1       2.369   4.289  19.692  0.00  0.00    +0.000 C 
ATOM     16  C   UNL     1       2.502   3.325  20.869  0.00  0.00    +0.000 C 
ATOM     17  C   UNL     1       2.929   1.998  20.205  0.00  0.00    +0.000 C 
ATOM     18  C   UNL     1       3.234   2.342  18.729  0.00  0.00    +0.000 C 
ENDROOT
BRANCH   9  19
ATOM     19  O   UNL     1       1.538  12.134  19.257  0.00  0.00    +0.000 OA
ATOM     20  H   UNL     1       1.333  12.283  20.195  0.00  0.00    +0.000 HD
ENDBRANCH   9  19
BRANCH  18  21
ATOM     21  O   UNL     1       4.287   1.567  18.188  0.00  0.00    +0.000 OA
ATOM     22  H   UNL     1       5.050   2.144  18.019  0.00  0.00    +0.000 HD
ENDBRANCH  18  21
BRANCH   4  23
ATOM     23  C   UNL     1       4.553   6.885  17.773  0.00  0.00    +0.000 C 
BRANCH  23  24
ATOM     24  C   UNL     1       5.576   6.741  16.659  0.00  0.00    +0.000 C 
ATOM     25  F   UNL     1       4.950   6.900  15.463  0.00  0.00    +0.000 F 
ENDBRANCH  23  24
ENDBRANCH   4  23
TORSDOF 4
ENDMDL
MODEL 4
REMARK VINA RESULT:      -7.0     10.033     12.217
REMARK  Name = 
REMARK  5 active torsions:
REMARK  status: ('A' for Active; 'I' for Inactive)
REMARK    1  A    between atoms: C_1  and  C_2
REMARK    2  A    between atoms: C_4  and  C_5
REMARK    3  A    between atoms: C_5  and  C_6
REMARK    4  A    between atoms: C_12  and  O_13
REMARK    5  A    between atoms: C_22  and  O_23
REMARK                            x       y       z     vdW  Elec       q    Type
REMARK                         _______ _______ _______ _____ _____    ______ ____
ROOT
ATOM      1  C   UNL     1       7.000  14.459  22.466  0.00  0.00    +0.000 C 
ATOM      2  C   UNL     1       8.309  13.952  23.124  0.00  0.00    +0.000 C 
ATOM      3  C   UNL     1       9.473  14.926  22.867  0.00  0.00    +0.000 C 
ATOM      4  C   UNL     1      10.024  14.901  21.408  0.00  0.00    +0.000 C 
ATOM      5  C   UNL     1      10.363  13.428  20.972  0.00  0.00    +0.000 C 
ATOM      6  C   UNL     1      10.953  13.274  19.570  0.00  0.00    +0.000 A 
ATOM      7  C   UNL     1      11.846  14.233  19.054  0.00  0.00    +0.000 A 
ATOM      8  C   UNL     1      12.290  14.172  17.732  0.00  0.00    +0.000 A 
ATOM      9  C   UNL     1      11.880  13.123  16.926  0.00  0.00    +0.000 A 
ATOM     10  C   UNL     1      11.094  12.102  17.443  0.00  0.00    +0.000 A 
ATOM     11  C   UNL     1      10.643  12.155  18.773  0.00  0.00    +0.000 A 
ATOM     12  C   UNL     1       9.798  11.011  19.278  0.00  0.00    +0.000 C 
ATOM     13  C   UNL     1       9.537  11.054  20.781  0.00  0.00    +0.000 C 
ATOM     14  C   UNL     1       9.147  12.472  21.207  0.00  0.00    +0.000 C 
ATOM     15  C   UNL     1       8.749  12.541  22.684  0.00  0.00    +0.000 C 
ATOM     16  C   UNL     1       7.633  11.651  23.227  0.00  0.00    +0.000 C 
ATOM     17  C   UNL     1       7.272  12.306  24.578  0.00  0.00    +0.000 C 
ATOM     18  C   UNL     1       8.037  13.649  24.616  0.00  0.00    +0.000 C 
ENDROOT
BRANCH   9  19
ATOM     19  O   UNL     1      12.230  13.058  15.610  0.00  0.00    +0.000 OA
ATOM     20  H   UNL     1      12.525  13.941  15.331  0.00  0.00    +0.000 HD
ENDBRANCH   9  19
BRANCH  18  21
ATOM     21  O   UNL     1       7.327  14.670  25.291  0.00  0.00    +0.000 OA
ATOM     22  H   UNL     1       6.590  14.967  24.731  0.00  0.00    +0.000 HD
ENDBRANCH  18  21
BRANCH   4  23
ATOM     23  C   UNL     1       9.149  15.650  20.367  0.00  0.00    +0.000 C 
BRANCH  23  24
ATOM     24  C   UNL     1       9.727  16.975  19.897  0.00  0.00    +0.000 C 
ATOM     25  F   UNL     1       9.996  16.891  18.567  0.00  0.00    +0.000 F 
ENDBRANCH  23  24
ENDBRANCH   4  23
TORSDOF 4
ENDMDL
MODEL 5
REMARK VINA RESULT:      -6.6      3.527      8.365
REMARK  Name = 
REMARK  5 active torsions:
REMARK  status: ('A' for Active; 'I' for Inactive)
REMARK    1  A    between atoms: C_1  and  C_2
REMARK    2  A    between atoms: C_4  and  C_5
REMARK    3  A    between atoms: C_5  and  C_6
REMARK    4  A    between atoms: C_12  and  O_13
REMARK    5  A    between atoms: C_22  and  O_23
REMARK                            x       y       z     vdW  Elec       q    Type
REMARK                         _______ _______ _______ _____ _____    ______ ____
ROOT
ATOM      1  C   UNL     1      -3.364  11.903  20.046  0.00  0.00    +0.000 C 
ATOM      2  C   UNL     1      -2.059  12.710  20.268  0.00  0.00    +0.000 C 
ATOM      3  C   UNL     1      -1.245  12.818  18.966  0.00  0.00    +0.000 C 
ATOM      4  C   UNL     1      -0.531  11.499  18.541  0.00  0.00    +0.000 C 
ATOM      5  C   UNL     1       0.316  10.921  19.734  0.00  0.00    +0.000 C 
ATOM      6  C   UNL     1       1.101   9.645  19.430  0.00  0.00    +0.000 A 
ATOM      7  C   UNL     1       1.699   9.450  18.170  0.00  0.00    +0.000 A 
ATOM      8  C   UNL     1       2.307   8.238  17.836  0.00  0.00    +0.000 A 
ATOM      9  C   UNL     1       2.363   7.225  18.779  0.00  0.00    +0.000 A 
ATOM     10  C   UNL     1       1.885   7.432  20.067  0.00  0.00    +0.000 A 
ATOM     11  C   UNL     1       1.272   8.649  20.410  0.00  0.00    +0.000 A 
ATOM     12  C   UNL     1       0.780   8.816  21.827  0.00  0.00    +0.000 C 
ATOM     13  C   UNL     1       0.326  10.234  22.159  0.00  0.00    +0.000 C 
ATOM     14  C   UNL     1      -0.550  10.784  21.031  0.00  0.00    +0.000 C 
ATOM     15  C   UNL     1      -1.137  12.156  21.373  0.00  0.00    +0.000 C 
ATOM     16  C   UNL     1      -1.970  12.347  22.639  0.00  0.00    +0.000 C 
ATOM     17  C   UNL     1      -2.695  13.689  22.398  0.00  0.00    +0.000 C 
ATOM     18  C   UNL     1      -2.412  14.065  20.925  0.00  0.00    +0.000 C 
ENDROOT
BRANCH   9  19
ATOM     19  O   UNL     1       2.883   6.001  18.479  0.00  0.00    +0.000 OA
ATOM     20  H   UNL     1       3.645   5.844  19.061  0.00  0.00    +0.000 HD
ENDBRANCH   9  19
BRANCH  18  21
ATOM     21  O   UNL     1      -3.492  14.740  20.310  0.00  0.00    +0.000 OA
ATOM     22  H   UNL     1      -4.318  14.274  20.522  0.00  0.00    +0.000 HD
ENDBRANCH  18  21
BRANCH   4  23
ATOM     23  C   UNL     1      -1.456  10.436  17.890  0.00  0.00    +0.000 C 
BRANCH  23  24
ATOM     24  C   UNL     1      -2.301  10.957  16.739  0.00  0.00    +0.000 C 
ATOM     25  F   UNL     1      -3.570  10.490  16.879  0.00  0.00    +0.000 F 
ENDBRANCH  23  24
ENDBRANCH   4  23
TORSDOF 4
ENDMDL
MODEL 6
REMARK VINA RESULT:      -6.2      3.860      8.823
REMARK  Name = 
REMARK  5 active torsions:
REMARK  status: ('A' for Active; 'I' for Inactive)
REMARK    1  A    between atoms: C_1  and  C_2
REMARK    2  A    between atoms: C_4  and  C_5
REMARK    3  A    between atoms: C_5  and  C_6
REMARK    4  A    between atoms: C_12  and  O_13
REMARK    5  A    between atoms: C_22  and  O_23
REMARK                            x       y       z     vdW  Elec       q    Type
REMARK                         _______ _______ _______ _____ _____    ______ ____
ROOT
ATOM      1  C   UNL     1      -3.984  12.265  20.528  0.00  0.00    +0.000 C 
ATOM      2  C   UNL     1      -2.714  13.075  20.892  0.00  0.00    +0.000 C 
ATOM      3  C   UNL     1      -1.778  13.217  19.678  0.00  0.00    +0.000 C 
ATOM      4  C   UNL     1      -1.014  11.912  19.297  0.00  0.00    +0.000 C 
ATOM      5  C   UNL     1      -0.283  11.314  20.556  0.00  0.00    +0.000 C 
ATOM      6  C   UNL     1       0.539  10.050  20.303  0.00  0.00    +0.000 A 
ATOM      7  C   UNL     1       1.259   9.885  19.104  0.00  0.00    +0.000 A 
ATOM      8  C   UNL     1       1.907   8.685  18.807  0.00  0.00    +0.000 A 
ATOM      9  C   UNL     1       1.880   7.652  19.730  0.00  0.00    +0.000 A 
ATOM     10  C   UNL     1       1.277   7.829  20.968  0.00  0.00    +0.000 A 
ATOM     11  C   UNL     1       0.623   9.035  21.275  0.00  0.00    +0.000 A 
ATOM     12  C   UNL     1      -0.006   9.168  22.641  0.00  0.00    +0.000 C 
ATOM     13  C   UNL     1      -0.502  10.576  22.956  0.00  0.00    +0.000 C 
ATOM     14  C   UNL     1      -1.269  11.144  21.759  0.00  0.00    +0.000 C 
ATOM     15  C   UNL     1      -1.898  12.505  22.070  0.00  0.00    +0.000 C 
ATOM     16  C   UNL     1      -2.852  12.663  23.253  0.00  0.00    +0.000 C 
ATOM     17  C   UNL     1      -3.561  14.005  22.970  0.00  0.00    +0.000 C 
ATOM     18  C   UNL     1      -3.140  14.415  21.539  0.00  0.00    +0.000 C 
ENDROOT
BRANCH   9  19
ATOM     19  O   UNL     1       2.436   6.438  19.456  0.00  0.00    +0.000 OA
ATOM     20  H   UNL     1       3.005   6.191  20.204  0.00  0.00    +0.000 HD
ENDBRANCH   9  19
BRANCH  18  21
ATOM     21  O   UNL     1      -4.161  15.094  20.836  0.00  0.00    +0.000 OA
ATOM     22  H   UNL     1      -4.324  15.952  21.263  0.00  0.00    +0.000 HD
ENDBRANCH  18  21
BRANCH   4  23
ATOM     23  C   UNL     1      -1.863  10.856  18.538  0.00  0.00    +0.000 C 
BRANCH  23  24
ATOM     24  C   UNL     1      -2.196  11.231  17.104  0.00  0.00    +0.000 C 
ATOM     25  F   UNL     1      -1.960  10.159  16.302  0.00  0.00    +0.000 F 
ENDBRANCH  23  24
ENDBRANCH   4  23
TORSDOF 4
ENDMDL
MODEL 7
REMARK VINA RESULT:      -6.2      7.314      9.911
REMARK  Name = 
REMARK  5 active torsions:
REMARK  status: ('A' for Active; 'I' for Inactive)
REMARK    1  A    between atoms: C_1  and  C_2
REMARK    2  A    between atoms: C_4  and  C_5
REMARK    3  A    between atoms: C_5  and  C_6
REMARK    4  A    between atoms: C_12  and  O_13
REMARK    5  A    between atoms: C_22  and  O_23
REMARK                            x       y       z     vdW  Elec       q    Type
REMARK                         _______ _______ _______ _____ _____    ______ ____
ROOT
ATOM      1  C   UNL     1      -1.426  15.058  21.237  0.00  0.00    +0.000 C 
ATOM      2  C   UNL     1      -1.689  13.662  21.859  0.00  0.00    +0.000 C 
ATOM      3  C   UNL     1      -0.704  12.615  21.309  0.00  0.00    +0.000 C 
ATOM      4  C   UNL     1      -0.983  12.175  19.840  0.00  0.00    +0.000 C 
ATOM      5  C   UNL     1      -2.485  11.736  19.672  0.00  0.00    +0.000 C 
ATOM      6  C   UNL     1      -2.877  11.241  18.280  0.00  0.00    +0.000 A 
ATOM      7  C   UNL     1      -1.979  10.480  17.506  0.00  0.00    +0.000 A 
ATOM      8  C   UNL     1      -2.274  10.133  16.186  0.00  0.00    +0.000 A 
ATOM      9  C   UNL     1      -3.493  10.504  15.643  0.00  0.00    +0.000 A 
ATOM     10  C   UNL     1      -4.443  11.153  16.421  0.00  0.00    +0.000 A 
ATOM     11  C   UNL     1      -4.154  11.506  17.751  0.00  0.00    +0.000 A 
ATOM     12  C   UNL     1      -5.231  12.201  18.546  0.00  0.00    +0.000 C 
ATOM     13  C   UNL     1      -4.903  12.352  20.028  0.00  0.00    +0.000 C 
ATOM     14  C   UNL     1      -3.462  12.838  20.201  0.00  0.00    +0.000 C 
ATOM     15  C   UNL     1      -3.123  13.128  21.666  0.00  0.00    +0.000 C 
ATOM     16  C   UNL     1      -3.965  14.114  22.474  0.00  0.00    +0.000 C 
ATOM     17  C   UNL     1      -3.078  14.432  23.697  0.00  0.00    +0.000 C 
ATOM     18  C   UNL     1      -1.701  13.793  23.400  0.00  0.00    +0.000 C 
ENDROOT
BRANCH   9  19
ATOM     19  O   UNL     1      -3.798  10.250  14.339  0.00  0.00    +0.000 OA
ATOM     20  H   UNL     1      -3.983   9.300  14.252  0.00  0.00    +0.000 HD
ENDBRANCH   9  19
BRANCH  18  21
ATOM     21  O   UNL     1      -0.621  14.541  23.923  0.00  0.00    +0.000 OA
ATOM     22  H   UNL     1      -0.970  15.241  24.500  0.00  0.00    +0.000 HD
ENDBRANCH  18  21
BRANCH   4  23
ATOM     23  C   UNL     1      -0.530  13.190  18.757  0.00  0.00    +0.000 C 
BRANCH  23  24
ATOM     24  C   UNL     1       0.977  13.312  18.601  0.00  0.00    +0.000 C 
ATOM     25  F   UNL     1       1.339  14.604  18.818  0.00  0.00    +0.000 F 
ENDBRANCH  23  24
ENDBRANCH   4  23
TORSDOF 4
ENDMDL
MODEL 8
REMARK VINA RESULT:      -6.0      2.981      6.213
REMARK  Name = 
REMARK  5 active torsions:
REMARK  status: ('A' for Active; 'I' for Inactive)
REMARK    1  A    between atoms: C_1  and  C_2
REMARK    2  A    between atoms: C_4  and  C_5
REMARK    3  A    between atoms: C_5  and  C_6
REMARK    4  A    between atoms: C_12  and  O_13
REMARK    5  A    between atoms: C_22  and  O_23
REMARK                            x       y       z     vdW  Elec       q    Type
REMARK                         _______ _______ _______ _____ _____    ______ ____
ROOT
ATOM      1  C   UNL     1       3.214   3.346  20.442  0.00  0.00    +0.000 C 
ATOM      2  C   UNL     1       2.217   3.928  19.408  0.00  0.00    +0.000 C 
ATOM      3  C   UNL     1       2.132   3.036  18.156  0.00  0.00    +0.000 C 
ATOM      4  C   UNL     1       3.376   3.117  17.221  0.00  0.00    +0.000 C 
ATOM      5  C   UNL     1       3.707   4.615  16.871  0.00  0.00    +0.000 C 
ATOM      6  C   UNL     1       4.887   4.826  15.922  0.00  0.00    +0.000 A 
ATOM      7  C   UNL     1       5.126   3.936  14.858  0.00  0.00    +0.000 A 
ATOM      8  C   UNL     1       6.270   4.043  14.066  0.00  0.00    +0.000 A 
ATOM      9  C   UNL     1       7.164   5.075  14.301  0.00  0.00    +0.000 A 
ATOM     10  C   UNL     1       6.894   6.035  15.268  0.00  0.00    +0.000 A 
ATOM     11  C   UNL     1       5.744   5.934  16.070  0.00  0.00    +0.000 A 
ATOM     12  C   UNL     1       5.503   7.013  17.096  0.00  0.00    +0.000 C 
ATOM     13  C   UNL     1       4.134   6.932  17.766  0.00  0.00    +0.000 C 
ATOM     14  C   UNL     1       3.829   5.486  18.165  0.00  0.00    +0.000 C 
ATOM     15  C   UNL     1       2.523   5.370  18.956  0.00  0.00    +0.000 C 
ATOM     16  C   UNL     1       2.320   6.178  20.237  0.00  0.00    +0.000 C 
ATOM     17  C   UNL     1       1.122   5.482  20.919  0.00  0.00    +0.000 C 
ATOM     18  C   UNL     1       0.863   4.191  20.108  0.00  0.00    +0.000 C 
ENDROOT
BRANCH   9  19
ATOM     19  O   UNL     1       8.329   5.181  13.601  0.00  0.00    +0.000 OA
ATOM     20  H   UNL     1       8.226   4.691  12.768  0.00  0.00    +0.000 HD
ENDBRANCH   9  19
BRANCH  18  21
ATOM     21  O   UNL     1       0.411   3.117  20.910  0.00  0.00    +0.000 OA
ATOM     22  H   UNL     1      -0.188   3.462  21.593  0.00  0.00    +0.000 HD
ENDBRANCH  18  21
BRANCH   4  23
ATOM     23  C   UNL     1       4.618   2.327  17.715  0.00  0.00    +0.000 C 
BRANCH  23  24
ATOM     24  C   UNL     1       4.298   0.978  18.338  0.00  0.00    +0.000 C 
ATOM     25  F   UNL     1       4.926   0.888  19.540  0.00  0.00    +0.000 F 
ENDBRANCH  23  24
ENDBRANCH   4  23
TORSDOF 4
ENDMDL
MODEL 9
REMARK VINA RESULT:      -6.0      9.521     11.714
REMARK  Name = 
REMARK  5 active torsions:
REMARK  status: ('A' for Active; 'I' for Inactive)
REMARK    1  A    between atoms: C_1  and  C_2
REMARK    2  A    between atoms: C_4  and  C_5
REMARK    3  A    between atoms: C_5  and  C_6
REMARK    4  A    between atoms: C_12  and  O_13
REMARK    5  A    between atoms: C_22  and  O_23
REMARK                            x       y       z     vdW  Elec       q    Type
REMARK                         _______ _______ _______ _____ _____    ______ ____
ROOT
ATOM      1  C   UNL     1       5.954  13.552  22.699  0.00  0.00    +0.000 C 
ATOM      2  C   UNL     1       7.349  13.814  23.322  0.00  0.00    +0.000 C 
ATOM      3  C   UNL     1       7.917  15.168  22.860  0.00  0.00    +0.000 C 
ATOM      4  C   UNL     1       8.411  15.189  21.381  0.00  0.00    +0.000 C 
ATOM      5  C   UNL     1       9.402  13.996  21.114  0.00  0.00    +0.000 C 
ATOM      6  C   UNL     1       9.991  13.931  19.704  0.00  0.00    +0.000 A 
ATOM      7  C   UNL     1      10.327  15.108  19.008  0.00  0.00    +0.000 A 
ATOM      8  C   UNL     1      10.744  15.068  17.676  0.00  0.00    +0.000 A 
ATOM      9  C   UNL     1      10.874  13.844  17.042  0.00  0.00    +0.000 A 
ATOM     10  C   UNL     1      10.661  12.662  17.740  0.00  0.00    +0.000 A 
ATOM     11  C   UNL     1      10.242  12.694  19.082  0.00  0.00    +0.000 A 
ATOM     12  C   UNL     1      10.036  11.376  19.787  0.00  0.00    +0.000 C 
ATOM     13  C   UNL     1       9.789  11.512  21.287  0.00  0.00    +0.000 C 
ATOM     14  C   UNL     1       8.779  12.630  21.555  0.00  0.00    +0.000 C 
ATOM     15  C   UNL     1       8.400  12.722  23.035  0.00  0.00    +0.000 C 
ATOM     16  C   UNL     1       7.835  11.506  23.766  0.00  0.00    +0.000 C 
ATOM     17  C   UNL     1       7.211  12.107  25.044  0.00  0.00    +0.000 C 
ATOM     18  C   UNL     1       7.255  13.641  24.856  0.00  0.00    +0.000 C 
ENDROOT
BRANCH   9  19
ATOM     19  O   UNL     1      11.209  13.757  15.724  0.00  0.00    +0.000 OA
ATOM     20  H   UNL     1      10.409  13.923  15.197  0.00  0.00    +0.000 HD
ENDBRANCH   9  19
BRANCH  18  21
ATOM     21  O   UNL     1       6.150  14.301  25.444  0.00  0.00    +0.000 OA
ATOM     22  H   UNL     1       6.026  13.968  26.348  0.00  0.00    +0.000 HD
ENDBRANCH  18  21
BRANCH   4  23
ATOM     23  C   UNL     1       7.284  15.284  20.318  0.00  0.00    +0.000 C 
BRANCH  23  24
ATOM     24  C   UNL     1       6.988  16.696  19.840  0.00  0.00    +0.000 C 
ATOM     25  F   UNL     1       7.575  16.883  18.629  0.00  0.00    +0.000 F 
ENDBRANCH  23  24
ENDBRANCH   4  23
TORSDOF 4
ENDMDL
