MODEL 1
REMARK VINA RESULT:      -9.4      0.000      0.000
REMARK  Name = 
REMARK  10 active torsions:
REMARK  status: ('A' for Active; 'I' for Inactive)
REMARK    1  A    between atoms: N_1  and  C_2
REMARK    2  A    between atoms: C_7  and  N_8
REMARK    3  A    between atoms: C_9  and  C_11
REMARK    4  A    between atoms: C_11  and  C_12
REMARK    5  A    between atoms: C_12  and  C_13
REMARK    6  A    between atoms: C_13  and  C_14
REMARK    7  A    between atoms: C_14  and  C_15
REMARK    8  A    between atoms: C_15  and  C_16
REMARK    9  A    between atoms: C_18  and  C_19
REMARK   10  A    between atoms: C_22  and  C_23
REMARK                            x       y       z     vdW  Elec       q    Type
REMARK                         _______ _______ _______ _____ _____    ______ ____
ROOT
ATOM      1  C   UNL     1       2.191   6.253  20.013  0.00  0.00    +0.000 A 
ATOM      2  N   UNL     1       1.562   7.135  20.720  0.00  0.00    +0.000 NA
ATOM      3  C   UNL     1       1.381   8.372  20.156  0.00  0.00    +0.000 A 
ATOM      4  C   UNL     1       1.843   8.739  18.954  0.00  0.00    +0.000 A 
ATOM      5  C   UNL     1       2.574   7.734  18.180  0.00  0.00    +0.000 A 
ATOM      6  O   UNL     1       3.067   7.992  17.088  0.00  0.00    +0.000 OA
ATOM      7  N   UNL     1       2.671   6.505  18.758  0.00  0.00    +0.000 N 
ATOM      8  H   UNL     1       3.164   5.801  18.229  0.00  0.00    +0.000 HD
ENDROOT
BRANCH   3   9
ATOM      9  C   UNL     1       0.580   9.346  20.908  0.00  0.00    +0.000 A 
ATOM     10  C   UNL     1       0.065  10.465  20.250  0.00  0.00    +0.000 A 
ATOM     11  C   UNL     1      -0.677  11.416  20.954  0.00  0.00    +0.000 A 
ATOM     12  C   UNL     1      -0.950  11.270  22.327  0.00  0.00    +0.000 A 
ATOM     13  C   UNL     1      -0.426  10.132  22.968  0.00  0.00    +0.000 A 
ATOM     14  C   UNL     1       0.334   9.183  22.271  0.00  0.00    +0.000 A 
BRANCH  12  15
ATOM     15  C   UNL     1      -1.757  12.279  23.053  0.00  0.00    +0.000 A 
ATOM     16  C   UNL     1      -1.247  13.563  23.325  0.00  0.00    +0.000 A 
ATOM     17  C   UNL     1      -1.983  14.509  24.044  0.00  0.00    +0.000 A 
ATOM     18  C   UNL     1      -3.264  14.200  24.492  0.00  0.00    +0.000 A 
ATOM     19  C   UNL     1      -3.804  12.948  24.220  0.00  0.00    +0.000 A 
ATOM     20  C   UNL     1      -3.057  11.998  23.514  0.00  0.00    +0.000 A 
ENDBRANCH  12  15
ENDBRANCH   3   9
BRANCH   1  21
ATOM     21  C   UNL     1       2.441   4.871  20.567  0.00  0.00    +0.000 C 
BRANCH  21  22
ATOM     22  C   UNL     1       1.147   4.090  20.784  0.00  0.00    +0.000 C 
BRANCH  22  23
ATOM     23  C   UNL     1       1.257   2.625  20.348  0.00  0.00    +0.000 C 
BRANCH  23  24
ATOM     24  C   UNL     1       1.036   2.432  18.849  0.00  0.00    +0.000 C 
BRANCH  24  25
ATOM     25  C   UNL     1       2.272   1.942  18.102  0.00  0.00    +0.000 C 
BRANCH  25  27
ATOM     26  N   UNL     1       4.378   2.968  17.450  0.00  0.00    +0.000 N 
ATOM     27  C   UNL     1       3.005   3.131  17.527  0.00  0.00    +0.000 C 
ATOM     28  O   UNL     1       2.349   4.091  17.128  0.00  0.00    +0.000 OA
ATOM     29  H   UNL     1       4.756   2.059  17.658  0.00  0.00    +0.000 HD
BRANCH  26  35
ATOM     30  C   UNL     1       6.049   4.726  17.864  0.00  0.00    +0.000 A 
ATOM     31  C   UNL     1       7.005   5.618  17.342  0.00  0.00    +0.000 A 
ATOM     32  C   UNL     1       7.163   5.796  15.968  0.00  0.00    +0.000 A 
ATOM     33  C   UNL     1       6.384   5.053  15.090  0.00  0.00    +0.000 A 
ATOM     34  C   UNL     1       5.463   4.138  15.584  0.00  0.00    +0.000 A 
ATOM     35  C   UNL     1       5.296   3.933  16.960  0.00  0.00    +0.000 A 
BRANCH  30  36
ATOM     36  N   UNL     1       6.079   4.486  19.254  0.00  0.00    +0.000 N 
ATOM     37  H   UNL     1       6.352   5.304  19.788  0.00  0.00    +0.000 HD
ATOM     38  H   UNL     1       5.265   4.040  19.648  0.00  0.00    +0.000 HD
ENDBRANCH  30  36
ENDBRANCH  26  35
ENDBRANCH  25  27
ENDBRANCH  24  25
ENDBRANCH  23  24
ENDBRANCH  22  23
ENDBRANCH  21  22
ENDBRANCH   1  21
TORSDOF 10
ENDMDL
MODEL 2
REMARK VINA RESULT:      -9.2      1.038      1.465
REMARK  Name = 
REMARK  10 active torsions:
REMARK  status: ('A' for Active; 'I' for Inactive)
REMARK    1  A    between atoms: N_1  and  C_2
REMARK    2  A    between atoms: C_7  and  N_8
REMARK    3  A    between atoms: C_9  and  C_11
REMARK    4  A    between atoms: C_11  and  C_12
REMARK    5  A    between atoms: C_12  and  C_13
REMARK    6  A    between atoms: C_13  and  C_14
REMARK    7  A    between atoms: C_14  and  C_15
REMARK    8  A    between atoms: C_15  and  C_16
REMARK    9  A    between atoms: C_18  and  C_19
REMARK   10  A    between atoms: C_22  and  C_23
REMARK                            x       y       z     vdW  Elec       q    Type
REMARK                         _______ _______ _______ _____ _____    ______ ____
ROOT
ATOM      1  C   UNL     1       1.989   6.553  20.051  0.00  0.00    +0.000 A 
ATOM      2  N   UNL     1       1.374   7.427  20.779  0.00  0.00    +0.000 NA
ATOM      3  C   UNL     1       1.177   8.668  20.229  0.00  0.00    +0.000 A 
ATOM      4  C   UNL     1       1.613   9.046  19.020  0.00  0.00    +0.000 A 
ATOM      5  C   UNL     1       2.330   8.050  18.223  0.00  0.00    +0.000 A 
ATOM      6  O   UNL     1       2.799   8.320  17.123  0.00  0.00    +0.000 OA
ATOM      7  N   UNL     1       2.442   6.817  18.788  0.00  0.00    +0.000 N 
ATOM      8  H   UNL     1       2.926   6.119  18.243  0.00  0.00    +0.000 HD
ENDROOT
BRANCH   3   9
ATOM      9  C   UNL     1       0.389   9.633  21.006  0.00  0.00    +0.000 A 
ATOM     10  C   UNL     1       0.012  10.842  20.419  0.00  0.00    +0.000 A 
ATOM     11  C   UNL     1      -0.715  11.784  21.151  0.00  0.00    +0.000 A 
ATOM     12  C   UNL     1      -1.109  11.542  22.479  0.00  0.00    +0.000 A 
ATOM     13  C   UNL     1      -0.722  10.314  23.049  0.00  0.00    +0.000 A 
ATOM     14  C   UNL     1       0.021   9.373  22.326  0.00  0.00    +0.000 A 
BRANCH  12  15
ATOM     15  C   UNL     1      -1.898  12.545  23.234  0.00  0.00    +0.000 A 
ATOM     16  C   UNL     1      -1.377  13.823  23.514  0.00  0.00    +0.000 A 
ATOM     17  C   UNL     1      -2.095  14.762  24.259  0.00  0.00    +0.000 A 
ATOM     18  C   UNL     1      -3.369  14.453  24.726  0.00  0.00    +0.000 A 
ATOM     19  C   UNL     1      -3.920  13.207  24.446  0.00  0.00    +0.000 A 
ATOM     20  C   UNL     1      -3.191  12.263  23.714  0.00  0.00    +0.000 A 
ENDBRANCH  12  15
ENDBRANCH   3   9
BRANCH   1  21
ATOM     21  C   UNL     1       2.255   5.166  20.587  0.00  0.00    +0.000 C 
BRANCH  21  22
ATOM     22  C   UNL     1       0.996   4.302  20.609  0.00  0.00    +0.000 C 
BRANCH  22  23
ATOM     23  C   UNL     1       1.217   2.915  19.995  0.00  0.00    +0.000 C 
BRANCH  23  24
ATOM     24  C   UNL     1       1.149   2.923  18.469  0.00  0.00    +0.000 C 
BRANCH  24  25
ATOM     25  C   UNL     1       2.206   2.049  17.801  0.00  0.00    +0.000 C 
BRANCH  25  27
ATOM     26  N   UNL     1       4.011   3.674  17.681  0.00  0.00    +0.000 N 
ATOM     27  C   UNL     1       3.575   2.493  18.259  0.00  0.00    +0.000 C 
ATOM     28  O   UNL     1       4.151   1.834  19.122  0.00  0.00    +0.000 OA
ATOM     29  H   UNL     1       3.358   4.191  17.118  0.00  0.00    +0.000 HD
BRANCH  26  35
ATOM     30  C   UNL     1       6.277   4.284  16.942  0.00  0.00    +0.000 A 
ATOM     31  C   UNL     1       7.473   4.982  17.196  0.00  0.00    +0.000 A 
ATOM     32  C   UNL     1       7.706   5.611  18.419  0.00  0.00    +0.000 A 
ATOM     33  C   UNL     1       6.725   5.578  19.400  0.00  0.00    +0.000 A 
ATOM     34  C   UNL     1       5.522   4.928  19.156  0.00  0.00    +0.000 A 
ATOM     35  C   UNL     1       5.260   4.301  17.931  0.00  0.00    +0.000 A 
BRANCH  30  36
ATOM     36  N   UNL     1       6.060   3.829  15.624  0.00  0.00    +0.000 N 
ATOM     37  H   UNL     1       5.182   3.331  15.520  0.00  0.00    +0.000 HD
ATOM     38  H   UNL     1       6.191   4.508  14.891  0.00  0.00    +0.000 HD
ENDBRANCH  30  36
ENDBRANCH  26  35
ENDBRANCH  25  27
ENDBRANCH  24  25
ENDBRANCH  23  24
ENDBRANCH  22  23
ENDBRANCH  21  22
ENDBRANCH   1  21
TORSDOF 10
ENDMDL
MODEL 3
REMARK VINA RESULT:      -9.0      0.748      1.122
REMARK  Name = 
REMARK  10 active torsions:
REMARK  status: ('A' for Active; 'I' for Inactive)
REMARK    1  A    between atoms: N_1  and  C_2
REMARK    2  A    between atoms: C_7  and  N_8
REMARK    3  A    between atoms: C_9  and  C_11
REMARK    4  A    between atoms: C_11  and  C_12
REMARK    5  A    between atoms: C_12  and  C_13
REMARK    6  A    between atoms: C_13  and  C_14
REMARK    7  A    between atoms: C_14  and  C_15
REMARK    8  A    between atoms: C_15  and  C_16
REMARK    9  A    between atoms: C_18  and  C_19
REMARK   10  A    between atoms: C_22  and  C_23
REMARK                            x       y       z     vdW  Elec       q    Type
REMARK                         _______ _______ _______ _____ _____    ______ ____
ROOT
ATOM      1  C   UNL     1       2.344   6.545  19.920  0.00  0.00    +0.000 A 
ATOM      2  N   UNL     1       1.707   7.421  20.626  0.00  0.00    +0.000 NA
ATOM      3  C   UNL     1       1.412   8.615  20.020  0.00  0.00    +0.000 A 
ATOM      4  C   UNL     1       1.773   8.950  18.774  0.00  0.00    +0.000 A 
ATOM      5  C   UNL     1       2.516   7.954  18.000  0.00  0.00    +0.000 A 
ATOM      6  O   UNL     1       2.921   8.187  16.867  0.00  0.00    +0.000 OA
ATOM      7  N   UNL     1       2.727   6.763  18.626  0.00  0.00    +0.000 N 
ATOM      8  H   UNL     1       3.230   6.065  18.098  0.00  0.00    +0.000 HD
ENDROOT
BRANCH   3   9
ATOM      9  C   UNL     1       0.600   9.575  20.778  0.00  0.00    +0.000 A 
ATOM     10  C   UNL     1       0.318   9.326  22.122  0.00  0.00    +0.000 A 
ATOM     11  C   UNL     1      -0.475  10.214  22.852  0.00  0.00    +0.000 A 
ATOM     12  C   UNL     1      -0.990  11.389  22.274  0.00  0.00    +0.000 A 
ATOM     13  C   UNL     1      -0.688  11.623  20.919  0.00  0.00    +0.000 A 
ATOM     14  C   UNL     1       0.092  10.728  20.178  0.00  0.00    +0.000 A 
BRANCH  12  15
ATOM     15  C   UNL     1      -1.813  12.331  23.071  0.00  0.00    +0.000 A 
ATOM     16  C   UNL     1      -1.329  13.606  23.420  0.00  0.00    +0.000 A 
ATOM     17  C   UNL     1      -2.079  14.486  24.205  0.00  0.00    +0.000 A 
ATOM     18  C   UNL     1      -3.348  14.120  24.643  0.00  0.00    +0.000 A 
ATOM     19  C   UNL     1      -3.862  12.875  24.295  0.00  0.00    +0.000 A 
ATOM     20  C   UNL     1      -3.101  11.990  23.523  0.00  0.00    +0.000 A 
ENDBRANCH  12  15
ENDBRANCH   3   9
BRANCH   1  21
ATOM     21  C   UNL     1       2.716   5.209  20.518  0.00  0.00    +0.000 C 
BRANCH  21  22
ATOM     22  C   UNL     1       1.518   4.500  21.145  0.00  0.00    +0.000 C 
BRANCH  22  23
ATOM     23  C   UNL     1       0.770   3.606  20.151  0.00  0.00    +0.000 C 
BRANCH  23  24
ATOM     24  C   UNL     1       1.597   2.407  19.690  0.00  0.00    +0.000 C 
BRANCH  24  25
ATOM     25  C   UNL     1       1.705   2.279  18.174  0.00  0.00    +0.000 C 
BRANCH  25  27
ATOM     26  N   UNL     1       3.484   3.686  17.297  0.00  0.00    +0.000 N 
ATOM     27  C   UNL     1       3.152   2.426  17.768  0.00  0.00    +0.000 C 
ATOM     28  O   UNL     1       3.911   1.475  17.937  0.00  0.00    +0.000 OA
ATOM     29  H   UNL     1       2.794   4.413  17.375  0.00  0.00    +0.000 HD
BRANCH  26  35
ATOM     30  C   UNL     1       5.824   4.281  17.769  0.00  0.00    +0.000 A 
ATOM     31  C   UNL     1       7.103   4.599  17.274  0.00  0.00    +0.000 A 
ATOM     32  C   UNL     1       7.329   4.804  15.913  0.00  0.00    +0.000 A 
ATOM     33  C   UNL     1       6.277   4.658  15.018  0.00  0.00    +0.000 A 
ATOM     34  C   UNL     1       5.016   4.306  15.481  0.00  0.00    +0.000 A 
ATOM     35  C   UNL     1       4.768   4.083  16.843  0.00  0.00    +0.000 A 
BRANCH  30  36
ATOM     36  N   UNL     1       5.727   3.925  19.131  0.00  0.00    +0.000 N 
ATOM     37  H   UNL     1       5.521   2.940  19.266  0.00  0.00    +0.000 HD
ATOM     38  H   UNL     1       6.480   4.231  19.727  0.00  0.00    +0.000 HD
ENDBRANCH  30  36
ENDBRANCH  26  35
ENDBRANCH  25  27
ENDBRANCH  24  25
ENDBRANCH  23  24
ENDBRANCH  22  23
ENDBRANCH  21  22
ENDBRANCH   1  21
TORSDOF 10
ENDMDL
MODEL 4
REMARK VINA RESULT:      -8.9      1.070      1.887
REMARK  Name = 
REMARK  10 active torsions:
REMARK  status: ('A' for Active; 'I' for Inactive)
REMARK    1  A    between atoms: N_1  and  C_2
REMARK    2  A    between atoms: C_7  and  N_8
REMARK    3  A    between atoms: C_9  and  C_11
REMARK    4  A    between atoms: C_11  and  C_12
REMARK    5  A    between atoms: C_12  and  C_13
REMARK    6  A    between atoms: C_13  and  C_14
REMARK    7  A    between atoms: C_14  and  C_15
REMARK    8  A    between atoms: C_15  and  C_16
REMARK    9  A    between atoms: C_18  and  C_19
REMARK   10  A    between atoms: C_22  and  C_23
REMARK                            x       y       z     vdW  Elec       q    Type
REMARK                         _______ _______ _______ _____ _____    ______ ____
ROOT
ATOM      1  C   UNL     1       1.829   6.657  20.252  0.00  0.00    +0.000 A 
ATOM      2  N   UNL     1       1.224   7.566  20.946  0.00  0.00    +0.000 NA
ATOM      3  C   UNL     1       1.086   8.802  20.368  0.00  0.00    +0.000 A 
ATOM      4  C   UNL     1       1.567   9.141  19.165  0.00  0.00    +0.000 A 
ATOM      5  C   UNL     1       2.270   8.106  18.406  0.00  0.00    +0.000 A 
ATOM      6  O   UNL     1       2.778   8.337  17.315  0.00  0.00    +0.000 OA
ATOM      7  N   UNL     1       2.325   6.881  18.998  0.00  0.00    +0.000 N 
ATOM      8  H   UNL     1       2.799   6.156  18.479  0.00  0.00    +0.000 HD
ENDROOT
BRANCH   3   9
ATOM      9  C   UNL     1       0.311   9.809  21.104  0.00  0.00    +0.000 A 
ATOM     10  C   UNL     1      -0.173   9.507  22.378  0.00  0.00    +0.000 A 
ATOM     11  C   UNL     1      -0.934  10.442  23.083  0.00  0.00    +0.000 A 
ATOM     12  C   UNL     1      -1.215  11.714  22.552  0.00  0.00    +0.000 A 
ATOM     13  C   UNL     1      -0.713  11.999  21.268  0.00  0.00    +0.000 A 
ATOM     14  C   UNL     1       0.036  11.059  20.550  0.00  0.00    +0.000 A 
BRANCH  12  15
ATOM     15  C   UNL     1      -2.008  12.702  23.324  0.00  0.00    +0.000 A 
ATOM     16  C   UNL     1      -3.325  12.421  23.732  0.00  0.00    +0.000 A 
ATOM     17  C   UNL     1      -4.096  13.359  24.424  0.00  0.00    +0.000 A 
ATOM     18  C   UNL     1      -3.557  14.601  24.746  0.00  0.00    +0.000 A 
ATOM     19  C   UNL     1      -2.250  14.899  24.376  0.00  0.00    +0.000 A 
ATOM     20  C   UNL     1      -1.487  13.963  23.669  0.00  0.00    +0.000 A 
ENDBRANCH  12  15
ENDBRANCH   3   9
BRANCH   1  21
ATOM     21  C   UNL     1       2.031   5.274  20.822  0.00  0.00    +0.000 C 
BRANCH  21  22
ATOM     22  C   UNL     1       0.968   4.287  20.343  0.00  0.00    +0.000 C 
BRANCH  22  23
ATOM     23  C   UNL     1       1.380   2.825  20.545  0.00  0.00    +0.000 C 
BRANCH  23  24
ATOM     24  C   UNL     1       1.201   1.977  19.287  0.00  0.00    +0.000 C 
BRANCH  24  25
ATOM     25  C   UNL     1       1.780   2.613  18.028  0.00  0.00    +0.000 C 
BRANCH  25  27
ATOM     26  N   UNL     1       3.731   4.065  17.986  0.00  0.00    +0.000 N 
ATOM     27  C   UNL     1       3.272   2.776  18.198  0.00  0.00    +0.000 C 
ATOM     28  O   UNL     1       3.933   1.804  18.558  0.00  0.00    +0.000 OA
ATOM     29  H   UNL     1       3.047   4.792  17.862  0.00  0.00    +0.000 HD
BRANCH  26  35
ATOM     30  C   UNL     1       5.960   4.295  16.972  0.00  0.00    +0.000 A 
ATOM     31  C   UNL     1       7.275   4.792  17.066  0.00  0.00    +0.000 A 
ATOM     32  C   UNL     1       7.749   5.382  18.237  0.00  0.00    +0.000 A 
ATOM     33  C   UNL     1       6.899   5.515  19.327  0.00  0.00    +0.000 A 
ATOM     34  C   UNL     1       5.587   5.067  19.242  0.00  0.00    +0.000 A 
ATOM     35  C   UNL     1       5.084   4.483  18.071  0.00  0.00    +0.000 A 
BRANCH  30  36
ATOM     36  N   UNL     1       5.518   3.873  15.700  0.00  0.00    +0.000 N 
ATOM     37  H   UNL     1       5.848   4.472  14.951  0.00  0.00    +0.000 HD
ATOM     38  H   UNL     1       5.650   2.898  15.482  0.00  0.00    +0.000 HD
ENDBRANCH  30  36
ENDBRANCH  26  35
ENDBRANCH  25  27
ENDBRANCH  24  25
ENDBRANCH  23  24
ENDBRANCH  22  23
ENDBRANCH  21  22
ENDBRANCH   1  21
TORSDOF 10
ENDMDL
MODEL 5
REMARK VINA RESULT:      -8.6      3.545      8.071
REMARK  Name = 
REMARK  10 active torsions:
REMARK  status: ('A' for Active; 'I' for Inactive)
REMARK    1  A    between atoms: N_1  and  C_2
REMARK    2  A    between atoms: C_7  and  N_8
REMARK    3  A    between atoms: C_9  and  C_11
REMARK    4  A    between atoms: C_11  and  C_12
REMARK    5  A    between atoms: C_12  and  C_13
REMARK    6  A    between atoms: C_13  and  C_14
REMARK    7  A    between atoms: C_14  and  C_15
REMARK    8  A    between atoms: C_15  and  C_16
REMARK    9  A    between atoms: C_18  and  C_19
REMARK   10  A    between atoms: C_22  and  C_23
REMARK                            x       y       z     vdW  Elec       q    Type
REMARK                         _______ _______ _______ _____ _____    ______ ____
ROOT
ATOM      1  C   UNL     1       5.151   3.947  17.468  0.00  0.00    +0.000 A 
ATOM      2  N   UNL     1       5.816   4.936  17.970  0.00  0.00    +0.000 NA
ATOM      3  C   UNL     1       6.661   5.611  17.127  0.00  0.00    +0.000 A 
ATOM      4  C   UNL     1       6.874   5.294  15.843  0.00  0.00    +0.000 A 
ATOM      5  C   UNL     1       6.130   4.156  15.300  0.00  0.00    +0.000 A 
ATOM      6  O   UNL     1       6.292   3.770  14.149  0.00  0.00    +0.000 OA
ATOM      7  N   UNL     1       5.260   3.561  16.161  0.00  0.00    +0.000 N 
ATOM      8  H   UNL     1       4.734   2.781  15.794  0.00  0.00    +0.000 HD
ENDROOT
BRANCH   3   9
ATOM      9  C   UNL     1       7.341   6.798  17.661  0.00  0.00    +0.000 A 
ATOM     10  C   UNL     1       7.171   8.031  17.028  0.00  0.00    +0.000 A 
ATOM     11  C   UNL     1       7.831   9.165  17.506  0.00  0.00    +0.000 A 
ATOM     12  C   UNL     1       8.661   9.112  18.641  0.00  0.00    +0.000 A 
ATOM     13  C   UNL     1       8.814   7.860  19.266  0.00  0.00    +0.000 A 
ATOM     14  C   UNL     1       8.168   6.716  18.781  0.00  0.00    +0.000 A 
BRANCH  12  15
ATOM     15  C   UNL     1       9.338  10.331  19.146  0.00  0.00    +0.000 A 
ATOM     16  C   UNL     1       9.331  10.654  20.516  0.00  0.00    +0.000 A 
ATOM     17  C   UNL     1       9.930  11.821  20.998  0.00  0.00    +0.000 A 
ATOM     18  C   UNL     1      10.575  12.687  20.120  0.00  0.00    +0.000 A 
ATOM     19  C   UNL     1      10.617  12.383  18.763  0.00  0.00    +0.000 A 
ATOM     20  C   UNL     1      10.001  11.222  18.282  0.00  0.00    +0.000 A 
ENDBRANCH  12  15
ENDBRANCH   3   9
BRANCH   1  21
ATOM     21  C   UNL     1       4.208   3.146  18.333  0.00  0.00    +0.000 C 
BRANCH  21  22
ATOM     22  C   UNL     1       4.581   3.211  19.812  0.00  0.00    +0.000 C 
BRANCH  22  23
ATOM     23  C   UNL     1       3.806   2.200  20.665  0.00  0.00    +0.000 C 
BRANCH  23  24
ATOM     24  C   UNL     1       2.333   2.568  20.832  0.00  0.00    +0.000 C 
BRANCH  24  25
ATOM     25  C   UNL     1       2.107   3.911  21.517  0.00  0.00    +0.000 C 
BRANCH  25  27
ATOM     26  N   UNL     1       2.261   6.182  20.660  0.00  0.00    +0.000 N 
ATOM     27  C   UNL     1       1.696   4.930  20.481  0.00  0.00    +0.000 C 
ATOM     28  O   UNL     1       0.969   4.571  19.557  0.00  0.00    +0.000 OA
ATOM     29  H   UNL     1       2.971   6.279  21.366  0.00  0.00    +0.000 HD
BRANCH  26  35
ATOM     30  C   UNL     1       1.308   8.427  20.337  0.00  0.00    +0.000 A 
ATOM     31  C   UNL     1       1.168   9.563  19.517  0.00  0.00    +0.000 A 
ATOM     32  C   UNL     1       1.649   9.582  18.208  0.00  0.00    +0.000 A 
ATOM     33  C   UNL     1       2.312   8.469  17.709  0.00  0.00    +0.000 A 
ATOM     34  C   UNL     1       2.496   7.352  18.514  0.00  0.00    +0.000 A 
ATOM     35  C   UNL     1       2.032   7.314  19.837  0.00  0.00    +0.000 A 
BRANCH  30  36
ATOM     36  N   UNL     1       0.945   8.559  21.694  0.00  0.00    +0.000 N 
ATOM     37  H   UNL     1       1.716   8.865  22.279  0.00  0.00    +0.000 HD
ATOM     38  H   UNL     1       0.106   9.085  21.882  0.00  0.00    +0.000 HD
ENDBRANCH  30  36
ENDBRANCH  26  35
ENDBRANCH  25  27
ENDBRANCH  24  25
ENDBRANCH  23  24
ENDBRANCH  22  23
ENDBRANCH  21  22
ENDBRANCH   1  21
TORSDOF 10
ENDMDL
MODEL 6
REMARK VINA RESULT:      -8.6      0.554      1.029
REMARK  Name = 
REMARK  10 active torsions:
REMARK  status: ('A' for Active; 'I' for Inactive)
REMARK    1  A    between atoms: N_1  and  C_2
REMARK    2  A    between atoms: C_7  and  N_8
REMARK    3  A    between atoms: C_9  and  C_11
REMARK    4  A    between atoms: C_11  and  C_12
REMARK    5  A    between atoms: C_12  and  C_13
REMARK    6  A    between atoms: C_13  and  C_14
REMARK    7  A    between atoms: C_14  and  C_15
REMARK    8  A    between atoms: C_15  and  C_16
REMARK    9  A    between atoms: C_18  and  C_19
REMARK   10  A    between atoms: C_22  and  C_23
REMARK                            x       y       z     vdW  Elec       q    Type
REMARK                         _______ _______ _______ _____ _____    ______ ____
ROOT
ATOM      1  C   UNL     1       1.586   6.042  20.281  0.00  0.00    +0.000 A 
ATOM      2  N   UNL     1       1.006   6.999  20.930  0.00  0.00    +0.000 NA
ATOM      3  C   UNL     1       1.175   8.271  20.446  0.00  0.00    +0.000 A 
ATOM      4  C   UNL     1       1.927   8.592  19.385  0.00  0.00    +0.000 A 
ATOM      5  C   UNL     1       2.596   7.497  18.681  0.00  0.00    +0.000 A 
ATOM      6  O   UNL     1       3.335   7.701  17.725  0.00  0.00    +0.000 OA
ATOM      7  N   UNL     1       2.344   6.250  19.163  0.00  0.00    +0.000 N 
ATOM      8  H   UNL     1       2.792   5.486  18.679  0.00  0.00    +0.000 HD
ENDROOT
BRANCH   3   9
ATOM      9  C   UNL     1       0.437   9.351  21.114  0.00  0.00    +0.000 A 
ATOM     10  C   UNL     1       0.014   9.180  22.433  0.00  0.00    +0.000 A 
ATOM     11  C   UNL     1      -0.712  10.186  23.076  0.00  0.00    +0.000 A 
ATOM     12  C   UNL     1      -1.017  11.400  22.435  0.00  0.00    +0.000 A 
ATOM     13  C   UNL     1      -0.576  11.553  21.106  0.00  0.00    +0.000 A 
ATOM     14  C   UNL     1       0.137  10.541  20.451  0.00  0.00    +0.000 A 
BRANCH  12  15
ATOM     15  C   UNL     1      -1.771  12.464  23.140  0.00  0.00    +0.000 A 
ATOM     16  C   UNL     1      -1.176  13.706  23.437  0.00  0.00    +0.000 A 
ATOM     17  C   UNL     1      -1.863  14.701  24.137  0.00  0.00    +0.000 A 
ATOM     18  C   UNL     1      -3.178  14.487  24.540  0.00  0.00    +0.000 A 
ATOM     19  C   UNL     1      -3.800  13.280  24.242  0.00  0.00    +0.000 A 
ATOM     20  C   UNL     1      -3.103  12.279  23.555  0.00  0.00    +0.000 A 
ENDBRANCH  12  15
ENDBRANCH   3   9
BRANCH   1  21
ATOM     21  C   UNL     1       1.457   4.614  20.755  0.00  0.00    +0.000 C 
BRANCH  21  22
ATOM     22  C   UNL     1       2.803   4.012  21.155  0.00  0.00    +0.000 C 
BRANCH  22  23
ATOM     23  C   UNL     1       2.957   2.554  20.708  0.00  0.00    +0.000 C 
BRANCH  23  24
ATOM     24  C   UNL     1       1.932   2.144  19.651  0.00  0.00    +0.000 C 
BRANCH  24  25
ATOM     25  C   UNL     1       2.548   1.785  18.303  0.00  0.00    +0.000 C 
BRANCH  25  27
ATOM     26  N   UNL     1       4.540   2.973  17.571  0.00  0.00    +0.000 N 
ATOM     27  C   UNL     1       3.161   3.024  17.695  0.00  0.00    +0.000 C 
ATOM     28  O   UNL     1       2.417   3.925  17.314  0.00  0.00    +0.000 OA
ATOM     29  H   UNL     1       4.997   2.100  17.772  0.00  0.00    +0.000 HD
BRANCH  26  35
ATOM     30  C   UNL     1       5.819   5.051  17.884  0.00  0.00    +0.000 A 
ATOM     31  C   UNL     1       6.692   6.014  17.343  0.00  0.00    +0.000 A 
ATOM     32  C   UNL     1       7.040   6.007  15.993  0.00  0.00    +0.000 A 
ATOM     33  C   UNL     1       6.542   5.009  15.166  0.00  0.00    +0.000 A 
ATOM     34  C   UNL     1       5.711   4.026  15.688  0.00  0.00    +0.000 A 
ATOM     35  C   UNL     1       5.358   4.005  17.044  0.00  0.00    +0.000 A 
BRANCH  30  36
ATOM     36  N   UNL     1       5.662   5.035  19.286  0.00  0.00    +0.000 N 
ATOM     37  H   UNL     1       4.877   4.467  19.588  0.00  0.00    +0.000 HD
ATOM     38  H   UNL     1       6.490   4.839  19.826  0.00  0.00    +0.000 HD
ENDBRANCH  30  36
ENDBRANCH  26  35
ENDBRANCH  25  27
ENDBRANCH  24  25
ENDBRANCH  23  24
ENDBRANCH  22  23
ENDBRANCH  21  22
ENDBRANCH   1  21
TORSDOF 10
ENDMDL
MODEL 7
REMARK VINA RESULT:      -8.6      1.093      1.545
REMARK  Name = 
REMARK  10 active torsions:
REMARK  status: ('A' for Active; 'I' for Inactive)
REMARK    1  A    between atoms: N_1  and  C_2
REMARK    2  A    between atoms: C_7  and  N_8
REMARK    3  A    between atoms: C_9  and  C_11
REMARK    4  A    between atoms: C_11  and  C_12
REMARK    5  A    between atoms: C_12  and  C_13
REMARK    6  A    between atoms: C_13  and  C_14
REMARK    7  A    between atoms: C_14  and  C_15
REMARK    8  A    between atoms: C_15  and  C_16
REMARK    9  A    between atoms: C_18  and  C_19
REMARK   10  A    between atoms: C_22  and  C_23
REMARK                            x       y       z     vdW  Elec       q    Type
REMARK                         _______ _______ _______ _____ _____    ______ ____
ROOT
ATOM      1  C   UNL     1       1.546   5.659  20.238  0.00  0.00    +0.000 A 
ATOM      2  N   UNL     1       0.968   6.618  20.886  0.00  0.00    +0.000 NA
ATOM      3  C   UNL     1       1.225   7.897  20.464  0.00  0.00    +0.000 A 
ATOM      4  C   UNL     1       2.058   8.221  19.467  0.00  0.00    +0.000 A 
ATOM      5  C   UNL     1       2.723   7.122  18.764  0.00  0.00    +0.000 A 
ATOM      6  O   UNL     1       3.532   7.326  17.866  0.00  0.00    +0.000 OA
ATOM      7  N   UNL     1       2.385   5.871  19.180  0.00  0.00    +0.000 N 
ATOM      8  H   UNL     1       2.829   5.105  18.695  0.00  0.00    +0.000 HD
ENDROOT
BRANCH   3   9
ATOM      9  C   UNL     1       0.493   8.985  21.125  0.00  0.00    +0.000 A 
ATOM     10  C   UNL     1       0.124  10.112  20.388  0.00  0.00    +0.000 A 
ATOM     11  C   UNL     1      -0.549  11.168  21.006  0.00  0.00    +0.000 A 
ATOM     12  C   UNL     1      -0.897  11.126  22.368  0.00  0.00    +0.000 A 
ATOM     13  C   UNL     1      -0.519   9.978  23.091  0.00  0.00    +0.000 A 
ATOM     14  C   UNL     1       0.171   8.923  22.481  0.00  0.00    +0.000 A 
BRANCH  12  15
ATOM     15  C   UNL     1      -1.629  12.248  23.002  0.00  0.00    +0.000 A 
ATOM     16  C   UNL     1      -1.013  13.497  23.209  0.00  0.00    +0.000 A 
ATOM     17  C   UNL     1      -1.680  14.549  23.842  0.00  0.00    +0.000 A 
ATOM     18  C   UNL     1      -2.995  14.385  24.266  0.00  0.00    +0.000 A 
ATOM     19  C   UNL     1      -3.638  13.170  24.056  0.00  0.00    +0.000 A 
ATOM     20  C   UNL     1      -2.961  12.113  23.436  0.00  0.00    +0.000 A 
ENDBRANCH  12  15
ENDBRANCH   3   9
BRANCH   1  21
ATOM     21  C   UNL     1       1.324   4.222  20.647  0.00  0.00    +0.000 C 
BRANCH  21  22
ATOM     22  C   UNL     1       2.312   3.763  21.716  0.00  0.00    +0.000 C 
BRANCH  22  23
ATOM     23  C   UNL     1       2.736   2.300  21.543  0.00  0.00    +0.000 C 
BRANCH  23  24
ATOM     24  C   UNL     1       3.947   2.136  20.625  0.00  0.00    +0.000 C 
BRANCH  24  25
ATOM     25  C   UNL     1       3.583   1.922  19.160  0.00  0.00    +0.000 C 
BRANCH  25  27
ATOM     26  N   UNL     1       5.394   3.461  18.644  0.00  0.00    +0.000 N 
ATOM     27  C   UNL     1       4.093   3.091  18.350  0.00  0.00    +0.000 C 
ATOM     28  O   UNL     1       3.366   3.567  17.480  0.00  0.00    +0.000 OA
ATOM     29  H   UNL     1       5.923   2.869  19.261  0.00  0.00    +0.000 HD
BRANCH  26  35
ATOM     30  C   UNL     1       6.440   4.471  16.660  0.00  0.00    +0.000 A 
ATOM     31  C   UNL     1       7.076   5.584  16.075  0.00  0.00    +0.000 A 
ATOM     32  C   UNL     1       7.453   6.691  16.834  0.00  0.00    +0.000 A 
ATOM     33  C   UNL     1       7.166   6.717  18.193  0.00  0.00    +0.000 A 
ATOM     34  C   UNL     1       6.504   5.647  18.781  0.00  0.00    +0.000 A 
ATOM     35  C   UNL     1       6.104   4.529  18.037  0.00  0.00    +0.000 A 
BRANCH  30  36
ATOM     36  N   UNL     1       5.945   3.478  15.789  0.00  0.00    +0.000 N 
ATOM     37  H   UNL     1       6.001   3.747  14.813  0.00  0.00    +0.000 HD
ATOM     38  H   UNL     1       6.290   2.543  15.936  0.00  0.00    +0.000 HD
ENDBRANCH  30  36
ENDBRANCH  26  35
ENDBRANCH  25  27
ENDBRANCH  24  25
ENDBRANCH  23  24
ENDBRANCH  22  23
ENDBRANCH  21  22
ENDBRANCH   1  21
TORSDOF 10
ENDMDL
MODEL 8
REMARK VINA RESULT:      -8.5      3.258     10.558
REMARK  Name = 
REMARK  10 active torsions:
REMARK  status: ('A' for Active; 'I' for Inactive)
REMARK    1  A    between atoms: N_1  and  C_2
REMARK    2  A    between atoms: C_7  and  N_8
REMARK    3  A    between atoms: C_9  and  C_11
REMARK    4  A    between atoms: C_11  and  C_12
REMARK    5  A    between atoms: C_12  and  C_13
REMARK    6  A    between atoms: C_13  and  C_14
REMARK    7  A    between atoms: C_14  and  C_15
REMARK    8  A    between atoms: C_15  and  C_16
REMARK    9  A    between atoms: C_18  and  C_19
REMARK   10  A    between atoms: C_22  and  C_23
REMARK                            x       y       z     vdW  Elec       q    Type
REMARK                         _______ _______ _______ _____ _____    ______ ____
ROOT
ATOM      1  C   UNL     1       2.009   6.824  20.454  0.00  0.00    +0.000 A 
ATOM      2  N   UNL     1       2.724   6.679  19.386  0.00  0.00    +0.000 NA
ATOM      3  C   UNL     1       3.226   5.427  19.139  0.00  0.00    +0.000 A 
ATOM      4  C   UNL     1       3.066   4.366  19.941  0.00  0.00    +0.000 A 
ATOM      5  C   UNL     1       2.275   4.558  21.157  0.00  0.00    +0.000 A 
ATOM      6  O   UNL     1       2.110   3.655  21.969  0.00  0.00    +0.000 OA
ATOM      7  N   UNL     1       1.747   5.802  21.323  0.00  0.00    +0.000 N 
ATOM      8  H   UNL     1       1.191   5.943  22.154  0.00  0.00    +0.000 HD
ENDROOT
BRANCH   3   9
ATOM      9  C   UNL     1       3.952   5.228  17.878  0.00  0.00    +0.000 A 
ATOM     10  C   UNL     1       4.190   3.931  17.420  0.00  0.00    +0.000 A 
ATOM     11  C   UNL     1       4.901   3.721  16.236  0.00  0.00    +0.000 A 
ATOM     12  C   UNL     1       5.374   4.795  15.460  0.00  0.00    +0.000 A 
ATOM     13  C   UNL     1       5.118   6.094  15.938  0.00  0.00    +0.000 A 
ATOM     14  C   UNL     1       4.420   6.310  17.133  0.00  0.00    +0.000 A 
BRANCH  12  15
ATOM     15  C   UNL     1       6.109   4.554  14.195  0.00  0.00    +0.000 A 
ATOM     16  C   UNL     1       7.274   5.278  13.878  0.00  0.00    +0.000 A 
ATOM     17  C   UNL     1       7.952   5.089  12.672  0.00  0.00    +0.000 A 
ATOM     18  C   UNL     1       7.492   4.147  11.755  0.00  0.00    +0.000 A 
ATOM     19  C   UNL     1       6.357   3.399  12.050  0.00  0.00    +0.000 A 
ATOM     20  C   UNL     1       5.671   3.604  13.253  0.00  0.00    +0.000 A 
ENDBRANCH  12  15
ENDBRANCH   3   9
BRANCH   1  21
ATOM     21  C   UNL     1       1.428   8.173  20.804  0.00  0.00    +0.000 C 
BRANCH  21  22
ATOM     22  C   UNL     1       0.109   8.058  21.565  0.00  0.00    +0.000 C 
BRANCH  22  23
ATOM     23  C   UNL     1      -0.435   9.417  22.018  0.00  0.00    +0.000 C 
BRANCH  23  24
ATOM     24  C   UNL     1       0.500  10.577  21.678  0.00  0.00    +0.000 C 
BRANCH  24  25
ATOM     25  C   UNL     1      -0.194  11.742  20.980  0.00  0.00    +0.000 C 
BRANCH  25  27
ATOM     26  N   UNL     1      -1.951  11.440  19.327  0.00  0.00    +0.000 N 
ATOM     27  C   UNL     1      -0.597  11.316  19.589  0.00  0.00    +0.000 C 
ATOM     28  O   UNL     1       0.280  10.963  18.803  0.00  0.00    +0.000 OA
ATOM     29  H   UNL     1      -2.521  11.904  20.013  0.00  0.00    +0.000 HD
BRANCH  26  35
ATOM     30  C   UNL     1      -3.896  11.573  17.827  0.00  0.00    +0.000 A 
ATOM     31  C   UNL     1      -4.465  11.279  16.572  0.00  0.00    +0.000 A 
ATOM     32  C   UNL     1      -3.809  10.470  15.645  0.00  0.00    +0.000 A 
ATOM     33  C   UNL     1      -2.550   9.969  15.948  0.00  0.00    +0.000 A 
ATOM     34  C   UNL     1      -1.954  10.279  17.163  0.00  0.00    +0.000 A 
ATOM     35  C   UNL     1      -2.588  11.100  18.106  0.00  0.00    +0.000 A 
BRANCH  30  36
ATOM     36  N   UNL     1      -4.552  12.533  18.625  0.00  0.00    +0.000 N 
ATOM     37  H   UNL     1      -4.590  12.270  19.605  0.00  0.00    +0.000 HD
ATOM     38  H   UNL     1      -4.254  13.489  18.509  0.00  0.00    +0.000 HD
ENDBRANCH  30  36
ENDBRANCH  26  35
ENDBRANCH  25  27
ENDBRANCH  24  25
ENDBRANCH  23  24
ENDBRANCH  22  23
ENDBRANCH  21  22
ENDBRANCH   1  21
TORSDOF 10
ENDMDL
MODEL 9
REMARK VINA RESULT:      -8.4      5.406      7.722
REMARK  Name = 
REMARK  10 active torsions:
REMARK  status: ('A' for Active; 'I' for Inactive)
REMARK    1  A    between atoms: N_1  and  C_2
REMARK    2  A    between atoms: C_7  and  N_8
REMARK    3  A    between atoms: C_9  and  C_11
REMARK    4  A    between atoms: C_11  and  C_12
REMARK    5  A    between atoms: C_12  and  C_13
REMARK    6  A    between atoms: C_13  and  C_14
REMARK    7  A    between atoms: C_14  and  C_15
REMARK    8  A    between atoms: C_15  and  C_16
REMARK    9  A    between atoms: C_18  and  C_19
REMARK   10  A    between atoms: C_22  and  C_23
REMARK                            x       y       z     vdW  Elec       q    Type
REMARK                         _______ _______ _______ _____ _____    ______ ____
ROOT
ATOM      1  C   UNL     1       5.928   5.272  18.239  0.00  0.00    +0.000 A 
ATOM      2  N   UNL     1       5.067   6.236  18.278  0.00  0.00    +0.000 NA
ATOM      3  C   UNL     1       3.806   5.928  18.721  0.00  0.00    +0.000 A 
ATOM      4  C   UNL     1       3.398   4.702  19.072  0.00  0.00    +0.000 A 
ATOM      5  C   UNL     1       4.380   3.619  18.997  0.00  0.00    +0.000 A 
ATOM      6  O   UNL     1       4.085   2.460  19.259  0.00  0.00    +0.000 OA
ATOM      7  N   UNL     1       5.632   3.990  18.611  0.00  0.00    +0.000 N 
ATOM      8  H   UNL     1       6.321   3.254  18.565  0.00  0.00    +0.000 HD
ENDROOT
BRANCH   3   9
ATOM      9  C   UNL     1       2.853   7.035  18.867  0.00  0.00    +0.000 A 
ATOM     10  C   UNL     1       2.624   7.891  17.788  0.00  0.00    +0.000 A 
ATOM     11  C   UNL     1       1.740   8.965  17.916  0.00  0.00    +0.000 A 
ATOM     12  C   UNL     1       1.039   9.205  19.111  0.00  0.00    +0.000 A 
ATOM     13  C   UNL     1       1.281   8.326  20.184  0.00  0.00    +0.000 A 
ATOM     14  C   UNL     1       2.179   7.258  20.068  0.00  0.00    +0.000 A 
BRANCH  12  15
ATOM     15  C   UNL     1       0.089  10.338  19.222  0.00  0.00    +0.000 A 
ATOM     16  C   UNL     1      -1.057  10.411  18.408  0.00  0.00    +0.000 A 
ATOM     17  C   UNL     1      -1.938  11.494  18.474  0.00  0.00    +0.000 A 
ATOM     18  C   UNL     1      -1.705  12.526  19.378  0.00  0.00    +0.000 A 
ATOM     19  C   UNL     1      -0.593  12.471  20.212  0.00  0.00    +0.000 A 
ATOM     20  C   UNL     1       0.296  11.393  20.131  0.00  0.00    +0.000 A 
ENDBRANCH  12  15
ENDBRANCH   3   9
BRANCH   1  21
ATOM     21  C   UNL     1       7.335   5.527  17.752  0.00  0.00    +0.000 C 
BRANCH  21  22
ATOM     22  C   UNL     1       7.562   6.988  17.373  0.00  0.00    +0.000 C 
BRANCH  22  23
ATOM     23  C   UNL     1       8.319   7.771  18.452  0.00  0.00    +0.000 C 
BRANCH  23  24
ATOM     24  C   UNL     1       8.447   9.258  18.129  0.00  0.00    +0.000 C 
BRANCH  24  25
ATOM     25  C   UNL     1       9.122  10.072  19.229  0.00  0.00    +0.000 C 
BRANCH  25  27
ATOM     26  N   UNL     1       9.342  12.491  19.344  0.00  0.00    +0.000 N 
ATOM     27  C   UNL     1       9.669  11.348  18.634  0.00  0.00    +0.000 C 
ATOM     28  O   UNL     1      10.386  11.274  17.638  0.00  0.00    +0.000 OA
ATOM     29  H   UNL     1       8.889  12.376  20.235  0.00  0.00    +0.000 HD
BRANCH  26  35
ATOM     30  C   UNL     1       8.961  14.547  18.050  0.00  0.00    +0.000 A 
ATOM     31  C   UNL     1       9.321  15.883  17.787  0.00  0.00    +0.000 A 
ATOM     32  C   UNL     1      10.448  16.462  18.370  0.00  0.00    +0.000 A 
ATOM     33  C   UNL     1      11.216  15.719  19.256  0.00  0.00    +0.000 A 
ATOM     34  C   UNL     1      10.855  14.413  19.559  0.00  0.00    +0.000 A 
ATOM     35  C   UNL     1       9.721  13.813  18.996  0.00  0.00    +0.000 A 
BRANCH  30  36
ATOM     36  N   UNL     1       7.717  14.103  17.553  0.00  0.00    +0.000 N 
ATOM     37  H   UNL     1       7.811  13.476  16.761  0.00  0.00    +0.000 HD
ATOM     38  H   UNL     1       7.066  13.746  18.234  0.00  0.00    +0.000 HD
ENDBRANCH  30  36
ENDBRANCH  26  35
ENDBRANCH  25  27
ENDBRANCH  24  25
ENDBRANCH  23  24
ENDBRANCH  22  23
ENDBRANCH  21  22
ENDBRANCH   1  21
TORSDOF 10
ENDMDL
