MODEL 1
REMARK VINA RESULT:      -7.6      0.000      0.000
REMARK  Name = 
REMARK  7 active torsions:
REMARK  status: ('A' for Active; 'I' for Inactive)
REMARK    1  A    between atoms: C_1  and  O_2
REMARK    2  A    between atoms: O_2  and  C_3
REMARK    3  A    between atoms: C_3  and  C_5
REMARK    4  A    between atoms: C_5  and  S_6
REMARK    5  A    between atoms: S_6  and  C_7
REMARK    6  A    between atoms: C_8  and  O_9
REMARK    7  A    between atoms: C_11  and  C_12
REMARK                            x       y       z     vdW  Elec       q    Type
REMARK                         _______ _______ _______ _____ _____    ______ ____
ROOT
ATOM      1  C   UNL     1       6.406   5.398  16.249  0.00  0.00    +0.000 C 
ATOM      2  C   UNL     1       5.371   6.264  16.291  0.00  0.00    +0.000 C 
ATOM      3  C   UNL     1       4.323   6.156  17.385  0.00  0.00    +0.000 C 
ATOM      4  C   UNL     1       4.209   4.669  17.770  0.00  0.00    +0.000 C 
ATOM      5  C   UNL     1       5.540   4.199  18.364  0.00  0.00    +0.000 C 
ATOM      6  C   UNL     1       6.702   4.660  17.517  0.00  0.00    +0.000 C 
ATOM      7  O   UNL     1       7.865   4.486  17.886  0.00  0.00    +0.000 OA
ENDROOT
BRANCH   4   8
ATOM      8  C   UNL     1       3.045   4.316  18.669  0.00  0.00    +0.000 A 
ATOM      9  C   UNL     1       2.752   5.142  19.766  0.00  0.00    +0.000 A 
ATOM     10  C   UNL     1       1.630   4.906  20.558  0.00  0.00    +0.000 A 
ATOM     11  C   UNL     1       0.787   3.841  20.260  0.00  0.00    +0.000 A 
ATOM     12  C   UNL     1       1.074   2.997  19.185  0.00  0.00    +0.000 A 
ATOM     13  C   UNL     1       2.203   3.229  18.392  0.00  0.00    +0.000 A 
ENDBRANCH   4   8
BRANCH   2  14
ATOM     14  O   UNL     1       5.003   7.092  15.253  0.00  0.00    +0.000 OA
ATOM     15  H   UNL     1       5.539   7.901  15.331  0.00  0.00    +0.000 HD
ENDBRANCH   2  14
BRANCH   1  16
ATOM     16  S   UNL     1       7.204   4.778  14.845  0.00  0.00    +0.000 S 
BRANCH  16  17
ATOM     17  C   UNL     1       5.935   3.917  13.928  0.00  0.00    +0.000 C 
BRANCH  17  18
ATOM     18  C   UNL     1       6.319   3.645  12.489  0.00  0.00    +0.000 C 
ATOM     19  O   UNL     1       7.242   4.121  11.846  0.00  0.00    +0.000 OA
BRANCH  18  21
ATOM     20  C   UNL     1       4.292   3.180  11.354  0.00  0.00    +0.000 C 
ATOM     21  O   UNL     1       5.452   2.696  12.021  0.00  0.00    +0.000 OA
ENDBRANCH  18  21
ENDBRANCH  17  18
ENDBRANCH  16  17
ENDBRANCH   1  16
TORSDOF 6
ENDMDL
MODEL 2
REMARK VINA RESULT:      -7.6      0.527      1.202
REMARK  Name = 
REMARK  7 active torsions:
REMARK  status: ('A' for Active; 'I' for Inactive)
REMARK    1  A    between atoms: C_1  and  O_2
REMARK    2  A    between atoms: O_2  and  C_3
REMARK    3  A    between atoms: C_3  and  C_5
REMARK    4  A    between atoms: C_5  and  S_6
REMARK    5  A    between atoms: S_6  and  C_7
REMARK    6  A    between atoms: C_8  and  O_9
REMARK    7  A    between atoms: C_11  and  C_12
REMARK                            x       y       z     vdW  Elec       q    Type
REMARK                         _______ _______ _______ _____ _____    ______ ____
ROOT
ATOM      1  C   UNL     1       6.317   5.374  16.258  0.00  0.00    +0.000 C 
ATOM      2  C   UNL     1       5.300   6.262  16.271  0.00  0.00    +0.000 C 
ATOM      3  C   UNL     1       4.215   6.172  17.331  0.00  0.00    +0.000 C 
ATOM      4  C   UNL     1       4.057   4.686  17.705  0.00  0.00    +0.000 C 
ATOM      5  C   UNL     1       5.358   4.186  18.340  0.00  0.00    +0.000 C 
ATOM      6  C   UNL     1       6.557   4.625  17.532  0.00  0.00    +0.000 C 
ATOM      7  O   UNL     1       7.703   4.425  17.938  0.00  0.00    +0.000 OA
ENDROOT
BRANCH   4   8
ATOM      8  C   UNL     1       2.858   4.355  18.564  0.00  0.00    +0.000 A 
ATOM      9  C   UNL     1       2.065   3.244  18.235  0.00  0.00    +0.000 A 
ATOM     10  C   UNL     1       1.011   2.849  19.057  0.00  0.00    +0.000 A 
ATOM     11  C   UNL     1       0.741   3.562  20.222  0.00  0.00    +0.000 A 
ATOM     12  C   UNL     1       1.507   4.680  20.555  0.00  0.00    +0.000 A 
ATOM     13  C   UNL     1       2.561   5.082  19.727  0.00  0.00    +0.000 A 
ENDBRANCH   4   8
BRANCH   2  14
ATOM     14  O   UNL     1       4.983   7.101  15.226  0.00  0.00    +0.000 OA
ATOM     15  H   UNL     1       4.837   6.538  14.444  0.00  0.00    +0.000 HD
ENDBRANCH   2  14
BRANCH   1  16
ATOM     16  S   UNL     1       7.146   4.742  14.878  0.00  0.00    +0.000 S 
BRANCH  16  17
ATOM     17  C   UNL     1       5.890   3.909  13.919  0.00  0.00    +0.000 C 
BRANCH  17  18
ATOM     18  C   UNL     1       6.294   3.679  12.478  0.00  0.00    +0.000 C 
ATOM     19  O   UNL     1       7.262   4.123  11.880  0.00  0.00    +0.000 OA
BRANCH  18  21
ATOM     20  C   UNL     1       5.906   1.621  11.370  0.00  0.00    +0.000 C 
ATOM     21  O   UNL     1       5.380   2.812  11.945  0.00  0.00    +0.000 OA
ENDBRANCH  18  21
ENDBRANCH  17  18
ENDBRANCH  16  17
ENDBRANCH   1  16
TORSDOF 6
ENDMDL
MODEL 3
REMARK VINA RESULT:      -7.4      3.035      6.510
REMARK  Name = 
REMARK  7 active torsions:
REMARK  status: ('A' for Active; 'I' for Inactive)
REMARK    1  A    between atoms: C_1  and  O_2
REMARK    2  A    between atoms: O_2  and  C_3
REMARK    3  A    between atoms: C_3  and  C_5
REMARK    4  A    between atoms: C_5  and  S_6
REMARK    5  A    between atoms: S_6  and  C_7
REMARK    6  A    between atoms: C_8  and  O_9
REMARK    7  A    between atoms: C_11  and  C_12
REMARK                            x       y       z     vdW  Elec       q    Type
REMARK                         _______ _______ _______ _____ _____    ______ ____
ROOT
ATOM      1  C   UNL     1       4.475   5.478  18.297  0.00  0.00    +0.000 C 
ATOM      2  C   UNL     1       5.533   4.640  18.276  0.00  0.00    +0.000 C 
ATOM      3  C   UNL     1       6.416   4.546  17.044  0.00  0.00    +0.000 C 
ATOM      4  C   UNL     1       5.528   4.831  15.818  0.00  0.00    +0.000 C 
ATOM      5  C   UNL     1       5.005   6.269  15.898  0.00  0.00    +0.000 C 
ATOM      6  C   UNL     1       4.483   6.577  17.281  0.00  0.00    +0.000 C 
ATOM      7  O   UNL     1       4.126   7.717  17.585  0.00  0.00    +0.000 OA
ENDROOT
BRANCH   4   8
ATOM      8  C   UNL     1       6.161   4.546  14.475  0.00  0.00    +0.000 A 
ATOM      9  C   UNL     1       5.538   3.638  13.603  0.00  0.00    +0.000 A 
ATOM     10  C   UNL     1       6.037   3.424  12.319  0.00  0.00    +0.000 A 
ATOM     11  C   UNL     1       7.165   4.118  11.893  0.00  0.00    +0.000 A 
ATOM     12  C   UNL     1       7.808   5.010  12.753  0.00  0.00    +0.000 A 
ATOM     13  C   UNL     1       7.312   5.221  14.044  0.00  0.00    +0.000 A 
ENDBRANCH   4   8
BRANCH   2  14
ATOM     14  O   UNL     1       5.743   3.625  19.184  0.00  0.00    +0.000 OA
ATOM     15  H   UNL     1       5.779   2.794  18.677  0.00  0.00    +0.000 HD
ENDBRANCH   2  14
BRANCH   1  16
ATOM     16  S   UNL     1       2.961   5.243  19.101  0.00  0.00    +0.000 S 
BRANCH  16  17
ATOM     17  C   UNL     1       2.015   4.185  18.017  0.00  0.00    +0.000 C 
BRANCH  17  18
ATOM     18  C   UNL     1       1.659   2.853  18.644  0.00  0.00    +0.000 C 
ATOM     19  O   UNL     1       0.574   2.294  18.674  0.00  0.00    +0.000 OA
BRANCH  18  21
ATOM     20  C   UNL     1       3.513   1.416  18.313  0.00  0.00    +0.000 C 
ATOM     21  O   UNL     1       2.818   2.333  19.151  0.00  0.00    +0.000 OA
ENDBRANCH  18  21
ENDBRANCH  17  18
ENDBRANCH  16  17
ENDBRANCH   1  16
TORSDOF 6
ENDMDL
MODEL 4
REMARK VINA RESULT:      -7.4      2.988      6.915
REMARK  Name = 
REMARK  7 active torsions:
REMARK  status: ('A' for Active; 'I' for Inactive)
REMARK    1  A    between atoms: C_1  and  O_2
REMARK    2  A    between atoms: O_2  and  C_3
REMARK    3  A    between atoms: C_3  and  C_5
REMARK    4  A    between atoms: C_5  and  S_6
REMARK    5  A    between atoms: S_6  and  C_7
REMARK    6  A    between atoms: C_8  and  O_9
REMARK    7  A    between atoms: C_11  and  C_12
REMARK                            x       y       z     vdW  Elec       q    Type
REMARK                         _______ _______ _______ _____ _____    ______ ____
ROOT
ATOM      1  C   UNL     1       4.395   5.350  18.249  0.00  0.00    +0.000 C 
ATOM      2  C   UNL     1       5.435   4.489  18.225  0.00  0.00    +0.000 C 
ATOM      3  C   UNL     1       6.349   4.421  17.014  0.00  0.00    +0.000 C 
ATOM      4  C   UNL     1       5.501   4.772  15.776  0.00  0.00    +0.000 C 
ATOM      5  C   UNL     1       5.008   6.217  15.897  0.00  0.00    +0.000 C 
ATOM      6  C   UNL     1       4.455   6.486  17.276  0.00  0.00    +0.000 C 
ATOM      7  O   UNL     1       4.116   7.621  17.613  0.00  0.00    +0.000 OA
ENDROOT
BRANCH   4   8
ATOM      8  C   UNL     1       6.164   4.522  14.441  0.00  0.00    +0.000 A 
ATOM      9  C   UNL     1       5.573   3.620  13.541  0.00  0.00    +0.000 A 
ATOM     10  C   UNL     1       6.100   3.437  12.263  0.00  0.00    +0.000 A 
ATOM     11  C   UNL     1       7.223   4.158  11.871  0.00  0.00    +0.000 A 
ATOM     12  C   UNL     1       7.834   5.045  12.759  0.00  0.00    +0.000 A 
ATOM     13  C   UNL     1       7.311   5.224  14.044  0.00  0.00    +0.000 A 
ENDBRANCH   4   8
BRANCH   2  14
ATOM     14  O   UNL     1       5.598   3.437  19.099  0.00  0.00    +0.000 OA
ATOM     15  H   UNL     1       5.308   2.633  18.633  0.00  0.00    +0.000 HD
ENDBRANCH   2  14
BRANCH   1  16
ATOM     16  S   UNL     1       2.856   5.121  19.004  0.00  0.00    +0.000 S 
BRANCH  16  17
ATOM     17  C   UNL     1       2.177   3.653  18.245  0.00  0.00    +0.000 C 
BRANCH  17  18
ATOM     18  C   UNL     1       1.064   3.022  19.056  0.00  0.00    +0.000 C 
ATOM     19  O   UNL     1       0.292   2.136  18.725  0.00  0.00    +0.000 OA
BRANCH  18  21
ATOM     20  C   UNL     1       1.374   2.729  21.387  0.00  0.00    +0.000 C 
ATOM     21  O   UNL     1       1.101   3.601  20.295  0.00  0.00    +0.000 OA
ENDBRANCH  18  21
ENDBRANCH  17  18
ENDBRANCH  16  17
ENDBRANCH   1  16
TORSDOF 6
ENDMDL
MODEL 5
REMARK VINA RESULT:      -7.3      2.913      6.319
REMARK  Name = 
REMARK  7 active torsions:
REMARK  status: ('A' for Active; 'I' for Inactive)
REMARK    1  A    between atoms: C_1  and  O_2
REMARK    2  A    between atoms: O_2  and  C_3
REMARK    3  A    between atoms: C_3  and  C_5
REMARK    4  A    between atoms: C_5  and  S_6
REMARK    5  A    between atoms: S_6  and  C_7
REMARK    6  A    between atoms: C_8  and  O_9
REMARK    7  A    between atoms: C_11  and  C_12
REMARK                            x       y       z     vdW  Elec       q    Type
REMARK                         _______ _______ _______ _____ _____    ______ ____
ROOT
ATOM      1  C   UNL     1       4.537   5.456  18.293  0.00  0.00    +0.000 C 
ATOM      2  C   UNL     1       5.583   4.608  18.191  0.00  0.00    +0.000 C 
ATOM      3  C   UNL     1       6.379   4.522  16.899  0.00  0.00    +0.000 C 
ATOM      4  C   UNL     1       5.411   4.829  15.740  0.00  0.00    +0.000 C 
ATOM      5  C   UNL     1       4.909   6.270  15.872  0.00  0.00    +0.000 C 
ATOM      6  C   UNL     1       4.486   6.567  17.291  0.00  0.00    +0.000 C 
ATOM      7  O   UNL     1       4.163   7.706  17.632  0.00  0.00    +0.000 OA
ENDROOT
BRANCH   4   8
ATOM      8  C   UNL     1       5.948   4.554  14.354  0.00  0.00    +0.000 A 
ATOM      9  C   UNL     1       7.148   5.162  13.951  0.00  0.00    +0.000 A 
ATOM     10  C   UNL     1       7.725   4.856  12.719  0.00  0.00    +0.000 A 
ATOM     11  C   UNL     1       7.107   3.936  11.878  0.00  0.00    +0.000 A 
ATOM     12  C   UNL     1       5.904   3.337  12.254  0.00  0.00    +0.000 A 
ATOM     13  C   UNL     1       5.320   3.647  13.487  0.00  0.00    +0.000 A 
ENDBRANCH   4   8
BRANCH   2  14
ATOM     14  O   UNL     1       5.845   3.581  19.070  0.00  0.00    +0.000 OA
ATOM     15  H   UNL     1       5.376   3.790  19.898  0.00  0.00    +0.000 HD
ENDBRANCH   2  14
BRANCH   1  16
ATOM     16  S   UNL     1       3.080   5.226  19.197  0.00  0.00    +0.000 S 
BRANCH  16  17
ATOM     17  C   UNL     1       1.905   4.562  18.028  0.00  0.00    +0.000 C 
BRANCH  17  18
ATOM     18  C   UNL     1       1.700   3.068  18.169  0.00  0.00    +0.000 C 
ATOM     19  O   UNL     1       0.747   2.474  18.647  0.00  0.00    +0.000 OA
BRANCH  18  21
ATOM     20  C   UNL     1       3.423   1.454  18.377  0.00  0.00    +0.000 C 
ATOM     21  O   UNL     1       2.789   2.465  17.600  0.00  0.00    +0.000 OA
ENDBRANCH  18  21
ENDBRANCH  17  18
ENDBRANCH  16  17
ENDBRANCH   1  16
TORSDOF 6
ENDMDL
MODEL 6
REMARK VINA RESULT:      -7.2      2.837      4.257
REMARK  Name = 
REMARK  7 active torsions:
REMARK  status: ('A' for Active; 'I' for Inactive)
REMARK    1  A    between atoms: C_1  and  O_2
REMARK    2  A    between atoms: O_2  and  C_3
REMARK    3  A    between atoms: C_3  and  C_5
REMARK    4  A    between atoms: C_5  and  S_6
REMARK    5  A    between atoms: S_6  and  C_7
REMARK    6  A    between atoms: C_8  and  O_9
REMARK    7  A    between atoms: C_11  and  C_12
REMARK                            x       y       z     vdW  Elec       q    Type
REMARK                         _______ _______ _______ _____ _____    ______ ____
ROOT
ATOM      1  C   UNL     1       4.181   3.959  17.783  0.00  0.00    +0.000 C 
ATOM      2  C   UNL     1       4.650   4.572  18.891  0.00  0.00    +0.000 C 
ATOM      3  C   UNL     1       3.818   5.631  19.594  0.00  0.00    +0.000 C 
ATOM      4  C   UNL     1       2.968   6.338  18.521  0.00  0.00    +0.000 C 
ATOM      5  C   UNL     1       1.996   5.328  17.904  0.00  0.00    +0.000 C 
ATOM      6  C   UNL     1       2.702   4.038  17.560  0.00  0.00    +0.000 C 
ATOM      7  O   UNL     1       2.074   3.057  17.162  0.00  0.00    +0.000 OA
ENDROOT
BRANCH   4   8
ATOM      8  C   UNL     1       2.253   7.589  18.978  0.00  0.00    +0.000 A 
ATOM      9  C   UNL     1       1.970   8.596  18.041  0.00  0.00    +0.000 A 
ATOM     10  C   UNL     1       1.226   9.719  18.402  0.00  0.00    +0.000 A 
ATOM     11  C   UNL     1       0.754   9.843  19.705  0.00  0.00    +0.000 A 
ATOM     12  C   UNL     1       1.043   8.861  20.654  0.00  0.00    +0.000 A 
ATOM     13  C   UNL     1       1.795   7.737  20.295  0.00  0.00    +0.000 A 
ENDBRANCH   4   8
BRANCH   2  14
ATOM     14  O   UNL     1       5.963   4.535  19.307  0.00  0.00    +0.000 OA
ATOM     15  H   UNL     1       6.028   5.106  20.094  0.00  0.00    +0.000 HD
ENDBRANCH   2  14
BRANCH   1  16
ATOM     16  S   UNL     1       5.092   3.401  16.423  0.00  0.00    +0.000 S 
BRANCH  16  17
ATOM     17  C   UNL     1       5.622   4.881  15.576  0.00  0.00    +0.000 C 
BRANCH  17  18
ATOM     18  C   UNL     1       7.050   5.272  15.894  0.00  0.00    +0.000 C 
ATOM     19  O   UNL     1       7.573   5.414  16.988  0.00  0.00    +0.000 OA
BRANCH  18  21
ATOM     20  C   UNL     1       7.084   4.768  13.579  0.00  0.00    +0.000 C 
ATOM     21  O   UNL     1       7.701   5.396  14.697  0.00  0.00    +0.000 OA
ENDBRANCH  18  21
ENDBRANCH  17  18
ENDBRANCH  16  17
ENDBRANCH   1  16
TORSDOF 6
ENDMDL
MODEL 7
REMARK VINA RESULT:      -7.2      2.841      4.454
REMARK  Name = 
REMARK  7 active torsions:
REMARK  status: ('A' for Active; 'I' for Inactive)
REMARK    1  A    between atoms: C_1  and  O_2
REMARK    2  A    between atoms: O_2  and  C_3
REMARK    3  A    between atoms: C_3  and  C_5
REMARK    4  A    between atoms: C_5  and  S_6
REMARK    5  A    between atoms: S_6  and  C_7
REMARK    6  A    between atoms: C_8  and  O_9
REMARK    7  A    between atoms: C_11  and  C_12
REMARK                            x       y       z     vdW  Elec       q    Type
REMARK                         _______ _______ _______ _____ _____    ______ ____
ROOT
ATOM      1  C   UNL     1       4.287   3.935  17.824  0.00  0.00    +0.000 C 
ATOM      2  C   UNL     1       4.722   4.558  18.941  0.00  0.00    +0.000 C 
ATOM      3  C   UNL     1       3.859   5.608  19.621  0.00  0.00    +0.000 C 
ATOM      4  C   UNL     1       3.025   6.299  18.525  0.00  0.00    +0.000 C 
ATOM      5  C   UNL     1       2.082   5.274  17.888  0.00  0.00    +0.000 C 
ATOM      6  C   UNL     1       2.814   3.993  17.566  0.00  0.00    +0.000 C 
ATOM      7  O   UNL     1       2.208   3.002  17.156  0.00  0.00    +0.000 OA
ENDROOT
BRANCH   4   8
ATOM      8  C   UNL     1       2.281   7.542  18.960  0.00  0.00    +0.000 A 
ATOM      9  C   UNL     1       1.971   8.524  18.006  0.00  0.00    +0.000 A 
ATOM     10  C   UNL     1       1.201   9.635  18.347  0.00  0.00    +0.000 A 
ATOM     11  C   UNL     1       0.732   9.774  19.650  0.00  0.00    +0.000 A 
ATOM     12  C   UNL     1       1.048   8.817  20.617  0.00  0.00    +0.000 A 
ATOM     13  C   UNL     1       1.825   7.705  20.276  0.00  0.00    +0.000 A 
ENDBRANCH   4   8
BRANCH   2  14
ATOM     14  O   UNL     1       6.024   4.541  19.387  0.00  0.00    +0.000 OA
ATOM     15  H   UNL     1       6.235   3.617  19.614  0.00  0.00    +0.000 HD
ENDBRANCH   2  14
BRANCH   1  16
ATOM     16  S   UNL     1       5.238   3.385  16.488  0.00  0.00    +0.000 S 
BRANCH  16  17
ATOM     17  C   UNL     1       5.522   4.837  15.487  0.00  0.00    +0.000 C 
BRANCH  17  18
ATOM     18  C   UNL     1       6.938   5.364  15.588  0.00  0.00    +0.000 C 
ATOM     19  O   UNL     1       7.729   5.595  14.687  0.00  0.00    +0.000 OA
BRANCH  18  21
ATOM     20  C   UNL     1       7.486   6.942  17.269  0.00  0.00    +0.000 C 
ATOM     21  O   UNL     1       7.179   5.598  16.914  0.00  0.00    +0.000 OA
ENDBRANCH  18  21
ENDBRANCH  17  18
ENDBRANCH  16  17
ENDBRANCH   1  16
TORSDOF 6
ENDMDL
MODEL 8
REMARK VINA RESULT:      -7.2      0.686      1.039
REMARK  Name = 
REMARK  7 active torsions:
REMARK  status: ('A' for Active; 'I' for Inactive)
REMARK    1  A    between atoms: C_1  and  O_2
REMARK    2  A    between atoms: O_2  and  C_3
REMARK    3  A    between atoms: C_3  and  C_5
REMARK    4  A    between atoms: C_5  and  S_6
REMARK    5  A    between atoms: S_6  and  C_7
REMARK    6  A    between atoms: C_8  and  O_9
REMARK    7  A    between atoms: C_11  and  C_12
REMARK                            x       y       z     vdW  Elec       q    Type
REMARK                         _______ _______ _______ _____ _____    ______ ____
ROOT
ATOM      1  C   UNL     1       6.345   5.430  15.911  0.00  0.00    +0.000 C 
ATOM      2  C   UNL     1       5.357   6.340  16.054  0.00  0.00    +0.000 C 
ATOM      3  C   UNL     1       4.398   6.254  17.229  0.00  0.00    +0.000 C 
ATOM      4  C   UNL     1       4.248   4.765  17.595  0.00  0.00    +0.000 C 
ATOM      5  C   UNL     1       5.601   4.225  18.069  0.00  0.00    +0.000 C 
ATOM      6  C   UNL     1       6.710   4.653  17.137  0.00  0.00    +0.000 C 
ATOM      7  O   UNL     1       7.889   4.420  17.406  0.00  0.00    +0.000 OA
ENDROOT
BRANCH   4   8
ATOM      8  C   UNL     1       3.147   4.444  18.580  0.00  0.00    +0.000 A 
ATOM      9  C   UNL     1       3.081   5.155  19.789  0.00  0.00    +0.000 A 
ATOM     10  C   UNL     1       2.026   4.958  20.678  0.00  0.00    +0.000 A 
ATOM     11  C   UNL     1       1.022   4.047  20.364  0.00  0.00    +0.000 A 
ATOM     12  C   UNL     1       1.081   3.317  19.176  0.00  0.00    +0.000 A 
ATOM     13  C   UNL     1       2.143   3.510  18.286  0.00  0.00    +0.000 A 
ENDBRANCH   4   8
BRANCH   2  14
ATOM     14  O   UNL     1       4.943   7.205  15.065  0.00  0.00    +0.000 OA
ATOM     15  H   UNL     1       5.039   6.734  14.218  0.00  0.00    +0.000 HD
ENDBRANCH   2  14
BRANCH   1  16
ATOM     16  S   UNL     1       6.996   4.806  14.435  0.00  0.00    +0.000 S 
BRANCH  16  17
ATOM     17  C   UNL     1       5.874   3.507  13.941  0.00  0.00    +0.000 C 
BRANCH  17  18
ATOM     18  C   UNL     1       5.718   3.393  12.439  0.00  0.00    +0.000 C 
ATOM     19  O   UNL     1       4.699   3.476  11.772  0.00  0.00    +0.000 OA
BRANCH  18  21
ATOM     20  C   UNL     1       7.204   2.007  11.218  0.00  0.00    +0.000 C 
ATOM     21  O   UNL     1       6.974   3.222  11.923  0.00  0.00    +0.000 OA
ENDBRANCH  18  21
ENDBRANCH  17  18
ENDBRANCH  16  17
ENDBRANCH   1  16
TORSDOF 6
ENDMDL
MODEL 9
REMARK VINA RESULT:      -7.1      2.817      4.199
REMARK  Name = 
REMARK  7 active torsions:
REMARK  status: ('A' for Active; 'I' for Inactive)
REMARK    1  A    between atoms: C_1  and  O_2
REMARK    2  A    between atoms: O_2  and  C_3
REMARK    3  A    between atoms: C_3  and  C_5
REMARK    4  A    between atoms: C_5  and  S_6
REMARK    5  A    between atoms: S_6  and  C_7
REMARK    6  A    between atoms: C_8  and  O_9
REMARK    7  A    between atoms: C_11  and  C_12
REMARK                            x       y       z     vdW  Elec       q    Type
REMARK                         _______ _______ _______ _____ _____    ______ ____
ROOT
ATOM      1  C   UNL     1       4.241   3.887  17.806  0.00  0.00    +0.000 C 
ATOM      2  C   UNL     1       4.689   4.551  18.892  0.00  0.00    +0.000 C 
ATOM      3  C   UNL     1       3.822   5.606  19.560  0.00  0.00    +0.000 C 
ATOM      4  C   UNL     1       2.952   6.249  18.464  0.00  0.00    +0.000 C 
ATOM      5  C   UNL     1       2.013   5.189  17.879  0.00  0.00    +0.000 C 
ATOM      6  C   UNL     1       2.761   3.912  17.579  0.00  0.00    +0.000 C 
ATOM      7  O   UNL     1       2.164   2.898  17.213  0.00  0.00    +0.000 OA
ENDROOT
BRANCH   4   8
ATOM      8  C   UNL     1       2.196   7.491  18.878  0.00  0.00    +0.000 A 
ATOM      9  C   UNL     1       1.783   7.628  20.214  0.00  0.00    +0.000 A 
ATOM     10  C   UNL     1       1.172   8.800  20.656  0.00  0.00    +0.000 A 
ATOM     11  C   UNL     1       0.969   9.850  19.766  0.00  0.00    +0.000 A 
ATOM     12  C   UNL     1       1.355   9.724  18.431  0.00  0.00    +0.000 A 
ATOM     13  C   UNL     1       1.963   8.546  17.984  0.00  0.00    +0.000 A 
ENDBRANCH   4   8
BRANCH   2  14
ATOM     14  O   UNL     1       6.001   4.570  19.310  0.00  0.00    +0.000 OA
ATOM     15  H   UNL     1       5.990   4.523  20.283  0.00  0.00    +0.000 HD
ENDBRANCH   2  14
BRANCH   1  16
ATOM     16  S   UNL     1       5.171   3.314  16.464  0.00  0.00    +0.000 S 
BRANCH  16  17
ATOM     17  C   UNL     1       5.654   4.781  15.569  0.00  0.00    +0.000 C 
BRANCH  17  18
ATOM     18  C   UNL     1       7.066   5.232  15.878  0.00  0.00    +0.000 C 
ATOM     19  O   UNL     1       7.607   5.343  16.967  0.00  0.00    +0.000 OA
BRANCH  18  21
ATOM     20  C   UNL     1       7.118   4.793  13.550  0.00  0.00    +0.000 C 
ATOM     21  O   UNL     1       7.682   5.455  14.676  0.00  0.00    +0.000 OA
ENDBRANCH  18  21
ENDBRANCH  17  18
ENDBRANCH  16  17
ENDBRANCH   1  16
TORSDOF 6
ENDMDL
