MODEL 1
REMARK VINA RESULT:      -8.1      0.000      0.000
REMARK  Name = 
REMARK  4 active torsions:
REMARK  status: ('A' for Active; 'I' for Inactive)
REMARK    1  A    between atoms: C_1  and  C_2
REMARK    2  A    between atoms: C_2  and  C_3
REMARK    3  A    between atoms: C_10  and  C_11
REMARK    4  A    between atoms: N_17  and  N_18
REMARK                            x       y       z     vdW  Elec       q    Type
REMARK                         _______ _______ _______ _____ _____    ______ ____
ROOT
ATOM      1  C   UNL     1      -0.109  13.622  18.419  0.00  0.00    +0.000 C 
ATOM      2  C   UNL     1      -0.311  12.358  19.276  0.00  0.00    +0.000 C 
ATOM      3  C   UNL     1      -1.738  11.829  19.054  0.00  0.00    +0.000 C 
ATOM      4  C   UNL     1       0.743  11.339  18.822  0.00  0.00    +0.000 C 
ATOM      5  C   UNL     1       0.819  10.217  19.792  0.00  0.00    +0.000 A 
ATOM      6  C   UNL     1       0.424  10.369  21.098  0.00  0.00    +0.000 A 
ATOM      7  S   UNL     1       0.699   8.933  22.002  0.00  0.00    +0.000 S 
ATOM      8  C   UNL     1       1.394   8.119  20.657  0.00  0.00    +0.000 A 
ATOM      9  N   UNL     1       1.906   6.845  20.683  0.00  0.00    +0.000 NA
ATOM     10  C   UNL     1       2.590   6.505  19.621  0.00  0.00    +0.000 A 
ATOM     11  N   UNL     1       2.758   7.378  18.521  0.00  0.00    +0.000 N 
ATOM     12  C   UNL     1       1.941   8.478  18.331  0.00  0.00    +0.000 A 
ATOM     13  O   UNL     1       1.845   9.060  17.249  0.00  0.00    +0.000 OA
ATOM     14  C   UNL     1       1.350   8.939  19.555  0.00  0.00    +0.000 A 
ATOM     15  C   UNL     1      -0.193  11.629  21.634  0.00  0.00    +0.000 C 
ATOM     16  O   UNL     1      -0.079  12.706  20.659  0.00  0.00    +0.000 OA
ENDROOT
BRANCH  10  17
ATOM     17  C   UNL     1       3.100   5.058  19.400  0.00  0.00    +0.000 C 
ATOM     18  C   UNL     1       2.743   4.013  20.464  0.00  0.00    +0.000 C 
ATOM     19  C   UNL     1       1.273   3.651  20.431  0.00  0.00    +0.000 C 
ATOM     20  C   UNL     1       0.846   3.127  19.067  0.00  0.00    +0.000 C 
ATOM     21  C   UNL     1       1.362   3.935  17.877  0.00  0.00    +0.000 C 
ATOM     22  C   UNL     1       2.792   4.454  18.023  0.00  0.00    +0.000 C 
ENDBRANCH  10  17
BRANCH  11  23
ATOM     23  N   UNL     1       3.898   7.334  17.671  0.00  0.00    +0.000 N 
ATOM     24  H   UNL     1       4.347   6.434  17.764  0.00  0.00    +0.000 HD
ATOM     25  H   UNL     1       3.529   7.341  16.704  0.00  0.00    +0.000 HD
ENDBRANCH  11  23
TORSDOF 2
ENDMDL
MODEL 2
REMARK VINA RESULT:      -7.4      1.349      1.590
REMARK  Name = 
REMARK  4 active torsions:
REMARK  status: ('A' for Active; 'I' for Inactive)
REMARK    1  A    between atoms: C_1  and  C_2
REMARK    2  A    between atoms: C_2  and  C_3
REMARK    3  A    between atoms: C_10  and  C_11
REMARK    4  A    between atoms: N_17  and  N_18
REMARK                            x       y       z     vdW  Elec       q    Type
REMARK                         _______ _______ _______ _____ _____    ______ ____
ROOT
ATOM      1  C   UNL     1       0.269  12.586  18.586  0.00  0.00    +0.000 C 
ATOM      2  C   UNL     1       0.127  11.164  19.162  0.00  0.00    +0.000 C 
ATOM      3  C   UNL     1      -1.197  10.558  18.670  0.00  0.00    +0.000 C 
ATOM      4  C   UNL     1       1.334  10.359  18.663  0.00  0.00    +0.000 C 
ATOM      5  C   UNL     1       1.438   9.080  19.411  0.00  0.00    +0.000 A 
ATOM      6  C   UNL     1       0.895   8.933  20.663  0.00  0.00    +0.000 A 
ATOM      7  S   UNL     1       1.238   7.379  21.311  0.00  0.00    +0.000 S 
ATOM      8  C   UNL     1       2.159   6.915  19.937  0.00  0.00    +0.000 A 
ATOM      9  N   UNL     1       2.810   5.715  19.791  0.00  0.00    +0.000 NA
ATOM     10  C   UNL     1       3.637   5.657  18.777  0.00  0.00    +0.000 A 
ATOM     11  N   UNL     1       3.816   6.741  17.887  0.00  0.00    +0.000 N 
ATOM     12  C   UNL     1       2.902   7.776  17.804  0.00  0.00    +0.000 A 
ATOM     13  O   UNL     1       2.851   8.548  16.845  0.00  0.00    +0.000 OA
ATOM     14  C   UNL     1       2.137   7.929  19.009  0.00  0.00    +0.000 A 
ATOM     15  C   UNL     1       0.082   9.999  21.341  0.00  0.00    +0.000 C 
ATOM     16  O   UNL     1       0.172  11.253  20.604  0.00  0.00    +0.000 OA
ENDROOT
BRANCH  10  17
ATOM     17  C   UNL     1       4.332   4.336  18.358  0.00  0.00    +0.000 C 
ATOM     18  C   UNL     1       4.593   3.296  19.454  0.00  0.00    +0.000 C 
ATOM     19  C   UNL     1       3.314   2.639  19.927  0.00  0.00    +0.000 C 
ATOM     20  C   UNL     1       2.562   1.969  18.785  0.00  0.00    +0.000 C 
ATOM     21  C   UNL     1       2.453   2.803  17.510  0.00  0.00    +0.000 C 
ATOM     22  C   UNL     1       3.702   3.612  17.161  0.00  0.00    +0.000 C 
ENDBRANCH  10  17
BRANCH  11  23
ATOM     23  N   UNL     1       5.036   6.973  17.194  0.00  0.00    +0.000 N 
ATOM     24  H   UNL     1       5.649   6.182  17.326  0.00  0.00    +0.000 HD
ATOM     25  H   UNL     1       4.797   6.950  16.187  0.00  0.00    +0.000 HD
ENDBRANCH  11  23
TORSDOF 2
ENDMDL
MODEL 3
REMARK VINA RESULT:      -7.2      2.892      4.409
REMARK  Name = 
REMARK  4 active torsions:
REMARK  status: ('A' for Active; 'I' for Inactive)
REMARK    1  A    between atoms: C_1  and  C_2
REMARK    2  A    between atoms: C_2  and  C_3
REMARK    3  A    between atoms: C_10  and  C_11
REMARK    4  A    between atoms: N_17  and  N_18
REMARK                            x       y       z     vdW  Elec       q    Type
REMARK                         _______ _______ _______ _____ _____    ______ ____
ROOT
ATOM      1  C   UNL     1      -0.742   8.902  22.770  0.00  0.00    +0.000 C 
ATOM      2  C   UNL     1       0.343   9.109  21.695  0.00  0.00    +0.000 C 
ATOM      3  C   UNL     1       1.525   9.866  22.321  0.00  0.00    +0.000 C 
ATOM      4  C   UNL     1       0.762   7.714  21.211  0.00  0.00    +0.000 C 
ATOM      5  C   UNL     1       1.573   7.828  19.971  0.00  0.00    +0.000 A 
ATOM      6  C   UNL     1       1.474   8.920  19.145  0.00  0.00    +0.000 A 
ATOM      7  S   UNL     1       2.468   8.739  17.754  0.00  0.00    +0.000 S 
ATOM      8  C   UNL     1       2.997   7.175  18.231  0.00  0.00    +0.000 A 
ATOM      9  N   UNL     1       3.842   6.372  17.506  0.00  0.00    +0.000 NA
ATOM     10  C   UNL     1       3.932   5.138  17.934  0.00  0.00    +0.000 A 
ATOM     11  N   UNL     1       3.233   4.684  19.076  0.00  0.00    +0.000 N 
ATOM     12  C   UNL     1       2.706   5.561  20.006  0.00  0.00    +0.000 A 
ATOM     13  O   UNL     1       2.384   5.215  21.145  0.00  0.00    +0.000 OA
ATOM     14  C   UNL     1       2.446   6.858  19.450  0.00  0.00    +0.000 A 
ATOM     15  C   UNL     1       0.623  10.117  19.456  0.00  0.00    +0.000 C 
ATOM     16  O   UNL     1      -0.242   9.843  20.597  0.00  0.00    +0.000 OA
ENDROOT
BRANCH  10  17
ATOM     17  C   UNL     1       4.959   4.136  17.346  0.00  0.00    +0.000 C 
ATOM     18  C   UNL     1       5.013   3.995  15.820  0.00  0.00    +0.000 C 
ATOM     19  C   UNL     1       5.612   5.217  15.159  0.00  0.00    +0.000 C 
ATOM     20  C   UNL     1       7.015   5.512  15.672  0.00  0.00    +0.000 C 
ATOM     21  C   UNL     1       7.175   5.427  17.189  0.00  0.00    +0.000 C 
ATOM     22  C   UNL     1       6.398   4.293  17.856  0.00  0.00    +0.000 C 
ENDBRANCH  10  17
BRANCH  11  23
ATOM     23  N   UNL     1       2.817   3.333  19.236  0.00  0.00    +0.000 N 
ATOM     24  H   UNL     1       1.808   3.293  19.237  0.00  0.00    +0.000 HD
ATOM     25  H   UNL     1       3.094   2.847  18.365  0.00  0.00    +0.000 HD
ENDBRANCH  11  23
TORSDOF 2
ENDMDL
MODEL 4
REMARK VINA RESULT:      -6.9      0.979      1.175
REMARK  Name = 
REMARK  4 active torsions:
REMARK  status: ('A' for Active; 'I' for Inactive)
REMARK    1  A    between atoms: C_1  and  C_2
REMARK    2  A    between atoms: C_2  and  C_3
REMARK    3  A    between atoms: C_10  and  C_11
REMARK    4  A    between atoms: N_17  and  N_18
REMARK                            x       y       z     vdW  Elec       q    Type
REMARK                         _______ _______ _______ _____ _____    ______ ____
ROOT
ATOM      1  C   UNL     1       0.473  13.520  19.946  0.00  0.00    +0.000 C 
ATOM      2  C   UNL     1       0.147  12.063  20.328  0.00  0.00    +0.000 C 
ATOM      3  C   UNL     1      -1.302  11.754  19.919  0.00  0.00    +0.000 C 
ATOM      4  C   UNL     1       1.146  11.172  19.578  0.00  0.00    +0.000 C 
ATOM      5  C   UNL     1       1.102   9.790  20.119  0.00  0.00    +0.000 A 
ATOM      6  C   UNL     1       0.664   9.531  21.394  0.00  0.00    +0.000 A 
ATOM      7  S   UNL     1       0.799   7.859  21.770  0.00  0.00    +0.000 S 
ATOM      8  C   UNL     1       1.491   7.484  20.243  0.00  0.00    +0.000 A 
ATOM      9  N   UNL     1       1.911   6.237  19.851  0.00  0.00    +0.000 NA
ATOM     10  C   UNL     1       2.614   6.215  18.747  0.00  0.00    +0.000 A 
ATOM     11  N   UNL     1       2.889   7.387  18.004  0.00  0.00    +0.000 N 
ATOM     12  C   UNL     1       2.161   8.549  18.179  0.00  0.00    +0.000 A 
ATOM     13  O   UNL     1       2.151   9.463  17.353  0.00  0.00    +0.000 OA
ATOM     14  C   UNL     1       1.552   8.624  19.477  0.00  0.00    +0.000 A 
ATOM     15  C   UNL     1       0.114  10.587  22.309  0.00  0.00    +0.000 C 
ATOM     16  O   UNL     1       0.345  11.914  21.752  0.00  0.00    +0.000 OA
ENDROOT
BRANCH  10  17
ATOM     17  C   UNL     1       3.031   4.886  18.064  0.00  0.00    +0.000 C 
ATOM     18  C   UNL     1       4.040   3.999  18.803  0.00  0.00    +0.000 C 
ATOM     19  C   UNL     1       3.431   3.346  20.024  0.00  0.00    +0.000 C 
ATOM     20  C   UNL     1       2.209   2.509  19.674  0.00  0.00    +0.000 C 
ATOM     21  C   UNL     1       1.226   3.178  18.715  0.00  0.00    +0.000 C 
ATOM     22  C   UNL     1       1.872   3.995  17.597  0.00  0.00    +0.000 C 
ENDBRANCH  10  17
BRANCH  11  23
ATOM     23  N   UNL     1       4.058   7.536  17.208  0.00  0.00    +0.000 N 
ATOM     24  H   UNL     1       4.448   6.624  17.016  0.00  0.00    +0.000 HD
ATOM     25  H   UNL     1       3.731   7.876  16.287  0.00  0.00    +0.000 HD
ENDBRANCH  11  23
TORSDOF 2
ENDMDL
MODEL 5
REMARK VINA RESULT:      -6.5      2.557      7.149
REMARK  Name = 
REMARK  4 active torsions:
REMARK  status: ('A' for Active; 'I' for Inactive)
REMARK    1  A    between atoms: C_1  and  C_2
REMARK    2  A    between atoms: C_2  and  C_3
REMARK    3  A    between atoms: C_10  and  C_11
REMARK    4  A    between atoms: N_17  and  N_18
REMARK                            x       y       z     vdW  Elec       q    Type
REMARK                         _______ _______ _______ _____ _____    ______ ____
ROOT
ATOM      1  C   UNL     1       4.368   2.467  19.323  0.00  0.00    +0.000 C 
ATOM      2  C   UNL     1       3.815   3.656  18.515  0.00  0.00    +0.000 C 
ATOM      3  C   UNL     1       2.659   3.162  17.630  0.00  0.00    +0.000 C 
ATOM      4  C   UNL     1       3.338   4.702  19.531  0.00  0.00    +0.000 C 
ATOM      5  C   UNL     1       3.076   5.995  18.846  0.00  0.00    +0.000 A 
ATOM      6  C   UNL     1       3.682   6.314  17.657  0.00  0.00    +0.000 A 
ATOM      7  S   UNL     1       3.251   7.898  17.145  0.00  0.00    +0.000 S 
ATOM      8  C   UNL     1       2.289   8.179  18.541  0.00  0.00    +0.000 A 
ATOM      9  N   UNL     1       1.629   9.349  18.822  0.00  0.00    +0.000 NA
ATOM     10  C   UNL     1       1.148   9.432  20.036  0.00  0.00    +0.000 A 
ATOM     11  N   UNL     1       1.277   8.379  20.972  0.00  0.00    +0.000 N 
ATOM     12  C   UNL     1       1.588   7.090  20.581  0.00  0.00    +0.000 A 
ATOM     13  O   UNL     1       1.396   6.108  21.301  0.00  0.00    +0.000 OA
ATOM     14  C   UNL     1       2.282   7.050  19.325  0.00  0.00    +0.000 A 
ATOM     15  C   UNL     1       4.577   5.370  16.906  0.00  0.00    +0.000 C 
ATOM     16  O   UNL     1       4.894   4.208  17.727  0.00  0.00    +0.000 OA
ENDROOT
BRANCH  10  17
ATOM     17  C   UNL     1       0.233  10.602  20.480  0.00  0.00    +0.000 C 
ATOM     18  C   UNL     1       0.892  11.967  20.709  0.00  0.00    +0.000 C 
ATOM     19  C   UNL     1       1.326  12.611  19.409  0.00  0.00    +0.000 C 
ATOM     20  C   UNL     1       0.162  12.786  18.444  0.00  0.00    +0.000 C 
ATOM     21  C   UNL     1      -0.754  11.570  18.314  0.00  0.00    +0.000 C 
ATOM     22  C   UNL     1      -1.019  10.822  19.620  0.00  0.00    +0.000 C 
ENDBRANCH  10  17
BRANCH  11  23
ATOM     23  N   UNL     1       1.331   8.601  22.376  0.00  0.00    +0.000 N 
ATOM     24  H   UNL     1       2.251   8.360  22.715  0.00  0.00    +0.000 HD
ATOM     25  H   UNL     1       1.269   9.627  22.502  0.00  0.00    +0.000 HD
ENDBRANCH  11  23
TORSDOF 2
ENDMDL
MODEL 6
REMARK VINA RESULT:      -6.5      2.687      6.789
REMARK  Name = 
REMARK  4 active torsions:
REMARK  status: ('A' for Active; 'I' for Inactive)
REMARK    1  A    between atoms: C_1  and  C_2
REMARK    2  A    between atoms: C_2  and  C_3
REMARK    3  A    between atoms: C_10  and  C_11
REMARK    4  A    between atoms: N_17  and  N_18
REMARK                            x       y       z     vdW  Elec       q    Type
REMARK                         _______ _______ _______ _____ _____    ______ ____
ROOT
ATOM      1  C   UNL     1       5.928   4.090  15.271  0.00  0.00    +0.000 C 
ATOM      2  C   UNL     1       5.465   4.308  16.724  0.00  0.00    +0.000 C 
ATOM      3  C   UNL     1       6.695   4.598  17.600  0.00  0.00    +0.000 C 
ATOM      4  C   UNL     1       4.494   5.496  16.708  0.00  0.00    +0.000 C 
ATOM      5  C   UNL     1       3.771   5.580  18.004  0.00  0.00    +0.000 A 
ATOM      6  C   UNL     1       3.612   4.481  18.811  0.00  0.00    +0.000 A 
ATOM      7  S   UNL     1       2.671   4.859  20.199  0.00  0.00    +0.000 S 
ATOM      8  C   UNL     1       2.432   6.486  19.698  0.00  0.00    +0.000 A 
ATOM      9  N   UNL     1       1.682   7.417  20.371  0.00  0.00    +0.000 NA
ATOM     10  C   UNL     1       1.442   8.518  19.705  0.00  0.00    +0.000 A 
ATOM     11  N   UNL     1       1.947   8.735  18.401  0.00  0.00    +0.000 N 
ATOM     12  C   UNL     1       2.994   7.989  17.891  0.00  0.00    +0.000 A 
ATOM     13  O   UNL     1       3.659   8.349  16.918  0.00  0.00    +0.000 OA
ATOM     14  C   UNL     1       3.112   6.706  18.523  0.00  0.00    +0.000 A 
ATOM     15  C   UNL     1       4.220   3.141  18.511  0.00  0.00    +0.000 C 
ATOM     16  O   UNL     1       4.766   3.121  17.160  0.00  0.00    +0.000 OA
ENDROOT
BRANCH  10  17
ATOM     17  C   UNL     1       0.756   9.744  20.361  0.00  0.00    +0.000 C 
ATOM     18  C   UNL     1      -0.707   9.589  20.790  0.00  0.00    +0.000 C 
ATOM     19  C   UNL     1      -0.851   8.684  21.995  0.00  0.00    +0.000 C 
ATOM     20  C   UNL     1      -0.044   9.186  23.184  0.00  0.00    +0.000 C 
ATOM     21  C   UNL     1       1.378   9.635  22.851  0.00  0.00    +0.000 C 
ATOM     22  C   UNL     1       1.524  10.382  21.526  0.00  0.00    +0.000 C 
ENDBRANCH  10  17
BRANCH  11  23
ATOM     23  N   UNL     1       1.283   9.554  17.446  0.00  0.00    +0.000 N 
ATOM     24  H   UNL     1       0.300   9.595  17.670  0.00  0.00    +0.000 HD
ATOM     25  H   UNL     1       1.627  10.516  17.613  0.00  0.00    +0.000 HD
ENDBRANCH  11  23
TORSDOF 2
ENDMDL
MODEL 7
REMARK VINA RESULT:      -6.3      4.738      8.428
REMARK  Name = 
REMARK  4 active torsions:
REMARK  status: ('A' for Active; 'I' for Inactive)
REMARK    1  A    between atoms: C_1  and  C_2
REMARK    2  A    between atoms: C_2  and  C_3
REMARK    3  A    between atoms: C_10  and  C_11
REMARK    4  A    between atoms: N_17  and  N_18
REMARK                            x       y       z     vdW  Elec       q    Type
REMARK                         _______ _______ _______ _____ _____    ______ ____
ROOT
ATOM      1  C   UNL     1       1.735   9.013  17.840  0.00  0.00    +0.000 C 
ATOM      2  C   UNL     1       1.082  10.131  18.675  0.00  0.00    +0.000 C 
ATOM      3  C   UNL     1       1.803  11.457  18.380  0.00  0.00    +0.000 C 
ATOM      4  C   UNL     1      -0.394  10.190  18.262  0.00  0.00    +0.000 C 
ATOM      5  C   UNL     1      -1.160  11.024  19.225  0.00  0.00    +0.000 A 
ATOM      6  C   UNL     1      -0.724  11.218  20.512  0.00  0.00    +0.000 A 
ATOM      7  S   UNL     1      -1.847  12.156  21.414  0.00  0.00    +0.000 S 
ATOM      8  C   UNL     1      -2.945  12.263  20.096  0.00  0.00    +0.000 A 
ATOM      9  N   UNL     1      -4.167  12.888  20.135  0.00  0.00    +0.000 NA
ATOM     10  C   UNL     1      -4.938  12.655  19.103  0.00  0.00    +0.000 A 
ATOM     11  N   UNL     1      -4.524  11.845  18.020  0.00  0.00    +0.000 N 
ATOM     12  C   UNL     1      -3.192  11.543  17.802  0.00  0.00    +0.000 A 
ATOM     13  O   UNL     1      -2.769  11.126  16.723  0.00  0.00    +0.000 OA
ATOM     14  C   UNL     1      -2.407  11.630  19.001  0.00  0.00    +0.000 A 
ATOM     15  C   UNL     1       0.585  10.694  21.029  0.00  0.00    +0.000 C 
ATOM     16  O   UNL     1       1.177   9.769  20.071  0.00  0.00    +0.000 OA
ENDROOT
BRANCH  10  17
ATOM     17  C   UNL     1      -6.279  13.403  18.894  0.00  0.00    +0.000 C 
ATOM     18  C   UNL     1      -7.557  12.714  19.388  0.00  0.00    +0.000 C 
ATOM     19  C   UNL     1      -7.640  12.694  20.899  0.00  0.00    +0.000 C 
ATOM     20  C   UNL     1      -7.579  14.094  21.492  0.00  0.00    +0.000 C 
ATOM     21  C   UNL     1      -6.503  14.999  20.895  0.00  0.00    +0.000 C 
ATOM     22  C   UNL     1      -6.306  14.857  19.386  0.00  0.00    +0.000 C 
ENDBRANCH  10  17
BRANCH  11  23
ATOM     23  N   UNL     1      -5.437  11.098  17.226  0.00  0.00    +0.000 N 
ATOM     24  H   UNL     1      -6.285  11.631  17.104  0.00  0.00    +0.000 HD
ATOM     25  H   UNL     1      -5.019  11.055  16.280  0.00  0.00    +0.000 HD
ENDBRANCH  11  23
TORSDOF 2
ENDMDL
MODEL 8
REMARK VINA RESULT:      -6.2      1.930      3.121
REMARK  Name = 
REMARK  4 active torsions:
REMARK  status: ('A' for Active; 'I' for Inactive)
REMARK    1  A    between atoms: C_1  and  C_2
REMARK    2  A    between atoms: C_2  and  C_3
REMARK    3  A    between atoms: C_10  and  C_11
REMARK    4  A    between atoms: N_17  and  N_18
REMARK                            x       y       z     vdW  Elec       q    Type
REMARK                         _______ _______ _______ _____ _____    ______ ____
ROOT
ATOM      1  C   UNL     1      -1.764  11.901  21.655  0.00  0.00    +0.000 C 
ATOM      2  C   UNL     1      -0.532  11.611  20.776  0.00  0.00    +0.000 C 
ATOM      3  C   UNL     1       0.656  12.433  21.299  0.00  0.00    +0.000 C 
ATOM      4  C   UNL     1      -0.260  10.104  20.875  0.00  0.00    +0.000 C 
ATOM      5  C   UNL     1       0.712   9.692  19.829  0.00  0.00    +0.000 A 
ATOM      6  C   UNL     1       0.878  10.419  18.676  0.00  0.00    +0.000 A 
ATOM      7  S   UNL     1       2.006   9.663  17.622  0.00  0.00    +0.000 S 
ATOM      8  C   UNL     1       2.238   8.333  18.686  0.00  0.00    +0.000 A 
ATOM      9  N   UNL     1       3.044   7.252  18.433  0.00  0.00    +0.000 NA
ATOM     10  C   UNL     1       2.900   6.251  19.265  0.00  0.00    +0.000 A 
ATOM     11  N   UNL     1       2.002   6.301  20.356  0.00  0.00    +0.000 N 
ATOM     12  C   UNL     1       1.492   7.497  20.827  0.00  0.00    +0.000 A 
ATOM     13  O   UNL     1       0.980   7.613  21.942  0.00  0.00    +0.000 OA
ATOM     14  C   UNL     1       1.495   8.526  19.826  0.00  0.00    +0.000 A 
ATOM     15  C   UNL     1       0.175  11.719  18.411  0.00  0.00    +0.000 C 
ATOM     16  O   UNL     1      -0.860  11.952  19.410  0.00  0.00    +0.000 OA
ENDROOT
BRANCH  10  17
ATOM     17  C   UNL     1       3.839   5.017  19.237  0.00  0.00    +0.000 C 
ATOM     18  C   UNL     1       3.392   3.808  18.407  0.00  0.00    +0.000 C 
ATOM     19  C   UNL     1       3.473   4.081  16.921  0.00  0.00    +0.000 C 
ATOM     20  C   UNL     1       4.879   4.478  16.490  0.00  0.00    +0.000 C 
ATOM     21  C   UNL     1       5.564   5.500  17.395  0.00  0.00    +0.000 C 
ATOM     22  C   UNL     1       5.304   5.313  18.890  0.00  0.00    +0.000 C 
ENDBRANCH  10  17
BRANCH  11  23
ATOM     23  N   UNL     1       1.379   5.140  20.893  0.00  0.00    +0.000 N 
ATOM     24  H   UNL     1       1.944   4.779  21.647  0.00  0.00    +0.000 HD
ATOM     25  H   UNL     1       0.513   5.472  21.353  0.00  0.00    +0.000 HD
ENDBRANCH  11  23
TORSDOF 2
ENDMDL
MODEL 9
REMARK VINA RESULT:      -6.2      2.591      7.160
REMARK  Name = 
REMARK  4 active torsions:
REMARK  status: ('A' for Active; 'I' for Inactive)
REMARK    1  A    between atoms: C_1  and  C_2
REMARK    2  A    between atoms: C_2  and  C_3
REMARK    3  A    between atoms: C_10  and  C_11
REMARK    4  A    between atoms: N_17  and  N_18
REMARK                            x       y       z     vdW  Elec       q    Type
REMARK                         _______ _______ _______ _____ _____    ______ ____
ROOT
ATOM      1  C   UNL     1       2.195   3.135  21.449  0.00  0.00    +0.000 C 
ATOM      2  C   UNL     1       2.132   4.129  20.274  0.00  0.00    +0.000 C 
ATOM      3  C   UNL     1       1.030   3.679  19.300  0.00  0.00    +0.000 C 
ATOM      4  C   UNL     1       1.823   5.508  20.873  0.00  0.00    +0.000 C 
ATOM      5  C   UNL     1       2.045   6.567  19.854  0.00  0.00    +0.000 A 
ATOM      6  C   UNL     1       2.890   6.374  18.790  0.00  0.00    +0.000 A 
ATOM      7  S   UNL     1       3.008   7.793  17.826  0.00  0.00    +0.000 S 
ATOM      8  C   UNL     1       1.966   8.686  18.861  0.00  0.00    +0.000 A 
ATOM      9  N   UNL     1       1.630  10.006  18.694  0.00  0.00    +0.000 NA
ATOM     10  C   UNL     1       1.015  10.550  19.713  0.00  0.00    +0.000 A 
ATOM     11  N   UNL     1       0.697   9.818  20.881  0.00  0.00    +0.000 N 
ATOM     12  C   UNL     1       0.684   8.435  20.894  0.00  0.00    +0.000 A 
ATOM     13  O   UNL     1       0.115   7.780  21.769  0.00  0.00    +0.000 OA
ATOM     14  C   UNL     1       1.521   7.870  19.874  0.00  0.00    +0.000 A 
ATOM     15  C   UNL     1       3.583   5.072  18.510  0.00  0.00    +0.000 C 
ATOM     16  O   UNL     1       3.429   4.161  19.637  0.00  0.00    +0.000 OA
ENDROOT
BRANCH  10  17
ATOM     17  C   UNL     1       0.413  11.978  19.644  0.00  0.00    +0.000 C 
ATOM     18  C   UNL     1       0.766  12.948  20.777  0.00  0.00    +0.000 C 
ATOM     19  C   UNL     1       2.209  13.399  20.707  0.00  0.00    +0.000 C 
ATOM     20  C   UNL     1       2.535  14.062  19.376  0.00  0.00    +0.000 C 
ATOM     21  C   UNL     1       2.005  13.328  18.146  0.00  0.00    +0.000 C 
ATOM     22  C   UNL     1       0.615  12.713  18.312  0.00  0.00    +0.000 C 
ENDBRANCH  10  17
BRANCH  11  23
ATOM     23  N   UNL     1       0.599  10.423  22.165  0.00  0.00    +0.000 N 
ATOM     24  H   UNL     1       1.143   9.888  22.826  0.00  0.00    +0.000 HD
ATOM     25  H   UNL     1       1.098  11.326  22.090  0.00  0.00    +0.000 HD
ENDBRANCH  11  23
TORSDOF 2
ENDMDL
