MODEL 1
REMARK VINA RESULT:      -8.5      0.000      0.000
REMARK  Name = 
REMARK  15 active torsions:
REMARK  status: ('A' for Active; 'I' for Inactive)
REMARK    1  A    between atoms: CD_2  and  CG_4
REMARK    2  A    between atoms: CG_4  and  CB_5
REMARK    3  A    between atoms: CB_5  and  CA_6
REMARK    4  A    between atoms: CA_6  and  N_7
REMARK    5  A    between atoms: CA_6  and  C_33
REMARK    6  A    between atoms: C_8  and  CA_10
REMARK    7  A    between atoms: CA_10  and  CB_11
REMARK    8  A    between atoms: CA_10  and  N_18
REMARK    9  A    between atoms: CB_11  and  CG_12
REMARK   10  A    between atoms: C_19  and  C_21
REMARK   11  A    between atoms: C_21  and  N_22
REMARK   12  A    between atoms: C_23  and  C_25
REMARK   13  A    between atoms: C_25  and  C_26
REMARK   14  A    between atoms: C_26  and  C_27
REMARK   15  A    between atoms: C_33  and  OXT_35
REMARK                            x       y       z     vdW  Elec       q    Type
REMARK                         _______ _______ _______ _____ _____    ______ ____
ROOT
ATOM      1  CA  PHE A   1       5.383   5.624  16.609  0.00  0.00    +0.000 C 
ENDROOT
BRANCH   1   3
ATOM      2  N   PHE A   1       4.329   3.925  18.004  0.00  0.00    +0.000 N 
ATOM      3  C   PHE A   1       4.675   5.270  17.944  0.00  0.00    +0.000 C 
ATOM      4  O   PHE A   1       4.550   6.026  18.896  0.00  0.00    +0.000 OA
ATOM      5  H   PHE A   1       4.831   3.324  17.351  0.00  0.00    +0.000 HD
BRANCH   2   6
ATOM      6  CA  PHE A   1       3.670   3.332  19.167  0.00  0.00    +0.000 C 
BRANCH   6   7
ATOM      7  C   PHE A   1       4.372   2.001  19.483  0.00  0.00    +0.000 C 
ATOM      8  O   PHE A   1       5.024   1.807  20.503  0.00  0.00    +0.000 OA
BRANCH   7   9
ATOM      9  OXT PHE A   1       4.204   1.046  18.548  0.00  0.00    +0.000 OA
ATOM     10  HXT PHE A   1       4.233   0.123  18.883  0.00  0.00    +0.000 HD
ENDBRANCH   7   9
ENDBRANCH   6   7
BRANCH   6  11
ATOM     11  CB  PHE A   1       2.173   3.122  18.849  0.00  0.00    +0.000 C 
BRANCH  11  12
ATOM     12  CG  PHE A   1       1.240   3.783  19.861  0.00  0.00    +0.000 C 
BRANCH  12  14
ATOM     13  NE2 PHE A   1       2.425   5.442  21.147  0.00  0.00    +0.000 N 
ATOM     14  CD  PHE A   1       1.969   4.155  21.136  0.00  0.00    +0.000 C 
ATOM     15  OE1 PHE A   1       2.156   3.404  22.081  0.00  0.00    +0.000 OA
ATOM     16 HE21 PHE A   1       2.945   5.741  21.963  0.00  0.00    +0.000 HD
ATOM     17 HE22 PHE A   1       2.507   5.990  20.303  0.00  0.00    +0.000 HD
ENDBRANCH  12  14
ENDBRANCH  11  12
ENDBRANCH   6  11
ENDBRANCH   2   6
ENDBRANCH   1   3
BRANCH   1  18
ATOM     18  N   PHE A   1       6.036   6.944  16.704  0.00  0.00    +0.000 N 
ATOM     19  C   UNK A   0       7.196   7.141  17.419  0.00  0.00    +0.000 C 
ATOM     20  O   UNK A   0       7.789   6.227  17.985  0.00  0.00    +0.000 OA
ATOM     21  H   PHE A   1       5.590   7.729  16.238  0.00  0.00    +0.000 HD
BRANCH  19  22
ATOM     22  C   UNK A   0       7.770   8.561  17.358  0.00  0.00    +0.000 C 
BRANCH  22  23
ATOM     23  N   UNK A   0       8.425   8.941  18.599  0.00  0.00    +0.000 N 
ATOM     24  C   UNK A   0       8.906  10.215  18.794  0.00  0.00    +0.000 C 
ATOM     25  O   UNK A   0       8.879  11.071  17.904  0.00  0.00    +0.000 OA
ATOM     26  H   UNK A   0       8.544   8.231  19.318  0.00  0.00    +0.000 HD
BRANCH  24  27
ATOM     27  C   UNK A   0       9.592  10.438  20.121  0.00  0.00    +0.000 C 
BRANCH  27  28
ATOM     28  C   UNK A   0      10.738  11.447  20.036  0.00  0.00    +0.000 C 
BRANCH  28  29
ATOM     29  C   UNK A   0      10.362  12.739  20.723  0.00  0.00    +0.000 A 
ATOM     30  C   UNK A   0      10.923  13.958  20.318  0.00  0.00    +0.000 A 
ATOM     31  C   UNK A   0      10.640  15.135  21.018  0.00  0.00    +0.000 A 
ATOM     32  C   UNK A   0       9.793  15.106  22.124  0.00  0.00    +0.000 A 
ATOM     33  C   UNK A   0       9.212  13.903  22.522  0.00  0.00    +0.000 A 
ATOM     34  C   UNK A   0       9.493  12.727  21.825  0.00  0.00    +0.000 A 
ENDBRANCH  28  29
ENDBRANCH  27  28
ENDBRANCH  24  27
ENDBRANCH  22  23
ENDBRANCH  19  22
ENDBRANCH   1  18
BRANCH   1  35
ATOM     35  CB  PHE A   1       6.318   4.484  16.165  0.00  0.00    +0.000 C 
BRANCH  35  36
ATOM     36  CG  PHE A   1       6.613   4.419  14.683  0.00  0.00    +0.000 A 
ATOM     37  CD1 PHE A   1       7.615   5.204  14.077  0.00  0.00    +0.000 A 
ATOM     38  CE1 PHE A   1       7.850   5.127  12.704  0.00  0.00    +0.000 A 
ATOM     39  CZ  PHE A   1       7.092   4.266  11.909  0.00  0.00    +0.000 A 
ATOM     40  CE2 PHE A   1       6.104   3.480  12.497  0.00  0.00    +0.000 A 
ATOM     41  CD2 PHE A   1       5.865   3.557  13.868  0.00  0.00    +0.000 A 
ENDBRANCH  35  36
ENDBRANCH   1  35
TORSDOF 15
ENDMDL
MODEL 2
REMARK VINA RESULT:      -8.4      4.019      5.846
REMARK  Name = 
REMARK  15 active torsions:
REMARK  status: ('A' for Active; 'I' for Inactive)
REMARK    1  A    between atoms: CD_2  and  CG_4
REMARK    2  A    between atoms: CG_4  and  CB_5
REMARK    3  A    between atoms: CB_5  and  CA_6
REMARK    4  A    between atoms: CA_6  and  N_7
REMARK    5  A    between atoms: CA_6  and  C_33
REMARK    6  A    between atoms: C_8  and  CA_10
REMARK    7  A    between atoms: CA_10  and  CB_11
REMARK    8  A    between atoms: CA_10  and  N_18
REMARK    9  A    between atoms: CB_11  and  CG_12
REMARK   10  A    between atoms: C_19  and  C_21
REMARK   11  A    between atoms: C_21  and  N_22
REMARK   12  A    between atoms: C_23  and  C_25
REMARK   13  A    between atoms: C_25  and  C_26
REMARK   14  A    between atoms: C_26  and  C_27
REMARK   15  A    between atoms: C_33  and  OXT_35
REMARK                            x       y       z     vdW  Elec       q    Type
REMARK                         _______ _______ _______ _____ _____    ______ ____
ROOT
ATOM      1  CA  PHE A   1       2.935   6.782  17.854  0.00  0.00    +0.000 C 
ENDROOT
BRANCH   1   3
ATOM      2  N   PHE A   1       1.691   8.404  19.182  0.00  0.00    +0.000 N 
ATOM      3  C   PHE A   1       2.418   8.237  18.009  0.00  0.00    +0.000 C 
ATOM      4  O   PHE A   1       2.715   9.171  17.278  0.00  0.00    +0.000 OA
ATOM      5  H   PHE A   1       1.850   7.689  19.889  0.00  0.00    +0.000 HD
BRANCH   2   6
ATOM      6  CA  PHE A   1       1.113   9.690  19.574  0.00  0.00    +0.000 C 
BRANCH   6   7
ATOM      7  C   PHE A   1       0.794   9.628  21.076  0.00  0.00    +0.000 C 
ATOM      8  O   PHE A   1       1.029  10.545  21.855  0.00  0.00    +0.000 OA
BRANCH   7   9
ATOM      9  OXT PHE A   1       0.217   8.479  21.477  0.00  0.00    +0.000 OA
ATOM     10  HXT PHE A   1       0.685   8.004  22.200  0.00  0.00    +0.000 HD
ENDBRANCH   7   9
ENDBRANCH   6   7
BRANCH   6  11
ATOM     11  CB  PHE A   1      -0.158   9.951  18.735  0.00  0.00    +0.000 C 
BRANCH  11  12
ATOM     12  CG  PHE A   1      -1.093  10.985  19.358  0.00  0.00    +0.000 C 
BRANCH  12  14
ATOM     13  NE2 PHE A   1      -0.169  12.998  20.307  0.00  0.00    +0.000 N 
ATOM     14  CD  PHE A   1      -0.584  12.397  19.154  0.00  0.00    +0.000 C 
ATOM     15  OE1 PHE A   1      -0.537  12.976  18.080  0.00  0.00    +0.000 OA
ATOM     16 HE21 PHE A   1       0.157  13.954  20.238  0.00  0.00    +0.000 HD
ATOM     17 HE22 PHE A   1      -0.426  12.648  21.218  0.00  0.00    +0.000 HD
ENDBRANCH  12  14
ENDBRANCH  11  12
ENDBRANCH   6  11
ENDBRANCH   2   6
ENDBRANCH   1   3
BRANCH   1  18
ATOM     18  N   PHE A   1       4.408   6.747  17.920  0.00  0.00    +0.000 N 
ATOM     19  C   UNK A   0       5.194   6.687  16.791  0.00  0.00    +0.000 C 
ATOM     20  O   UNK A   0       4.726   6.704  15.656  0.00  0.00    +0.000 OA
ATOM     21  H   PHE A   1       4.843   6.747  18.839  0.00  0.00    +0.000 HD
BRANCH  19  22
ATOM     22  C   UNK A   0       6.706   6.722  17.043  0.00  0.00    +0.000 C 
BRANCH  22  23
ATOM     23  N   UNK A   0       7.206   8.080  17.184  0.00  0.00    +0.000 N 
ATOM     24  C   UNK A   0       8.176   8.392  18.108  0.00  0.00    +0.000 C 
ATOM     25  O   UNK A   0       8.611   7.562  18.912  0.00  0.00    +0.000 OA
ATOM     26  H   UNK A   0       6.801   8.806  16.598  0.00  0.00    +0.000 HD
BRANCH  24  27
ATOM     27  C   UNK A   0       8.559   9.853  18.156  0.00  0.00    +0.000 C 
BRANCH  27  28
ATOM     28  C   UNK A   0       9.369  10.215  19.401  0.00  0.00    +0.000 C 
BRANCH  28  29
ATOM     29  C   UNK A   0      10.429  11.239  19.069  0.00  0.00    +0.000 A 
ATOM     30  C   UNK A   0      11.149  11.883  20.084  0.00  0.00    +0.000 A 
ATOM     31  C   UNK A   0      12.063  12.894  19.772  0.00  0.00    +0.000 A 
ATOM     32  C   UNK A   0      12.268  13.269  18.445  0.00  0.00    +0.000 A 
ATOM     33  C   UNK A   0      11.573  12.620  17.426  0.00  0.00    +0.000 A 
ATOM     34  C   UNK A   0      10.660  11.609  17.736  0.00  0.00    +0.000 A 
ENDBRANCH  28  29
ENDBRANCH  27  28
ENDBRANCH  24  27
ENDBRANCH  22  23
ENDBRANCH  19  22
ENDBRANCH   1  18
BRANCH   1  35
ATOM     35  CB  PHE A   1       2.233   5.842  18.851  0.00  0.00    +0.000 C 
BRANCH  35  36
ATOM     36  CG  PHE A   1       2.635   4.386  18.772  0.00  0.00    +0.000 A 
ATOM     37  CD1 PHE A   1       3.472   3.781  19.731  0.00  0.00    +0.000 A 
ATOM     38  CE1 PHE A   1       3.833   2.437  19.617  0.00  0.00    +0.000 A 
ATOM     39  CZ  PHE A   1       3.365   1.672  18.549  0.00  0.00    +0.000 A 
ATOM     40  CE2 PHE A   1       2.531   2.257  17.599  0.00  0.00    +0.000 A 
ATOM     41  CD2 PHE A   1       2.171   3.599  17.708  0.00  0.00    +0.000 A 
ENDBRANCH  35  36
ENDBRANCH   1  35
TORSDOF 15
ENDMDL
MODEL 3
REMARK VINA RESULT:      -8.2      2.872      5.343
REMARK  Name = 
REMARK  15 active torsions:
REMARK  status: ('A' for Active; 'I' for Inactive)
REMARK    1  A    between atoms: CD_2  and  CG_4
REMARK    2  A    between atoms: CG_4  and  CB_5
REMARK    3  A    between atoms: CB_5  and  CA_6
REMARK    4  A    between atoms: CA_6  and  N_7
REMARK    5  A    between atoms: CA_6  and  C_33
REMARK    6  A    between atoms: C_8  and  CA_10
REMARK    7  A    between atoms: CA_10  and  CB_11
REMARK    8  A    between atoms: CA_10  and  N_18
REMARK    9  A    between atoms: CB_11  and  CG_12
REMARK   10  A    between atoms: C_19  and  C_21
REMARK   11  A    between atoms: C_21  and  N_22
REMARK   12  A    between atoms: C_23  and  C_25
REMARK   13  A    between atoms: C_25  and  C_26
REMARK   14  A    between atoms: C_26  and  C_27
REMARK   15  A    between atoms: C_33  and  OXT_35
REMARK                            x       y       z     vdW  Elec       q    Type
REMARK                         _______ _______ _______ _____ _____    ______ ____
ROOT
ATOM      1  CA  PHE A   1       3.025   6.444  19.203  0.00  0.00    +0.000 C 
ENDROOT
BRANCH   1   3
ATOM      2  N   PHE A   1       1.942   4.586  20.353  0.00  0.00    +0.000 N 
ATOM      3  C   PHE A   1       2.092   5.206  19.118  0.00  0.00    +0.000 C 
ATOM      4  O   PHE A   1       1.447   4.878  18.133  0.00  0.00    +0.000 OA
ATOM      5  H   PHE A   1       2.188   5.166  21.155  0.00  0.00    +0.000 HD
BRANCH   2   6
ATOM      6  CA  PHE A   1       1.096   3.410  20.547  0.00  0.00    +0.000 C 
BRANCH   6   7
ATOM      7  C   PHE A   1       1.496   2.751  21.876  0.00  0.00    +0.000 C 
ATOM      8  O   PHE A   1       0.785   1.950  22.475  0.00  0.00    +0.000 OA
BRANCH   7   9
ATOM      9  OXT PHE A   1       2.709   3.113  22.336  0.00  0.00    +0.000 OA
ATOM     10  HXT PHE A   1       3.095   3.913  21.915  0.00  0.00    +0.000 HD
ENDBRANCH   7   9
ENDBRANCH   6   7
BRANCH   6  11
ATOM     11  CB  PHE A   1       1.289   2.445  19.355  0.00  0.00    +0.000 C 
BRANCH  11  12
ATOM     12  CG  PHE A   1       2.489   1.514  19.518  0.00  0.00    +0.000 C 
BRANCH  12  14
ATOM     13  NE2 PHE A   1       4.780   2.256  19.606  0.00  0.00    +0.000 N 
ATOM     14  CD  PHE A   1       3.708   2.038  18.789  0.00  0.00    +0.000 C 
ATOM     15  OE1 PHE A   1       3.765   2.261  17.589  0.00  0.00    +0.000 OA
ATOM     16 HE21 PHE A   1       5.617   2.634  19.179  0.00  0.00    +0.000 HD
ATOM     17 HE22 PHE A   1       4.686   2.323  20.609  0.00  0.00    +0.000 HD
ENDBRANCH  12  14
ENDBRANCH  11  12
ENDBRANCH   6  11
ENDBRANCH   2   6
ENDBRANCH   1   3
BRANCH   1  18
ATOM     18  N   PHE A   1       4.438   6.034  19.091  0.00  0.00    +0.000 N 
ATOM     19  C   UNK A   0       4.961   5.503  17.933  0.00  0.00    +0.000 C 
ATOM     20  O   UNK A   0       4.302   5.378  16.905  0.00  0.00    +0.000 OA
ATOM     21  H   PHE A   1       5.028   6.133  19.913  0.00  0.00    +0.000 HD
BRANCH  19  22
ATOM     22  C   UNK A   0       6.462   5.192  17.975  0.00  0.00    +0.000 C 
BRANCH  22  23
ATOM     23  N   UNK A   0       7.227   6.269  18.582  0.00  0.00    +0.000 N 
ATOM     24  C   UNK A   0       7.758   7.286  17.822  0.00  0.00    +0.000 C 
ATOM     25  O   UNK A   0       7.682   7.295  16.589  0.00  0.00    +0.000 OA
ATOM     26  H   UNK A   0       7.386   6.242  19.586  0.00  0.00    +0.000 HD
BRANCH  24  27
ATOM     27  C   UNK A   0       8.557   8.307  18.598  0.00  0.00    +0.000 C 
BRANCH  27  28
ATOM     28  C   UNK A   0       8.469   9.711  18.000  0.00  0.00    +0.000 C 
BRANCH  28  29
ATOM     29  C   UNK A   0       9.446  10.642  18.680  0.00  0.00    +0.000 A 
ATOM     30  C   UNK A   0      10.453  11.286  17.948  0.00  0.00    +0.000 A 
ATOM     31  C   UNK A   0      11.408  12.073  18.598  0.00  0.00    +0.000 A 
ATOM     32  C   UNK A   0      11.363  12.227  19.983  0.00  0.00    +0.000 A 
ATOM     33  C   UNK A   0      10.353  11.609  20.717  0.00  0.00    +0.000 A 
ATOM     34  C   UNK A   0       9.399  10.823  20.070  0.00  0.00    +0.000 A 
ENDBRANCH  28  29
ENDBRANCH  27  28
ENDBRANCH  24  27
ENDBRANCH  22  23
ENDBRANCH  19  22
ENDBRANCH   1  18
BRANCH   1  35
ATOM     35  CB  PHE A   1       2.596   7.524  18.193  0.00  0.00    +0.000 C 
BRANCH  35  36
ATOM     36  CG  PHE A   1       1.671   8.592  18.731  0.00  0.00    +0.000 A 
ATOM     37  CD1 PHE A   1       1.073   9.561  17.900  0.00  0.00    +0.000 A 
ATOM     38  CE1 PHE A   1       0.235  10.541  18.435  0.00  0.00    +0.000 A 
ATOM     39  CZ  PHE A   1      -0.025  10.573  19.805  0.00  0.00    +0.000 A 
ATOM     40  CE2 PHE A   1       0.555   9.615  20.635  0.00  0.00    +0.000 A 
ATOM     41  CD2 PHE A   1       1.395   8.637  20.105  0.00  0.00    +0.000 A 
ENDBRANCH  35  36
ENDBRANCH   1  35
TORSDOF 15
ENDMDL
MODEL 4
REMARK VINA RESULT:      -8.2      4.088      6.142
REMARK  Name = 
REMARK  15 active torsions:
REMARK  status: ('A' for Active; 'I' for Inactive)
REMARK    1  A    between atoms: CD_2  and  CG_4
REMARK    2  A    between atoms: CG_4  and  CB_5
REMARK    3  A    between atoms: CB_5  and  CA_6
REMARK    4  A    between atoms: CA_6  and  N_7
REMARK    5  A    between atoms: CA_6  and  C_33
REMARK    6  A    between atoms: C_8  and  CA_10
REMARK    7  A    between atoms: CA_10  and  CB_11
REMARK    8  A    between atoms: CA_10  and  N_18
REMARK    9  A    between atoms: CB_11  and  CG_12
REMARK   10  A    between atoms: C_19  and  C_21
REMARK   11  A    between atoms: C_21  and  N_22
REMARK   12  A    between atoms: C_23  and  C_25
REMARK   13  A    between atoms: C_25  and  C_26
REMARK   14  A    between atoms: C_26  and  C_27
REMARK   15  A    between atoms: C_33  and  OXT_35
REMARK                            x       y       z     vdW  Elec       q    Type
REMARK                         _______ _______ _______ _____ _____    ______ ____
ROOT
ATOM      1  CA  PHE A   1       3.025   6.688  18.198  0.00  0.00    +0.000 C 
ENDROOT
BRANCH   1   3
ATOM      2  N   PHE A   1       1.758   8.416  19.362  0.00  0.00    +0.000 N 
ATOM      3  C   PHE A   1       2.410   8.114  18.172  0.00  0.00    +0.000 C 
ATOM      4  O   PHE A   1       2.582   8.937  17.285  0.00  0.00    +0.000 OA
ATOM      5  H   PHE A   1       2.022   7.833  20.155  0.00  0.00    +0.000 HD
BRANCH   2   6
ATOM      6  CA  PHE A   1       1.113   9.707  19.600  0.00  0.00    +0.000 C 
BRANCH   6   7
ATOM      7  C   PHE A   1       0.965   9.891  21.119  0.00  0.00    +0.000 C 
ATOM      8  O   PHE A   1       0.885   8.955  21.908  0.00  0.00    +0.000 OA
BRANCH   7   9
ATOM      9  OXT PHE A   1       0.943  11.174  21.526  0.00  0.00    +0.000 OA
ATOM     10  HXT PHE A   1       0.592  11.816  20.869  0.00  0.00    +0.000 HD
ENDBRANCH   7   9
ENDBRANCH   6   7
BRANCH   6  11
ATOM     11  CB  PHE A   1      -0.260   9.725  18.890  0.00  0.00    +0.000 C 
BRANCH  11  12
ATOM     12  CG  PHE A   1      -0.662  11.109  18.385  0.00  0.00    +0.000 C 
BRANCH  12  14
ATOM     13  NE2 PHE A   1      -2.538  12.512  18.952  0.00  0.00    +0.000 N 
ATOM     14  CD  PHE A   1      -2.163  11.308  18.428  0.00  0.00    +0.000 C 
ATOM     15  OE1 PHE A   1      -2.988  10.493  18.047  0.00  0.00    +0.000 OA
ATOM     16 HE21 PHE A   1      -3.531  12.691  19.032  0.00  0.00    +0.000 HD
ATOM     17 HE22 PHE A   1      -1.907  13.082  19.495  0.00  0.00    +0.000 HD
ENDBRANCH  12  14
ENDBRANCH  11  12
ENDBRANCH   6  11
ENDBRANCH   2   6
ENDBRANCH   1   3
BRANCH   1  18
ATOM     18  N   PHE A   1       4.481   6.749  17.962  0.00  0.00    +0.000 N 
ATOM     19  C   UNK A   0       5.102   5.985  16.999  0.00  0.00    +0.000 C 
ATOM     20  O   UNK A   0       4.485   5.238  16.245  0.00  0.00    +0.000 OA
ATOM     21  H   PHE A   1       5.033   7.366  18.551  0.00  0.00    +0.000 HD
BRANCH  19  22
ATOM     22  C   UNK A   0       6.609   6.222  16.847  0.00  0.00    +0.000 C 
BRANCH  22  23
ATOM     23  N   UNK A   0       6.952   7.633  16.926  0.00  0.00    +0.000 N 
ATOM     24  C   UNK A   0       7.861   8.097  17.847  0.00  0.00    +0.000 C 
ATOM     25  O   UNK A   0       8.369   7.362  18.700  0.00  0.00    +0.000 OA
ATOM     26  H   UNK A   0       6.482   8.279  16.297  0.00  0.00    +0.000 HD
BRANCH  24  27
ATOM     27  C   UNK A   0       8.079   9.592  17.825  0.00  0.00    +0.000 C 
BRANCH  27  28
ATOM     28  C   UNK A   0       9.180  10.047  18.784  0.00  0.00    +0.000 C 
BRANCH  28  29
ATOM     29  C   UNK A   0       9.818  11.327  18.294  0.00  0.00    +0.000 A 
ATOM     30  C   UNK A   0      11.193  11.390  18.032  0.00  0.00    +0.000 A 
ATOM     31  C   UNK A   0      11.790  12.600  17.668  0.00  0.00    +0.000 A 
ATOM     32  C   UNK A   0      11.019  13.757  17.559  0.00  0.00    +0.000 A 
ATOM     33  C   UNK A   0       9.647  13.700  17.796  0.00  0.00    +0.000 A 
ATOM     34  C   UNK A   0       9.049  12.492  18.160  0.00  0.00    +0.000 A 
ENDBRANCH  28  29
ENDBRANCH  27  28
ENDBRANCH  24  27
ENDBRANCH  22  23
ENDBRANCH  19  22
ENDBRANCH   1  18
BRANCH   1  35
ATOM     35  CB  PHE A   1       2.622   5.941  19.483  0.00  0.00    +0.000 C 
BRANCH  35  36
ATOM     36  CG  PHE A   1       2.248   4.487  19.304  0.00  0.00    +0.000 A 
ATOM     37  CD1 PHE A   1       3.078   3.573  18.624  0.00  0.00    +0.000 A 
ATOM     38  CE1 PHE A   1       2.694   2.240  18.466  0.00  0.00    +0.000 A 
ATOM     39  CZ  PHE A   1       1.477   1.794  18.984  0.00  0.00    +0.000 A 
ATOM     40  CE2 PHE A   1       0.653   2.687  19.664  0.00  0.00    +0.000 A 
ATOM     41  CD2 PHE A   1       1.032   4.019  19.821  0.00  0.00    +0.000 A 
ENDBRANCH  35  36
ENDBRANCH   1  35
TORSDOF 15
ENDMDL
MODEL 5
REMARK VINA RESULT:      -8.1      2.589      5.795
REMARK  Name = 
REMARK  15 active torsions:
REMARK  status: ('A' for Active; 'I' for Inactive)
REMARK    1  A    between atoms: CD_2  and  CG_4
REMARK    2  A    between atoms: CG_4  and  CB_5
REMARK    3  A    between atoms: CB_5  and  CA_6
REMARK    4  A    between atoms: CA_6  and  N_7
REMARK    5  A    between atoms: CA_6  and  C_33
REMARK    6  A    between atoms: C_8  and  CA_10
REMARK    7  A    between atoms: CA_10  and  CB_11
REMARK    8  A    between atoms: CA_10  and  N_18
REMARK    9  A    between atoms: CB_11  and  CG_12
REMARK   10  A    between atoms: C_19  and  C_21
REMARK   11  A    between atoms: C_21  and  N_22
REMARK   12  A    between atoms: C_23  and  C_25
REMARK   13  A    between atoms: C_25  and  C_26
REMARK   14  A    between atoms: C_26  and  C_27
REMARK   15  A    between atoms: C_33  and  OXT_35
REMARK                            x       y       z     vdW  Elec       q    Type
REMARK                         _______ _______ _______ _____ _____    ______ ____
ROOT
ATOM      1  CA  PHE A   1       6.174   6.211  17.093  0.00  0.00    +0.000 C 
ENDROOT
BRANCH   1   3
ATOM      2  N   PHE A   1       6.694   5.493  14.822  0.00  0.00    +0.000 N 
ATOM      3  C   PHE A   1       6.994   5.278  16.162  0.00  0.00    +0.000 C 
ATOM      4  O   PHE A   1       7.896   4.538  16.526  0.00  0.00    +0.000 OA
ATOM      5  H   PHE A   1       6.246   6.385  14.621  0.00  0.00    +0.000 HD
BRANCH   2   6
ATOM      6  CA  PHE A   1       7.348   4.756  13.740  0.00  0.00    +0.000 C 
BRANCH   6   7
ATOM      7  C   PHE A   1       8.228   5.743  12.958  0.00  0.00    +0.000 C 
ATOM      8  O   PHE A   1       9.333   6.113  13.339  0.00  0.00    +0.000 OA
BRANCH   7   9
ATOM      9  OXT PHE A   1       7.692   6.169  11.797  0.00  0.00    +0.000 OA
ATOM     10  HXT PHE A   1       7.413   5.458  11.179  0.00  0.00    +0.000 HD
ENDBRANCH   7   9
ENDBRANCH   6   7
BRANCH   6  11
ATOM     11  CB  PHE A   1       6.269   4.118  12.837  0.00  0.00    +0.000 C 
BRANCH  11  12
ATOM     12  CG  PHE A   1       6.774   2.911  12.049  0.00  0.00    +0.000 C 
BRANCH  12  14
ATOM     13  NE2 PHE A   1       5.947   0.778  11.292  0.00  0.00    +0.000 N 
ATOM     14  CD  PHE A   1       5.632   2.093  11.484  0.00  0.00    +0.000 C 
ATOM     15  OE1 PHE A   1       4.525   2.530  11.209  0.00  0.00    +0.000 OA
ATOM     16 HE21 PHE A   1       5.231   0.186  10.889  0.00  0.00    +0.000 HD
ATOM     17 HE22 PHE A   1       6.902   0.452  11.270  0.00  0.00    +0.000 HD
ENDBRANCH  12  14
ENDBRANCH  11  12
ENDBRANCH   6  11
ENDBRANCH   2   6
ENDBRANCH   1   3
BRANCH   1  18
ATOM     18  N   PHE A   1       6.730   7.577  17.075  0.00  0.00    +0.000 N 
ATOM     19  C   UNK A   0       7.757   7.964  17.907  0.00  0.00    +0.000 C 
ATOM     20  O   UNK A   0       8.308   7.190  18.684  0.00  0.00    +0.000 OA
ATOM     21  H   PHE A   1       6.316   8.251  16.436  0.00  0.00    +0.000 HD
BRANCH  19  22
ATOM     22  C   UNK A   0       8.253   9.402  17.710  0.00  0.00    +0.000 C 
BRANCH  22  23
ATOM     23  N   UNK A   0       8.903   9.924  18.901  0.00  0.00    +0.000 N 
ATOM     24  C   UNK A   0       9.816  10.950  18.825  0.00  0.00    +0.000 C 
ATOM     25  O   UNK A   0      10.188  11.422  17.745  0.00  0.00    +0.000 OA
ATOM     26  H   UNK A   0       8.686   9.495  19.797  0.00  0.00    +0.000 HD
BRANCH  24  27
ATOM     27  C   UNK A   0      10.429  11.352  20.146  0.00  0.00    +0.000 C 
BRANCH  27  28
ATOM     28  C   UNK A   0       9.383  11.675  21.213  0.00  0.00    +0.000 C 
BRANCH  28  29
ATOM     29  C   UNK A   0       9.214  13.169  21.360  0.00  0.00    +0.000 A 
ATOM     30  C   UNK A   0       7.944  13.734  21.542  0.00  0.00    +0.000 A 
ATOM     31  C   UNK A   0       7.786  15.123  21.585  0.00  0.00    +0.000 A 
ATOM     32  C   UNK A   0       8.894  15.958  21.450  0.00  0.00    +0.000 A 
ATOM     33  C   UNK A   0      10.164  15.406  21.290  0.00  0.00    +0.000 A 
ATOM     34  C   UNK A   0      10.324  14.020  21.247  0.00  0.00    +0.000 A 
ENDBRANCH  28  29
ENDBRANCH  27  28
ENDBRANCH  24  27
ENDBRANCH  22  23
ENDBRANCH  19  22
ENDBRANCH   1  18
BRANCH   1  35
ATOM     35  CB  PHE A   1       4.672   6.133  16.761  0.00  0.00    +0.000 C 
BRANCH  35  36
ATOM     36  CG  PHE A   1       3.847   5.245  17.666  0.00  0.00    +0.000 A 
ATOM     37  CD1 PHE A   1       2.909   5.765  18.581  0.00  0.00    +0.000 A 
ATOM     38  CE1 PHE A   1       2.175   4.916  19.411  0.00  0.00    +0.000 A 
ATOM     39  CZ  PHE A   1       2.360   3.535  19.343  0.00  0.00    +0.000 A 
ATOM     40  CE2 PHE A   1       3.279   3.010  18.438  0.00  0.00    +0.000 A 
ATOM     41  CD2 PHE A   1       4.016   3.855  17.610  0.00  0.00    +0.000 A 
ENDBRANCH  35  36
ENDBRANCH   1  35
TORSDOF 15
ENDMDL
MODEL 6
REMARK VINA RESULT:      -8.1      1.952      2.705
REMARK  Name = 
REMARK  15 active torsions:
REMARK  status: ('A' for Active; 'I' for Inactive)
REMARK    1  A    between atoms: CD_2  and  CG_4
REMARK    2  A    between atoms: CG_4  and  CB_5
REMARK    3  A    between atoms: CB_5  and  CA_6
REMARK    4  A    between atoms: CA_6  and  N_7
REMARK    5  A    between atoms: CA_6  and  C_33
REMARK    6  A    between atoms: C_8  and  CA_10
REMARK    7  A    between atoms: CA_10  and  CB_11
REMARK    8  A    between atoms: CA_10  and  N_18
REMARK    9  A    between atoms: CB_11  and  CG_12
REMARK   10  A    between atoms: C_19  and  C_21
REMARK   11  A    between atoms: C_21  and  N_22
REMARK   12  A    between atoms: C_23  and  C_25
REMARK   13  A    between atoms: C_25  and  C_26
REMARK   14  A    between atoms: C_26  and  C_27
REMARK   15  A    between atoms: C_33  and  OXT_35
REMARK                            x       y       z     vdW  Elec       q    Type
REMARK                         _______ _______ _______ _____ _____    ______ ____
ROOT
ATOM      1  CA  PHE A   1       5.331   4.600  16.641  0.00  0.00    +0.000 C 
ENDROOT
BRANCH   1   3
ATOM      2  N   PHE A   1       3.151   4.990  17.661  0.00  0.00    +0.000 N 
ATOM      3  C   PHE A   1       4.284   4.186  17.710  0.00  0.00    +0.000 C 
ATOM      4  O   PHE A   1       4.361   3.197  18.423  0.00  0.00    +0.000 OA
ATOM      5  H   PHE A   1       3.026   5.501  16.789  0.00  0.00    +0.000 HD
BRANCH   2   6
ATOM      6  CA  PHE A   1       2.006   4.792  18.550  0.00  0.00    +0.000 C 
BRANCH   6   7
ATOM      7  C   PHE A   1       2.245   5.622  19.822  0.00  0.00    +0.000 C 
ATOM      8  O   PHE A   1       1.430   6.423  20.269  0.00  0.00    +0.000 OA
BRANCH   7   9
ATOM      9  OXT PHE A   1       3.427   5.392  20.425  0.00  0.00    +0.000 OA
ATOM     10  HXT PHE A   1       3.500   5.728  21.346  0.00  0.00    +0.000 HD
ENDBRANCH   7   9
ENDBRANCH   6   7
BRANCH   6  11
ATOM     11  CB  PHE A   1       1.870   3.287  18.873  0.00  0.00    +0.000 C 
BRANCH  11  12
ATOM     12  CG  PHE A   1       0.961   3.004  20.068  0.00  0.00    +0.000 C 
BRANCH  12  14
ATOM     13  NE2 PHE A   1       0.978   2.358  22.389  0.00  0.00    +0.000 N 
ATOM     14  CD  PHE A   1       1.754   2.601  21.293  0.00  0.00    +0.000 C 
ATOM     15  OE1 PHE A   1       2.971   2.497  21.337  0.00  0.00    +0.000 OA
ATOM     16 HE21 PHE A   1       1.454   2.111  23.247  0.00  0.00    +0.000 HD
ATOM     17 HE22 PHE A   1       0.021   2.674  22.451  0.00  0.00    +0.000 HD
ENDBRANCH  12  14
ENDBRANCH  11  12
ENDBRANCH   6  11
ENDBRANCH   2   6
ENDBRANCH   1   3
BRANCH   1  18
ATOM     18  N   PHE A   1       6.593   5.012  17.286  0.00  0.00    +0.000 N 
ATOM     19  C   UNK A   0       6.619   5.800  18.415  0.00  0.00    +0.000 C 
ATOM     20  O   UNK A   0       5.599   6.175  18.986  0.00  0.00    +0.000 OA
ATOM     21  H   PHE A   1       7.465   4.712  16.858  0.00  0.00    +0.000 HD
BRANCH  19  22
ATOM     22  C   UNK A   0       8.015   6.077  18.987  0.00  0.00    +0.000 C 
BRANCH  22  23
ATOM     23  N   UNK A   0       8.366   7.486  18.913  0.00  0.00    +0.000 N 
ATOM     24  C   UNK A   0       8.042   8.247  17.814  0.00  0.00    +0.000 C 
ATOM     25  O   UNK A   0       7.514   7.761  16.809  0.00  0.00    +0.000 OA
ATOM     26  H   UNK A   0       8.883   7.895  19.688  0.00  0.00    +0.000 HD
BRANCH  24  27
ATOM     27  C   UNK A   0       8.510   9.683  17.877  0.00  0.00    +0.000 C 
BRANCH  27  28
ATOM     28  C   UNK A   0       9.136  10.046  19.224  0.00  0.00    +0.000 C 
BRANCH  28  29
ATOM     29  C   UNK A   0      10.212  11.092  19.046  0.00  0.00    +0.000 A 
ATOM     30  C   UNK A   0      10.477  11.642  17.785  0.00  0.00    +0.000 A 
ATOM     31  C   UNK A   0      11.535  12.541  17.612  0.00  0.00    +0.000 A 
ATOM     32  C   UNK A   0      12.333  12.900  18.697  0.00  0.00    +0.000 A 
ATOM     33  C   UNK A   0      12.064  12.375  19.959  0.00  0.00    +0.000 A 
ATOM     34  C   UNK A   0      11.008  11.478  20.134  0.00  0.00    +0.000 A 
ENDBRANCH  28  29
ENDBRANCH  27  28
ENDBRANCH  24  27
ENDBRANCH  22  23
ENDBRANCH  19  22
ENDBRANCH   1  18
BRANCH   1  35
ATOM     35  CB  PHE A   1       5.492   3.500  15.577  0.00  0.00    +0.000 C 
BRANCH  35  36
ATOM     36  CG  PHE A   1       6.167   3.926  14.292  0.00  0.00    +0.000 A 
ATOM     37  CD1 PHE A   1       7.138   4.947  14.253  0.00  0.00    +0.000 A 
ATOM     38  CE1 PHE A   1       7.730   5.323  13.046  0.00  0.00    +0.000 A 
ATOM     39  CZ  PHE A   1       7.368   4.688  11.858  0.00  0.00    +0.000 A 
ATOM     40  CE2 PHE A   1       6.416   3.672  11.886  0.00  0.00    +0.000 A 
ATOM     41  CD2 PHE A   1       5.820   3.296  13.088  0.00  0.00    +0.000 A 
ENDBRANCH  35  36
ENDBRANCH   1  35
TORSDOF 15
ENDMDL
MODEL 7
REMARK VINA RESULT:      -8.1      1.146      1.354
REMARK  Name = 
REMARK  15 active torsions:
REMARK  status: ('A' for Active; 'I' for Inactive)
REMARK    1  A    between atoms: CD_2  and  CG_4
REMARK    2  A    between atoms: CG_4  and  CB_5
REMARK    3  A    between atoms: CB_5  and  CA_6
REMARK    4  A    between atoms: CA_6  and  N_7
REMARK    5  A    between atoms: CA_6  and  C_33
REMARK    6  A    between atoms: C_8  and  CA_10
REMARK    7  A    between atoms: CA_10  and  CB_11
REMARK    8  A    between atoms: CA_10  and  N_18
REMARK    9  A    between atoms: CB_11  and  CG_12
REMARK   10  A    between atoms: C_19  and  C_21
REMARK   11  A    between atoms: C_21  and  N_22
REMARK   12  A    between atoms: C_23  and  C_25
REMARK   13  A    between atoms: C_25  and  C_26
REMARK   14  A    between atoms: C_26  and  C_27
REMARK   15  A    between atoms: C_33  and  OXT_35
REMARK                            x       y       z     vdW  Elec       q    Type
REMARK                         _______ _______ _______ _____ _____    ______ ____
ROOT
ATOM      1  CA  PHE A   1       6.122   5.910  16.502  0.00  0.00    +0.000 C 
ENDROOT
BRANCH   1   3
ATOM      2  N   PHE A   1       4.329   5.037  17.904  0.00  0.00    +0.000 N 
ATOM      3  C   PHE A   1       5.710   5.137  17.784  0.00  0.00    +0.000 C 
ATOM      4  O   PHE A   1       6.482   4.560  18.536  0.00  0.00    +0.000 OA
ATOM      5  H   PHE A   1       3.812   5.191  17.040  0.00  0.00    +0.000 HD
BRANCH   2   6
ATOM      6  CA  PHE A   1       3.684   4.335  19.014  0.00  0.00    +0.000 C 
BRANCH   6   7
ATOM      7  C   PHE A   1       3.682   2.833  18.690  0.00  0.00    +0.000 C 
ATOM      8  O   PHE A   1       2.870   2.306  17.937  0.00  0.00    +0.000 OA
BRANCH   7   9
ATOM      9  OXT PHE A   1       4.661   2.131  19.292  0.00  0.00    +0.000 OA
ATOM     10  HXT PHE A   1       5.489   2.631  19.467  0.00  0.00    +0.000 HD
ENDBRANCH   7   9
ENDBRANCH   6   7
BRANCH   6  11
ATOM     11  CB  PHE A   1       2.248   4.879  19.191  0.00  0.00    +0.000 C 
BRANCH  11  12
ATOM     12  CG  PHE A   1       1.761   4.842  20.638  0.00  0.00    +0.000 C 
BRANCH  12  14
ATOM     13  NE2 PHE A   1       2.135   3.054  22.210  0.00  0.00    +0.000 N 
ATOM     14  CD  PHE A   1       1.451   3.431  21.090  0.00  0.00    +0.000 C 
ATOM     15  OE1 PHE A   1       0.675   2.671  20.531  0.00  0.00    +0.000 OA
ATOM     16 HE21 PHE A   1       1.990   2.109  22.544  0.00  0.00    +0.000 HD
ATOM     17 HE22 PHE A   1       2.950   3.553  22.535  0.00  0.00    +0.000 HD
ENDBRANCH  12  14
ENDBRANCH  11  12
ENDBRANCH   6  11
ENDBRANCH   2   6
ENDBRANCH   1   3
BRANCH   1  18
ATOM     18  N   PHE A   1       6.359   7.334  16.811  0.00  0.00    +0.000 N 
ATOM     19  C   UNK A   0       7.378   7.747  17.639  0.00  0.00    +0.000 C 
ATOM     20  O   UNK A   0       8.184   6.967  18.139  0.00  0.00    +0.000 OA
ATOM     21  H   PHE A   1       5.726   8.019  16.408  0.00  0.00    +0.000 HD
BRANCH  19  22
ATOM     22  C   UNK A   0       7.517   9.266  17.799  0.00  0.00    +0.000 C 
BRANCH  22  23
ATOM     23  N   UNK A   0       8.783   9.638  18.410  0.00  0.00    +0.000 N 
ATOM     24  C   UNK A   0       9.249  10.931  18.358  0.00  0.00    +0.000 C 
ATOM     25  O   UNK A   0       8.663  11.818  17.728  0.00  0.00    +0.000 OA
ATOM     26  H   UNK A   0       9.334   8.911  18.859  0.00  0.00    +0.000 HD
BRANCH  24  27
ATOM     27  C   UNK A   0      10.596  11.147  19.008  0.00  0.00    +0.000 C 
BRANCH  27  28
ATOM     28  C   UNK A   0      10.489  11.540  20.482  0.00  0.00    +0.000 C 
BRANCH  28  29
ATOM     29  C   UNK A   0      10.581  13.040  20.641  0.00  0.00    +0.000 A 
ATOM     30  C   UNK A   0      11.490  13.788  19.881  0.00  0.00    +0.000 A 
ATOM     31  C   UNK A   0      11.634  15.162  20.099  0.00  0.00    +0.000 A 
ATOM     32  C   UNK A   0      10.869  15.800  21.075  0.00  0.00    +0.000 A 
ATOM     33  C   UNK A   0       9.947  15.068  21.821  0.00  0.00    +0.000 A 
ATOM     34  C   UNK A   0       9.802  13.697  21.604  0.00  0.00    +0.000 A 
ENDBRANCH  28  29
ENDBRANCH  27  28
ENDBRANCH  24  27
ENDBRANCH  22  23
ENDBRANCH  19  22
ENDBRANCH   1  18
BRANCH   1  35
ATOM     35  CB  PHE A   1       7.297   5.211  15.795  0.00  0.00    +0.000 C 
BRANCH  35  36
ATOM     36  CG  PHE A   1       7.012   4.707  14.397  0.00  0.00    +0.000 A 
ATOM     37  CD1 PHE A   1       7.785   5.094  13.284  0.00  0.00    +0.000 A 
ATOM     38  CE1 PHE A   1       7.485   4.619  12.006  0.00  0.00    +0.000 A 
ATOM     39  CZ  PHE A   1       6.411   3.750  11.814  0.00  0.00    +0.000 A 
ATOM     40  CE2 PHE A   1       5.644   3.355  12.908  0.00  0.00    +0.000 A 
ATOM     41  CD2 PHE A   1       5.940   3.829  14.185  0.00  0.00    +0.000 A 
ENDBRANCH  35  36
ENDBRANCH   1  35
TORSDOF 15
ENDMDL
MODEL 8
REMARK VINA RESULT:      -8.1      5.610      8.623
REMARK  Name = 
REMARK  15 active torsions:
REMARK  status: ('A' for Active; 'I' for Inactive)
REMARK    1  A    between atoms: CD_2  and  CG_4
REMARK    2  A    between atoms: CG_4  and  CB_5
REMARK    3  A    between atoms: CB_5  and  CA_6
REMARK    4  A    between atoms: CA_6  and  N_7
REMARK    5  A    between atoms: CA_6  and  C_33
REMARK    6  A    between atoms: C_8  and  CA_10
REMARK    7  A    between atoms: CA_10  and  CB_11
REMARK    8  A    between atoms: CA_10  and  N_18
REMARK    9  A    between atoms: CB_11  and  CG_12
REMARK   10  A    between atoms: C_19  and  C_21
REMARK   11  A    between atoms: C_21  and  N_22
REMARK   12  A    between atoms: C_23  and  C_25
REMARK   13  A    between atoms: C_25  and  C_26
REMARK   14  A    between atoms: C_26  and  C_27
REMARK   15  A    between atoms: C_33  and  OXT_35
REMARK                            x       y       z     vdW  Elec       q    Type
REMARK                         _______ _______ _______ _____ _____    ______ ____
ROOT
ATOM      1  CA  PHE A   1       2.966   6.521  18.279  0.00  0.00    +0.000 C 
ENDROOT
BRANCH   1   3
ATOM      2  N   PHE A   1       4.380   4.855  17.198  0.00  0.00    +0.000 N 
ATOM      3  C   PHE A   1       4.282   6.204  17.520  0.00  0.00    +0.000 C 
ATOM      4  O   PHE A   1       5.082   7.037  17.121  0.00  0.00    +0.000 OA
ATOM      5  H   PHE A   1       3.498   4.346  17.217  0.00  0.00    +0.000 HD
BRANCH   2   6
ATOM      6  CA  PHE A   1       5.516   4.302  16.461  0.00  0.00    +0.000 C 
BRANCH   6   7
ATOM      7  C   PHE A   1       6.777   4.494  17.319  0.00  0.00    +0.000 C 
ATOM      8  O   PHE A   1       7.798   5.034  16.909  0.00  0.00    +0.000 OA
BRANCH   7   9
ATOM      9  OXT PHE A   1       6.670   4.030  18.579  0.00  0.00    +0.000 OA
ATOM     10  HXT PHE A   1       7.351   3.373  18.843  0.00  0.00    +0.000 HD
ENDBRANCH   7   9
ENDBRANCH   6   7
BRANCH   6  11
ATOM     11  CB  PHE A   1       5.640   5.026  15.102  0.00  0.00    +0.000 C 
BRANCH  11  12
ATOM     12  CG  PHE A   1       5.507   4.089  13.903  0.00  0.00    +0.000 C 
BRANCH  12  14
ATOM     13  NE2 PHE A   1       7.522   5.244  13.256  0.00  0.00    +0.000 N 
ATOM     14  CD  PHE A   1       6.707   4.183  12.983  0.00  0.00    +0.000 C 
ATOM     15  OE1 PHE A   1       6.952   3.409  12.071  0.00  0.00    +0.000 OA
ATOM     16 HE21 PHE A   1       8.326   5.376  12.656  0.00  0.00    +0.000 HD
ATOM     17 HE22 PHE A   1       7.217   6.024  13.822  0.00  0.00    +0.000 HD
ENDBRANCH  12  14
ENDBRANCH  11  12
ENDBRANCH   6  11
ENDBRANCH   2   6
ENDBRANCH   1   3
BRANCH   1  18
ATOM     18  N   PHE A   1       2.480   7.870  17.929  0.00  0.00    +0.000 N 
ATOM     19  C   UNK A   0       1.804   8.664  18.828  0.00  0.00    +0.000 C 
ATOM     20  O   UNK A   0       1.599   8.325  19.990  0.00  0.00    +0.000 OA
ATOM     21  H   PHE A   1       2.640   8.202  16.982  0.00  0.00    +0.000 HD
BRANCH  19  22
ATOM     22  C   UNK A   0       1.429  10.060  18.316  0.00  0.00    +0.000 C 
BRANCH  22  23
ATOM     23  N   UNK A   0       0.627  10.799  19.278  0.00  0.00    +0.000 N 
ATOM     24  C   UNK A   0      -0.745  10.827  19.193  0.00  0.00    +0.000 C 
ATOM     25  O   UNK A   0      -1.358  10.299  18.260  0.00  0.00    +0.000 OA
ATOM     26  H   UNK A   0       1.108  11.321  20.007  0.00  0.00    +0.000 HD
BRANCH  24  27
ATOM     27  C   UNK A   0      -1.429  11.669  20.245  0.00  0.00    +0.000 C 
BRANCH  27  28
ATOM     28  C   UNK A   0      -0.712  11.631  21.595  0.00  0.00    +0.000 C 
BRANCH  28  29
ATOM     29  C   UNK A   0      -1.448  12.472  22.613  0.00  0.00    +0.000 A 
ATOM     30  C   UNK A   0      -2.723  12.101  23.064  0.00  0.00    +0.000 A 
ATOM     31  C   UNK A   0      -3.435  12.931  23.935  0.00  0.00    +0.000 A 
ATOM     32  C   UNK A   0      -2.879  14.135  24.366  0.00  0.00    +0.000 A 
ATOM     33  C   UNK A   0      -1.604  14.502  23.941  0.00  0.00    +0.000 A 
ATOM     34  C   UNK A   0      -0.891  13.674  23.071  0.00  0.00    +0.000 A 
ENDBRANCH  28  29
ENDBRANCH  27  28
ENDBRANCH  24  27
ENDBRANCH  22  23
ENDBRANCH  19  22
ENDBRANCH   1  18
BRANCH   1  35
ATOM     35  CB  PHE A   1       1.930   5.401  18.072  0.00  0.00    +0.000 C 
BRANCH  35  36
ATOM     36  CG  PHE A   1       1.818   4.397  19.198  0.00  0.00    +0.000 A 
ATOM     37  CD1 PHE A   1       1.317   3.094  19.000  0.00  0.00    +0.000 A 
ATOM     38  CE1 PHE A   1       1.216   2.199  20.066  0.00  0.00    +0.000 A 
ATOM     39  CZ  PHE A   1       1.613   2.584  21.347  0.00  0.00    +0.000 A 
ATOM     40  CE2 PHE A   1       2.118   3.866  21.553  0.00  0.00    +0.000 A 
ATOM     41  CD2 PHE A   1       2.217   4.764  20.491  0.00  0.00    +0.000 A 
ENDBRANCH  35  36
ENDBRANCH   1  35
TORSDOF 15
ENDMDL
MODEL 9
REMARK VINA RESULT:      -8.0      5.594      8.409
REMARK  Name = 
REMARK  15 active torsions:
REMARK  status: ('A' for Active; 'I' for Inactive)
REMARK    1  A    between atoms: CD_2  and  CG_4
REMARK    2  A    between atoms: CG_4  and  CB_5
REMARK    3  A    between atoms: CB_5  and  CA_6
REMARK    4  A    between atoms: CA_6  and  N_7
REMARK    5  A    between atoms: CA_6  and  C_33
REMARK    6  A    between atoms: C_8  and  CA_10
REMARK    7  A    between atoms: CA_10  and  CB_11
REMARK    8  A    between atoms: CA_10  and  N_18
REMARK    9  A    between atoms: CB_11  and  CG_12
REMARK   10  A    between atoms: C_19  and  C_21
REMARK   11  A    between atoms: C_21  and  N_22
REMARK   12  A    between atoms: C_23  and  C_25
REMARK   13  A    between atoms: C_25  and  C_26
REMARK   14  A    between atoms: C_26  and  C_27
REMARK   15  A    between atoms: C_33  and  OXT_35
REMARK                            x       y       z     vdW  Elec       q    Type
REMARK                         _______ _______ _______ _____ _____    ______ ____
ROOT
ATOM      1  CA  PHE A   1       3.319   6.540  18.398  0.00  0.00    +0.000 C 
ENDROOT
BRANCH   1   3
ATOM      2  N   PHE A   1       5.346   5.192  18.536  0.00  0.00    +0.000 N 
ATOM      3  C   PHE A   1       4.823   6.382  18.045  0.00  0.00    +0.000 C 
ATOM      4  O   PHE A   1       5.455   7.127  17.311  0.00  0.00    +0.000 OA
ATOM      5  H   PHE A   1       4.652   4.483  18.770  0.00  0.00    +0.000 HD
BRANCH   2   6
ATOM      6  CA  PHE A   1       6.737   4.794  18.320  0.00  0.00    +0.000 C 
BRANCH   6   7
ATOM      7  C   PHE A   1       7.628   5.696  19.188  0.00  0.00    +0.000 C 
ATOM      8  O   PHE A   1       7.898   5.454  20.360  0.00  0.00    +0.000 OA
BRANCH   7   9
ATOM      9  OXT PHE A   1       8.110   6.782  18.553  0.00  0.00    +0.000 OA
ATOM     10  HXT PHE A   1       8.163   6.706  17.575  0.00  0.00    +0.000 HD
ENDBRANCH   7   9
ENDBRANCH   6   7
BRANCH   6  11
ATOM     11  CB  PHE A   1       7.077   4.936  16.819  0.00  0.00    +0.000 C 
BRANCH  11  12
ATOM     12  CG  PHE A   1       6.334   3.938  15.933  0.00  0.00    +0.000 C 
BRANCH  12  14
ATOM     13  NE2 PHE A   1       5.599   5.857  14.673  0.00  0.00    +0.000 N 
ATOM     14  CD  PHE A   1       5.964   4.544  14.595  0.00  0.00    +0.000 C 
ATOM     15  OE1 PHE A   1       5.975   3.947  13.530  0.00  0.00    +0.000 OA
ATOM     16 HE21 PHE A   1       5.314   6.309  13.814  0.00  0.00    +0.000 HD
ATOM     17 HE22 PHE A   1       5.342   6.292  15.548  0.00  0.00    +0.000 HD
ENDBRANCH  12  14
ENDBRANCH  11  12
ENDBRANCH   6  11
ENDBRANCH   2   6
ENDBRANCH   1   3
BRANCH   1  18
ATOM     18  N   PHE A   1       2.803   7.827  17.893  0.00  0.00    +0.000 N 
ATOM     19  C   UNK A   0       1.981   8.636  18.646  0.00  0.00    +0.000 C 
ATOM     20  O   UNK A   0       1.660   8.364  19.799  0.00  0.00    +0.000 OA
ATOM     21  H   PHE A   1       3.055   8.103  16.948  0.00  0.00    +0.000 HD
BRANCH  19  22
ATOM     22  C   UNK A   0       1.591   9.965  17.989  0.00  0.00    +0.000 C 
BRANCH  22  23
ATOM     23  N   UNK A   0       1.221  10.972  18.971  0.00  0.00    +0.000 N 
ATOM     24  C   UNK A   0      -0.076  11.415  19.087  0.00  0.00    +0.000 C 
ATOM     25  O   UNK A   0      -0.970  11.044  18.318  0.00  0.00    +0.000 OA
ATOM     26  H   UNK A   0       1.952  11.365  19.558  0.00  0.00    +0.000 HD
BRANCH  24  27
ATOM     27  C   UNK A   0      -0.289  12.490  20.128  0.00  0.00    +0.000 C 
BRANCH  27  28
ATOM     28  C   UNK A   0      -0.389  11.931  21.547  0.00  0.00    +0.000 C 
BRANCH  28  29
ATOM     29  C   UNK A   0      -1.545  12.563  22.288  0.00  0.00    +0.000 A 
ATOM     30  C   UNK A   0      -1.806  13.935  22.175  0.00  0.00    +0.000 A 
ATOM     31  C   UNK A   0      -2.820  14.528  22.935  0.00  0.00    +0.000 A 
ATOM     32  C   UNK A   0      -3.582  13.755  23.809  0.00  0.00    +0.000 A 
ATOM     33  C   UNK A   0      -3.345  12.386  23.912  0.00  0.00    +0.000 A 
ATOM     34  C   UNK A   0      -2.334  11.792  23.155  0.00  0.00    +0.000 A 
ENDBRANCH  28  29
ENDBRANCH  27  28
ENDBRANCH  24  27
ENDBRANCH  22  23
ENDBRANCH  19  22
ENDBRANCH   1  18
BRANCH   1  35
ATOM     35  CB  PHE A   1       2.516   5.310  17.937  0.00  0.00    +0.000 C 
BRANCH  35  36
ATOM     36  CG  PHE A   1       2.069   4.372  19.036  0.00  0.00    +0.000 A 
ATOM     37  CD1 PHE A   1       1.292   3.224  18.778  0.00  0.00    +0.000 A 
ATOM     38  CE1 PHE A   1       0.886   2.389  19.820  0.00  0.00    +0.000 A 
ATOM     39  CZ  PHE A   1       1.247   2.679  21.135  0.00  0.00    +0.000 A 
ATOM     40  CE2 PHE A   1       2.021   3.807  21.401  0.00  0.00    +0.000 A 
ATOM     41  CD2 PHE A   1       2.425   4.645  20.364  0.00  0.00    +0.000 A 
ENDBRANCH  35  36
ENDBRANCH   1  35
TORSDOF 15
ENDMDL
