MODEL 1
REMARK VINA RESULT:      -8.2      0.000      0.000
REMARK  Name = 
REMARK  7 active torsions:
REMARK  status: ('A' for Active; 'I' for Inactive)
REMARK    1  A    between atoms: C_1  and  C_2
REMARK    2  A    between atoms: C_6  and  N_7
REMARK    3  A    between atoms: C_8  and  C_10
REMARK    4  A    between atoms: C_10  and  N_11
REMARK    5  A    between atoms: N_11  and  C_12
REMARK    6  A    between atoms: C_12  and  C_13
REMARK    7  A    between atoms: C_20  and  C_21
REMARK                            x       y       z     vdW  Elec       q    Type
REMARK                         _______ _______ _______ _____ _____    ______ ____
ROOT
ATOM      1  N   UNL     1       5.251   3.803  18.356  0.00  0.00    +0.000 N 
ATOM      2  C   UNL     1       5.955   4.986  18.232  0.00  0.00    +0.000 C 
ATOM      3  O   UNL     1       5.439   6.098  18.332  0.00  0.00    +0.000 OA
ATOM      4  H   UNL     1       5.767   2.935  18.417  0.00  0.00    +0.000 HD
ENDROOT
BRANCH   1  10
ATOM      5  C   UNL     1       1.668   3.486  20.973  0.00  0.00    +0.000 C 
ATOM      6  C   UNL     1       1.927   2.510  19.817  0.00  0.00    +0.000 C 
ATOM      7  C   UNL     1       1.039   2.843  18.606  0.00  0.00    +0.000 C 
ATOM      8  C   UNL     1       1.479   4.104  17.862  0.00  0.00    +0.000 C 
ATOM      9  C   UNL     1       2.964   4.088  17.504  0.00  0.00    +0.000 C 
ATOM     10  C   UNL     1       3.842   3.791  18.724  0.00  0.00    +0.000 C 
ATOM     11  C   UNL     1       3.429   2.475  19.430  0.00  0.00    +0.000 C 
ATOM     12  C   UNL     1       3.733   1.225  18.583  0.00  0.00    +0.000 C 
ENDBRANCH   1  10
BRANCH   2  13
ATOM     13  C   UNL     1       7.460   4.802  18.011  0.00  0.00    +0.000 C 
BRANCH  13  14
ATOM     14  N   UNL     1       7.753   4.410  16.621  0.00  0.00    +0.000 NA
ATOM     15  H   UNL     1       7.241   3.542  16.434  0.00  0.00    +0.000 HD
BRANCH  14  16
ATOM     16  C   UNL     1       7.290   5.414  15.657  0.00  0.00    +0.000 C 
BRANCH  16  17
ATOM     17  C   UNL     1       6.871   4.771  14.361  0.00  0.00    +0.000 A 
ATOM     18  C   UNL     1       5.733   3.953  14.297  0.00  0.00    +0.000 A 
ATOM     19  C   UNL     1       5.353   3.356  13.092  0.00  0.00    +0.000 A 
ATOM     20  C   UNL     1       6.106   3.567  11.937  0.00  0.00    +0.000 A 
ATOM     21  C   UNL     1       7.241   4.372  11.989  0.00  0.00    +0.000 A 
ATOM     22  C   UNL     1       7.616   4.965  13.194  0.00  0.00    +0.000 A 
ATOM     23  F   UNL     1       8.718   5.728  13.218  0.00  0.00    +0.000 F 
ENDBRANCH  16  17
ENDBRANCH  14  16
ENDBRANCH  13  14
ENDBRANCH   2  13
TORSDOF 5
ENDMDL
MODEL 2
REMARK VINA RESULT:      -7.6      1.521      1.953
REMARK  Name = 
REMARK  7 active torsions:
REMARK  status: ('A' for Active; 'I' for Inactive)
REMARK    1  A    between atoms: C_1  and  C_2
REMARK    2  A    between atoms: C_6  and  N_7
REMARK    3  A    between atoms: C_8  and  C_10
REMARK    4  A    between atoms: C_10  and  N_11
REMARK    5  A    between atoms: N_11  and  C_12
REMARK    6  A    between atoms: C_12  and  C_13
REMARK    7  A    between atoms: C_20  and  C_21
REMARK                            x       y       z     vdW  Elec       q    Type
REMARK                         _______ _______ _______ _____ _____    ______ ____
ROOT
ATOM      1  N   UNL     1       4.878   4.087  18.343  0.00  0.00    +0.000 N 
ATOM      2  C   UNL     1       6.134   4.572  18.656  0.00  0.00    +0.000 C 
ATOM      3  O   UNL     1       6.406   5.116  19.725  0.00  0.00    +0.000 OA
ATOM      4  H   UNL     1       4.770   3.517  17.515  0.00  0.00    +0.000 HD
ENDROOT
BRANCH   1  10
ATOM      5  C   UNL     1       2.349   2.672  21.719  0.00  0.00    +0.000 C 
ATOM      6  C   UNL     1       1.794   2.857  20.300  0.00  0.00    +0.000 C 
ATOM      7  C   UNL     1       0.968   4.152  20.197  0.00  0.00    +0.000 C 
ATOM      8  C   UNL     1       1.826   5.417  20.208  0.00  0.00    +0.000 C 
ATOM      9  C   UNL     1       2.958   5.370  19.184  0.00  0.00    +0.000 C 
ATOM     10  C   UNL     1       3.796   4.094  19.318  0.00  0.00    +0.000 C 
ATOM     11  C   UNL     1       2.923   2.816  19.238  0.00  0.00    +0.000 C 
ATOM     12  C   UNL     1       2.330   2.589  17.835  0.00  0.00    +0.000 C 
ENDBRANCH   1  10
BRANCH   2  13
ATOM     13  C   UNL     1       7.190   4.327  17.573  0.00  0.00    +0.000 C 
BRANCH  13  14
ATOM     14  N   UNL     1       7.535   5.575  16.870  0.00  0.00    +0.000 NA
ATOM     15  H   UNL     1       8.376   5.392  16.315  0.00  0.00    +0.000 HD
BRANCH  14  16
ATOM     16  C   UNL     1       6.477   5.995  15.944  0.00  0.00    +0.000 C 
BRANCH  16  17
ATOM     17  C   UNL     1       6.517   5.191  14.671  0.00  0.00    +0.000 A 
ATOM     18  C   UNL     1       7.537   5.387  13.728  0.00  0.00    +0.000 A 
ATOM     19  C   UNL     1       7.566   4.641  12.547  0.00  0.00    +0.000 A 
ATOM     20  C   UNL     1       6.576   3.692  12.292  0.00  0.00    +0.000 A 
ATOM     21  C   UNL     1       5.554   3.494  13.219  0.00  0.00    +0.000 A 
ATOM     22  C   UNL     1       5.530   4.240  14.395  0.00  0.00    +0.000 A 
ATOM     23  F   UNL     1       4.532   4.035  15.265  0.00  0.00    +0.000 F 
ENDBRANCH  16  17
ENDBRANCH  14  16
ENDBRANCH  13  14
ENDBRANCH   2  13
TORSDOF 5
ENDMDL
MODEL 3
REMARK VINA RESULT:      -7.4      1.266      1.608
REMARK  Name = 
REMARK  7 active torsions:
REMARK  status: ('A' for Active; 'I' for Inactive)
REMARK    1  A    between atoms: C_1  and  C_2
REMARK    2  A    between atoms: C_6  and  N_7
REMARK    3  A    between atoms: C_8  and  C_10
REMARK    4  A    between atoms: C_10  and  N_11
REMARK    5  A    between atoms: N_11  and  C_12
REMARK    6  A    between atoms: C_12  and  C_13
REMARK    7  A    between atoms: C_20  and  C_21
REMARK                            x       y       z     vdW  Elec       q    Type
REMARK                         _______ _______ _______ _____ _____    ______ ____
ROOT
ATOM      1  N   UNL     1       4.401   5.858  18.496  0.00  0.00    +0.000 N 
ATOM      2  C   UNL     1       5.780   5.830  18.579  0.00  0.00    +0.000 C 
ATOM      3  O   UNL     1       6.397   5.187  19.427  0.00  0.00    +0.000 OA
ATOM      4  H   UNL     1       3.972   6.281  17.683  0.00  0.00    +0.000 HD
ENDROOT
BRANCH   1  10
ATOM      5  C   UNL     1       3.234   2.365  20.992  0.00  0.00    +0.000 C 
ATOM      6  C   UNL     1       2.463   2.762  19.724  0.00  0.00    +0.000 C 
ATOM      7  C   UNL     1       1.151   3.481  20.081  0.00  0.00    +0.000 C 
ATOM      8  C   UNL     1       1.363   4.903  20.599  0.00  0.00    +0.000 C 
ATOM      9  C   UNL     1       2.250   5.739  19.678  0.00  0.00    +0.000 C 
ATOM     10  C   UNL     1       3.569   5.029  19.358  0.00  0.00    +0.000 C 
ATOM     11  C   UNL     1       3.340   3.614  18.770  0.00  0.00    +0.000 C 
ATOM     12  C   UNL     1       2.717   3.650  17.362  0.00  0.00    +0.000 C 
ENDBRANCH   1  10
BRANCH   2  13
ATOM     13  C   UNL     1       6.493   6.631  17.485  0.00  0.00    +0.000 C 
BRANCH  13  14
ATOM     14  N   UNL     1       6.155   6.123  16.144  0.00  0.00    +0.000 NA
ATOM     15  H   UNL     1       6.159   6.923  15.504  0.00  0.00    +0.000 HD
BRANCH  14  16
ATOM     16  C   UNL     1       7.148   5.160  15.655  0.00  0.00    +0.000 C 
BRANCH  16  17
ATOM     17  C   UNL     1       6.767   4.628  14.298  0.00  0.00    +0.000 A 
ATOM     18  C   UNL     1       5.609   3.854  14.127  0.00  0.00    +0.000 A 
ATOM     19  C   UNL     1       5.264   3.360  12.867  0.00  0.00    +0.000 A 
ATOM     20  C   UNL     1       6.072   3.630  11.762  0.00  0.00    +0.000 A 
ATOM     21  C   UNL     1       7.227   4.392  11.921  0.00  0.00    +0.000 A 
ATOM     22  C   UNL     1       7.566   4.883  13.180  0.00  0.00    +0.000 A 
ATOM     23  F   UNL     1       8.688   5.606  13.306  0.00  0.00    +0.000 F 
ENDBRANCH  16  17
ENDBRANCH  14  16
ENDBRANCH  13  14
ENDBRANCH   2  13
TORSDOF 5
ENDMDL
MODEL 4
REMARK VINA RESULT:      -7.4      1.261      1.715
REMARK  Name = 
REMARK  7 active torsions:
REMARK  status: ('A' for Active; 'I' for Inactive)
REMARK    1  A    between atoms: C_1  and  C_2
REMARK    2  A    between atoms: C_6  and  N_7
REMARK    3  A    between atoms: C_8  and  C_10
REMARK    4  A    between atoms: C_10  and  N_11
REMARK    5  A    between atoms: N_11  and  C_12
REMARK    6  A    between atoms: C_12  and  C_13
REMARK    7  A    between atoms: C_20  and  C_21
REMARK                            x       y       z     vdW  Elec       q    Type
REMARK                         _______ _______ _______ _____ _____    ______ ____
ROOT
ATOM      1  N   UNL     1       5.098   4.149  18.572  0.00  0.00    +0.000 N 
ATOM      2  C   UNL     1       5.832   5.219  18.096  0.00  0.00    +0.000 C 
ATOM      3  O   UNL     1       5.341   6.314  17.824  0.00  0.00    +0.000 OA
ATOM      4  H   UNL     1       5.591   3.337  18.918  0.00  0.00    +0.000 HD
ENDROOT
BRANCH   1  10
ATOM      5  C   UNL     1       1.465   5.383  20.823  0.00  0.00    +0.000 C 
ATOM      6  C   UNL     1       1.831   3.909  20.603  0.00  0.00    +0.000 C 
ATOM      7  C   UNL     1       0.960   3.285  19.499  0.00  0.00    +0.000 C 
ATOM      8  C   UNL     1       1.331   3.761  18.094  0.00  0.00    +0.000 C 
ATOM      9  C   UNL     1       2.824   3.623  17.801  0.00  0.00    +0.000 C 
ATOM     10  C   UNL     1       3.682   4.279  18.888  0.00  0.00    +0.000 C 
ATOM     11  C   UNL     1       3.343   3.738  20.300  0.00  0.00    +0.000 C 
ATOM     12  C   UNL     1       3.763   2.269  20.491  0.00  0.00    +0.000 C 
ENDBRANCH   1  10
BRANCH   2  13
ATOM     13  C   UNL     1       7.336   4.948  17.982  0.00  0.00    +0.000 C 
BRANCH  13  14
ATOM     14  N   UNL     1       7.713   4.593  16.604  0.00  0.00    +0.000 NA
ATOM     15  H   UNL     1       7.318   3.668  16.407  0.00  0.00    +0.000 HD
BRANCH  14  16
ATOM     16  C   UNL     1       7.158   5.531  15.622  0.00  0.00    +0.000 C 
BRANCH  16  17
ATOM     17  C   UNL     1       6.791   4.825  14.343  0.00  0.00    +0.000 A 
ATOM     18  C   UNL     1       7.636   4.876  13.224  0.00  0.00    +0.000 A 
ATOM     19  C   UNL     1       7.286   4.223  12.039  0.00  0.00    +0.000 A 
ATOM     20  C   UNL     1       6.089   3.514  11.956  0.00  0.00    +0.000 A 
ATOM     21  C   UNL     1       5.238   3.461  13.058  0.00  0.00    +0.000 A 
ATOM     22  C   UNL     1       5.591   4.114  14.237  0.00  0.00    +0.000 A 
ATOM     23  F   UNL     1       4.751   4.054  15.280  0.00  0.00    +0.000 F 
ENDBRANCH  16  17
ENDBRANCH  14  16
ENDBRANCH  13  14
ENDBRANCH   2  13
TORSDOF 5
ENDMDL
MODEL 5
REMARK VINA RESULT:      -7.4      2.942      6.612
REMARK  Name = 
REMARK  7 active torsions:
REMARK  status: ('A' for Active; 'I' for Inactive)
REMARK    1  A    between atoms: C_1  and  C_2
REMARK    2  A    between atoms: C_6  and  N_7
REMARK    3  A    between atoms: C_8  and  C_10
REMARK    4  A    between atoms: C_10  and  N_11
REMARK    5  A    between atoms: N_11  and  C_12
REMARK    6  A    between atoms: C_12  and  C_13
REMARK    7  A    between atoms: C_20  and  C_21
REMARK                            x       y       z     vdW  Elec       q    Type
REMARK                         _______ _______ _______ _____ _____    ______ ____
ROOT
ATOM      1  N   UNL     1       3.927   6.514  18.337  0.00  0.00    +0.000 N 
ATOM      2  C   UNL     1       3.075   7.575  18.098  0.00  0.00    +0.000 C 
ATOM      3  O   UNL     1       3.097   8.248  17.069  0.00  0.00    +0.000 OA
ATOM      4  H   UNL     1       3.746   5.915  19.131  0.00  0.00    +0.000 HD
ENDROOT
BRANCH   1  10
ATOM      5  C   UNL     1       5.333   4.425  14.669  0.00  0.00    +0.000 C 
ATOM      6  C   UNL     1       5.832   4.046  16.071  0.00  0.00    +0.000 C 
ATOM      7  C   UNL     1       7.245   4.602  16.321  0.00  0.00    +0.000 C 
ATOM      8  C   UNL     1       7.269   6.115  16.538  0.00  0.00    +0.000 C 
ATOM      9  C   UNL     1       6.270   6.573  17.599  0.00  0.00    +0.000 C 
ATOM     10  C   UNL     1       4.859   6.044  17.321  0.00  0.00    +0.000 C 
ATOM     11  C   UNL     1       4.837   4.502  17.170  0.00  0.00    +0.000 C 
ATOM     12  C   UNL     1       5.131   3.771  18.493  0.00  0.00    +0.000 C 
ENDBRANCH   1  10
BRANCH   2  13
ATOM     13  C   UNL     1       2.048   7.820  19.209  0.00  0.00    +0.000 C 
BRANCH  13  14
ATOM     14  N   UNL     1       2.254   6.899  20.340  0.00  0.00    +0.000 NA
ATOM     15  H   UNL     1       2.373   7.470  21.183  0.00  0.00    +0.000 HD
BRANCH  14  16
ATOM     16  C   UNL     1       1.096   6.025  20.557  0.00  0.00    +0.000 C 
BRANCH  16  17
ATOM     17  C   UNL     1       1.435   4.588  20.259  0.00  0.00    +0.000 A 
ATOM     18  C   UNL     1       1.793   3.704  21.287  0.00  0.00    +0.000 A 
ATOM     19  C   UNL     1       2.111   2.374  21.002  0.00  0.00    +0.000 A 
ATOM     20  C   UNL     1       2.077   1.910  19.687  0.00  0.00    +0.000 A 
ATOM     21  C   UNL     1       1.729   2.781  18.656  0.00  0.00    +0.000 A 
ATOM     22  C   UNL     1       1.413   4.107  18.946  0.00  0.00    +0.000 A 
ATOM     23  F   UNL     1       1.089   4.925  17.934  0.00  0.00    +0.000 F 
ENDBRANCH  16  17
ENDBRANCH  14  16
ENDBRANCH  13  14
ENDBRANCH   2  13
TORSDOF 5
ENDMDL
MODEL 6
REMARK VINA RESULT:      -7.2      3.299      6.656
REMARK  Name = 
REMARK  7 active torsions:
REMARK  status: ('A' for Active; 'I' for Inactive)
REMARK    1  A    between atoms: C_1  and  C_2
REMARK    2  A    between atoms: C_6  and  N_7
REMARK    3  A    between atoms: C_8  and  C_10
REMARK    4  A    between atoms: C_10  and  N_11
REMARK    5  A    between atoms: N_11  and  C_12
REMARK    6  A    between atoms: C_12  and  C_13
REMARK    7  A    between atoms: C_20  and  C_21
REMARK                            x       y       z     vdW  Elec       q    Type
REMARK                         _______ _______ _______ _____ _____    ______ ____
ROOT
ATOM      1  N   UNL     1       3.981   6.526  18.579  0.00  0.00    +0.000 N 
ATOM      2  C   UNL     1       2.974   7.437  18.325  0.00  0.00    +0.000 C 
ATOM      3  O   UNL     1       2.802   7.973  17.231  0.00  0.00    +0.000 OA
ATOM      4  H   UNL     1       3.965   6.014  19.450  0.00  0.00    +0.000 HD
ENDROOT
BRANCH   1  10
ATOM      5  C   UNL     1       5.195   4.448  14.837  0.00  0.00    +0.000 C 
ATOM      6  C   UNL     1       5.747   4.048  16.212  0.00  0.00    +0.000 C 
ATOM      7  C   UNL     1       7.178   4.578  16.406  0.00  0.00    +0.000 C 
ATOM      8  C   UNL     1       7.237   6.088  16.636  0.00  0.00    +0.000 C 
ATOM      9  C   UNL     1       6.292   6.554  17.742  0.00  0.00    +0.000 C 
ATOM     10  C   UNL     1       4.862   6.050  17.520  0.00  0.00    +0.000 C 
ATOM     11  C   UNL     1       4.807   4.510  17.357  0.00  0.00    +0.000 C 
ATOM     12  C   UNL     1       5.145   3.762  18.660  0.00  0.00    +0.000 C 
ENDBRANCH   1  10
BRANCH   2  13
ATOM     13  C   UNL     1       2.041   7.691  19.513  0.00  0.00    +0.000 C 
BRANCH  13  14
ATOM     14  N   UNL     1       2.211   6.665  20.556  0.00  0.00    +0.000 NA
ATOM     15  H   UNL     1       2.254   7.149  21.458  0.00  0.00    +0.000 HD
BRANCH  14  16
ATOM     16  C   UNL     1       1.077   5.736  20.605  0.00  0.00    +0.000 C 
BRANCH  16  17
ATOM     17  C   UNL     1       1.458   4.383  20.064  0.00  0.00    +0.000 A 
ATOM     18  C   UNL     1       1.247   4.061  18.715  0.00  0.00    +0.000 A 
ATOM     19  C   UNL     1       1.599   2.802  18.222  0.00  0.00    +0.000 A 
ATOM     20  C   UNL     1       2.163   1.848  19.069  0.00  0.00    +0.000 A 
ATOM     21  C   UNL     1       2.370   2.154  20.412  0.00  0.00    +0.000 A 
ATOM     22  C   UNL     1       2.018   3.411  20.899  0.00  0.00    +0.000 A 
ATOM     23  F   UNL     1       2.221   3.677  22.198  0.00  0.00    +0.000 F 
ENDBRANCH  16  17
ENDBRANCH  14  16
ENDBRANCH  13  14
ENDBRANCH   2  13
TORSDOF 5
ENDMDL
MODEL 7
REMARK VINA RESULT:      -7.2      1.429      1.775
REMARK  Name = 
REMARK  7 active torsions:
REMARK  status: ('A' for Active; 'I' for Inactive)
REMARK    1  A    between atoms: C_1  and  C_2
REMARK    2  A    between atoms: C_6  and  N_7
REMARK    3  A    between atoms: C_8  and  C_10
REMARK    4  A    between atoms: C_10  and  N_11
REMARK    5  A    between atoms: N_11  and  C_12
REMARK    6  A    between atoms: C_12  and  C_13
REMARK    7  A    between atoms: C_20  and  C_21
REMARK                            x       y       z     vdW  Elec       q    Type
REMARK                         _______ _______ _______ _____ _____    ______ ____
ROOT
ATOM      1  N   UNL     1       4.604   4.733  18.364  0.00  0.00    +0.000 N 
ATOM      2  C   UNL     1       4.804   6.039  17.957  0.00  0.00    +0.000 C 
ATOM      3  O   UNL     1       3.899   6.866  17.856  0.00  0.00    +0.000 OA
ATOM      4  H   UNL     1       5.411   4.160  18.572  0.00  0.00    +0.000 HD
ENDROOT
BRANCH   1  10
ATOM      5  C   UNL     1       1.386   3.543  21.196  0.00  0.00    +0.000 C 
ATOM      6  C   UNL     1       1.988   2.562  20.180  0.00  0.00    +0.000 C 
ATOM      7  C   UNL     1       1.041   2.357  18.985  0.00  0.00    +0.000 C 
ATOM      8  C   UNL     1       0.987   3.560  18.043  0.00  0.00    +0.000 C 
ATOM      9  C   UNL     1       2.374   4.031  17.609  0.00  0.00    +0.000 C 
ATOM     10  C   UNL     1       3.298   4.266  18.808  0.00  0.00    +0.000 C 
ATOM     11  C   UNL     1       3.398   3.017  19.718  0.00  0.00    +0.000 C 
ATOM     12  C   UNL     1       4.142   1.848  19.045  0.00  0.00    +0.000 C 
ENDBRANCH   1  10
BRANCH   2  13
ATOM     13  C   UNL     1       6.270   6.397  17.691  0.00  0.00    +0.000 C 
BRANCH  13  14
ATOM     14  N   UNL     1       6.568   6.397  16.249  0.00  0.00    +0.000 NA
ATOM     15  H   UNL     1       7.130   7.231  16.052  0.00  0.00    +0.000 HD
BRANCH  14  16
ATOM     16  C   UNL     1       7.356   5.227  15.849  0.00  0.00    +0.000 C 
BRANCH  16  17
ATOM     17  C   UNL     1       6.917   4.708  14.505  0.00  0.00    +0.000 A 
ATOM     18  C   UNL     1       7.701   4.919  13.360  0.00  0.00    +0.000 A 
ATOM     19  C   UNL     1       7.285   4.439  12.116  0.00  0.00    +0.000 A 
ATOM     20  C   UNL     1       6.080   3.746  11.998  0.00  0.00    +0.000 A 
ATOM     21  C   UNL     1       5.290   3.536  13.126  0.00  0.00    +0.000 A 
ATOM     22  C   UNL     1       5.710   4.017  14.365  0.00  0.00    +0.000 A 
ATOM     23  F   UNL     1       4.926   3.809  15.433  0.00  0.00    +0.000 F 
ENDBRANCH  16  17
ENDBRANCH  14  16
ENDBRANCH  13  14
ENDBRANCH   2  13
TORSDOF 5
ENDMDL
MODEL 8
REMARK VINA RESULT:      -7.1      1.604      2.517
REMARK  Name = 
REMARK  7 active torsions:
REMARK  status: ('A' for Active; 'I' for Inactive)
REMARK    1  A    between atoms: C_1  and  C_2
REMARK    2  A    between atoms: C_6  and  N_7
REMARK    3  A    between atoms: C_8  and  C_10
REMARK    4  A    between atoms: C_10  and  N_11
REMARK    5  A    between atoms: N_11  and  C_12
REMARK    6  A    between atoms: C_12  and  C_13
REMARK    7  A    between atoms: C_20  and  C_21
REMARK                            x       y       z     vdW  Elec       q    Type
REMARK                         _______ _______ _______ _____ _____    ______ ____
ROOT
ATOM      1  N   UNL     1       4.779   5.676  18.265  0.00  0.00    +0.000 N 
ATOM      2  C   UNL     1       6.143   5.470  18.344  0.00  0.00    +0.000 C 
ATOM      3  O   UNL     1       6.652   4.476  18.859  0.00  0.00    +0.000 OA
ATOM      4  H   UNL     1       4.435   6.435  17.693  0.00  0.00    +0.000 HD
ENDROOT
BRANCH   1  10
ATOM      5  C   UNL     1       2.117   2.121  18.003  0.00  0.00    +0.000 C 
ATOM      6  C   UNL     1       1.581   3.526  18.312  0.00  0.00    +0.000 C 
ATOM      7  C   UNL     1       1.266   3.677  19.811  0.00  0.00    +0.000 C 
ATOM      8  C   UNL     1       2.517   3.780  20.683  0.00  0.00    +0.000 C 
ATOM      9  C   UNL     1       3.495   4.843  20.187  0.00  0.00    +0.000 C 
ATOM     10  C   UNL     1       3.830   4.662  18.703  0.00  0.00    +0.000 C 
ATOM     11  C   UNL     1       2.557   4.627  17.821  0.00  0.00    +0.000 C 
ATOM     12  C   UNL     1       1.838   5.989  17.760  0.00  0.00    +0.000 C 
ENDBRANCH   1  10
BRANCH   2  13
ATOM     13  C   UNL     1       6.984   6.566  17.681  0.00  0.00    +0.000 C 
BRANCH  13  14
ATOM     14  N   UNL     1       7.067   6.369  16.223  0.00  0.00    +0.000 NA
ATOM     15  H   UNL     1       7.768   7.025  15.865  0.00  0.00    +0.000 HD
BRANCH  14  16
ATOM     16  C   UNL     1       7.510   5.014  15.876  0.00  0.00    +0.000 C 
BRANCH  16  17
ATOM     17  C   UNL     1       6.937   4.578  14.553  0.00  0.00    +0.000 A 
ATOM     18  C   UNL     1       7.655   4.763  13.361  0.00  0.00    +0.000 A 
ATOM     19  C   UNL     1       7.115   4.360  12.137  0.00  0.00    +0.000 A 
ATOM     20  C   UNL     1       5.853   3.769  12.087  0.00  0.00    +0.000 A 
ATOM     21  C   UNL     1       5.128   3.586  13.263  0.00  0.00    +0.000 A 
ATOM     22  C   UNL     1       5.671   3.990  14.481  0.00  0.00    +0.000 A 
ATOM     23  F   UNL     1       4.949   3.809  15.596  0.00  0.00    +0.000 F 
ENDBRANCH  16  17
ENDBRANCH  14  16
ENDBRANCH  13  14
ENDBRANCH   2  13
TORSDOF 5
ENDMDL
MODEL 9
REMARK VINA RESULT:      -7.0      2.498      3.341
REMARK  Name = 
REMARK  7 active torsions:
REMARK  status: ('A' for Active; 'I' for Inactive)
REMARK    1  A    between atoms: C_1  and  C_2
REMARK    2  A    between atoms: C_6  and  N_7
REMARK    3  A    between atoms: C_8  and  C_10
REMARK    4  A    between atoms: C_10  and  N_11
REMARK    5  A    between atoms: N_11  and  C_12
REMARK    6  A    between atoms: C_12  and  C_13
REMARK    7  A    between atoms: C_20  and  C_21
REMARK                            x       y       z     vdW  Elec       q    Type
REMARK                         _______ _______ _______ _____ _____    ______ ____
ROOT
ATOM      1  N   UNL     1       2.317   5.906  18.212  0.00  0.00    +0.000 N 
ATOM      2  C   UNL     1       2.375   7.141  18.830  0.00  0.00    +0.000 C 
ATOM      3  O   UNL     1       2.077   7.326  20.009  0.00  0.00    +0.000 OA
ATOM      4  H   UNL     1       2.723   5.803  17.291  0.00  0.00    +0.000 HD
ENDROOT
BRANCH   1  10
ATOM      5  C   UNL     1       2.105   3.115  21.670  0.00  0.00    +0.000 C 
ATOM      6  C   UNL     1       2.852   2.762  20.376  0.00  0.00    +0.000 C 
ATOM      7  C   UNL     1       2.030   1.789  19.514  0.00  0.00    +0.000 C 
ATOM      8  C   UNL     1       0.828   2.448  18.838  0.00  0.00    +0.000 C 
ATOM      9  C   UNL     1       1.203   3.719  18.078  0.00  0.00    +0.000 C 
ATOM     10  C   UNL     1       1.991   4.697  18.956  0.00  0.00    +0.000 C 
ATOM     11  C   UNL     1       3.245   4.035  19.581  0.00  0.00    +0.000 C 
ATOM     12  C   UNL     1       4.324   3.700  18.535  0.00  0.00    +0.000 C 
ENDBRANCH   1  10
BRANCH   2  13
ATOM     13  C   UNL     1       2.900   8.268  17.934  0.00  0.00    +0.000 C 
BRANCH  13  14
ATOM     14  N   UNL     1       3.772   7.743  16.869  0.00  0.00    +0.000 NA
ATOM     15  H   UNL     1       3.865   8.478  16.161  0.00  0.00    +0.000 HD
BRANCH  14  16
ATOM     16  C   UNL     1       5.117   7.431  17.363  0.00  0.00    +0.000 C 
BRANCH  16  17
ATOM     17  C   UNL     1       5.726   6.286  16.597  0.00  0.00    +0.000 A 
ATOM     18  C   UNL     1       5.114   5.789  15.436  0.00  0.00    +0.000 A 
ATOM     19  C   UNL     1       5.682   4.724  14.734  0.00  0.00    +0.000 A 
ATOM     20  C   UNL     1       6.866   4.139  15.182  0.00  0.00    +0.000 A 
ATOM     21  C   UNL     1       7.480   4.620  16.337  0.00  0.00    +0.000 A 
ATOM     22  C   UNL     1       6.909   5.683  17.035  0.00  0.00    +0.000 A 
ATOM     23  F   UNL     1       7.516   6.119  18.148  0.00  0.00    +0.000 F 
ENDBRANCH  16  17
ENDBRANCH  14  16
ENDBRANCH  13  14
ENDBRANCH   2  13
TORSDOF 5
ENDMDL
