MODEL 1
REMARK VINA RESULT:      -8.7      0.000      0.000
REMARK  Name = 
REMARK  9 active torsions:
REMARK  status: ('A' for Active; 'I' for Inactive)
REMARK    1  A    between atoms: C_1  and  C_2
REMARK    2  A    between atoms: C_5  and  C_6
REMARK    3  A    between atoms: C_9  and  C_10
REMARK    4  A    between atoms: C_10  and  S_11
REMARK    5  A    between atoms: S_11  and  C_12
REMARK    6  A    between atoms: C_15  and  C_16
REMARK    7  A    between atoms: N_17  and  C_18
REMARK    8  A    between atoms: C_21  and  C_22
REMARK    9  A    between atoms: C_23  and  C_24
REMARK                            x       y       z     vdW  Elec       q    Type
REMARK                         _______ _______ _______ _____ _____    ______ ____
ROOT
ATOM      1  S   UNL     1       6.253   5.342  19.542  0.00  0.00    +0.000 S 
ENDROOT
BRANCH   1   2
ATOM      2  C   UNL     1       4.935   4.316  19.078  0.00  0.00    +0.000 A 
ATOM      3  N   UNL     1       5.014   3.006  19.036  0.00  0.00    +0.000 NA
ATOM      4  N   UNL     1       3.773   2.519  18.746  0.00  0.00    +0.000 NA
ATOM      5  C   UNL     1       2.947   3.537  18.599  0.00  0.00    +0.000 A 
ATOM      6  C   UNL     1       1.556   3.403  18.093  0.00  0.00    +0.000 C 
ATOM      7  N   UNL     1       3.626   4.734  18.841  0.00  0.00    +0.000 N 
BRANCH   7   8
ATOM      8  C   UNL     1       3.080   6.058  18.823  0.00  0.00    +0.000 A 
ATOM      9  C   UNL     1       3.213   6.874  17.696  0.00  0.00    +0.000 A 
ATOM     10  C   UNL     1       2.678   8.167  17.686  0.00  0.00    +0.000 A 
ATOM     11  C   UNL     1       1.964   8.666  18.784  0.00  0.00    +0.000 A 
ATOM     12  C   UNL     1       1.395  10.056  18.718  0.00  0.00    +0.000 C 
ATOM     13  C   UNL     1       1.800   7.847  19.913  0.00  0.00    +0.000 A 
ATOM     14  C   UNL     1       0.998   8.250  21.122  0.00  0.00    +0.000 C 
ATOM     15  C   UNL     1       2.386   6.567  19.927  0.00  0.00    +0.000 A 
ENDBRANCH   7   8
ENDBRANCH   1   2
BRANCH   1  16
ATOM     16  C   UNL     1       7.147   5.604  17.978  0.00  0.00    +0.000 C 
BRANCH  16  20
ATOM     17  C   UNL     1       8.288   8.998  18.088  0.00  0.00    +0.000 A 
ATOM     18  N   UNL     1       7.302   9.124  17.181  0.00  0.00    +0.000 NA
ATOM     19  O   UNL     1       6.804   7.827  17.043  0.00  0.00    +0.000 OA
ATOM     20  C   UNL     1       7.539   7.035  17.875  0.00  0.00    +0.000 A 
ATOM     21  N   UNL     1       8.478   7.699  18.513  0.00  0.00    +0.000 NA
BRANCH  17  26
ATOM     22  C   UNL     1      11.223  13.461  20.316  0.00  0.00    +0.000 C 
ATOM     23  C   UNL     1      10.489  12.294  19.721  0.00  0.00    +0.000 A 
ATOM     24  C   UNL     1      10.432  12.108  18.336  0.00  0.00    +0.000 A 
ATOM     25  C   UNL     1       9.723  11.022  17.795  0.00  0.00    +0.000 A 
ATOM     26  C   UNL     1       9.064  10.108  18.630  0.00  0.00    +0.000 A 
ATOM     27  C   UNL     1       9.137  10.300  20.018  0.00  0.00    +0.000 A 
ATOM     28  C   UNL     1       9.841  11.381  20.559  0.00  0.00    +0.000 A 
ENDBRANCH  17  26
ENDBRANCH  16  20
ENDBRANCH   1  16
TORSDOF 5
ENDMDL
MODEL 2
REMARK VINA RESULT:      -8.4      0.702      1.625
REMARK  Name = 
REMARK  9 active torsions:
REMARK  status: ('A' for Active; 'I' for Inactive)
REMARK    1  A    between atoms: C_1  and  C_2
REMARK    2  A    between atoms: C_5  and  C_6
REMARK    3  A    between atoms: C_9  and  C_10
REMARK    4  A    between atoms: C_10  and  S_11
REMARK    5  A    between atoms: S_11  and  C_12
REMARK    6  A    between atoms: C_15  and  C_16
REMARK    7  A    between atoms: N_17  and  C_18
REMARK    8  A    between atoms: C_21  and  C_22
REMARK    9  A    between atoms: C_23  and  C_24
REMARK                            x       y       z     vdW  Elec       q    Type
REMARK                         _______ _______ _______ _____ _____    ______ ____
ROOT
ATOM      1  S   UNL     1       5.898   5.351  19.433  0.00  0.00    +0.000 S 
ENDROOT
BRANCH   1   2
ATOM      2  C   UNL     1       4.627   4.519  18.598  0.00  0.00    +0.000 A 
ATOM      3  N   UNL     1       4.776   3.343  18.036  0.00  0.00    +0.000 NA
ATOM      4  N   UNL     1       3.557   2.939  17.576  0.00  0.00    +0.000 NA
ATOM      5  C   UNL     1       2.674   3.879  17.849  0.00  0.00    +0.000 A 
ATOM      6  C   UNL     1       1.280   3.875  17.333  0.00  0.00    +0.000 C 
ATOM      7  N   UNL     1       3.291   4.918  18.550  0.00  0.00    +0.000 N 
BRANCH   7   8
ATOM      8  C   UNL     1       2.674   6.104  19.063  0.00  0.00    +0.000 A 
ATOM      9  C   UNL     1       2.224   6.165  20.385  0.00  0.00    +0.000 A 
ATOM     10  C   UNL     1       1.621   7.326  20.879  0.00  0.00    +0.000 A 
ATOM     11  C   UNL     1       1.484   8.470  20.080  0.00  0.00    +0.000 A 
ATOM     12  C   UNL     1       0.843   9.698  20.662  0.00  0.00    +0.000 C 
ATOM     13  C   UNL     1       1.956   8.431  18.758  0.00  0.00    +0.000 A 
ATOM     14  C   UNL     1       1.923   9.616  17.829  0.00  0.00    +0.000 C 
ATOM     15  C   UNL     1       2.516   7.239  18.260  0.00  0.00    +0.000 A 
ENDBRANCH   7   8
ENDBRANCH   1   2
BRANCH   1  16
ATOM     16  C   UNL     1       7.215   5.463  18.181  0.00  0.00    +0.000 C 
BRANCH  16  20
ATOM     17  C   UNL     1       8.243   8.894  18.108  0.00  0.00    +0.000 A 
ATOM     18  N   UNL     1       7.416   8.887  17.046  0.00  0.00    +0.000 NA
ATOM     19  O   UNL     1       6.978   7.564  16.970  0.00  0.00    +0.000 OA
ATOM     20  C   UNL     1       7.585   6.891  17.990  0.00  0.00    +0.000 A 
ATOM     21  N   UNL     1       8.391   7.654  18.695  0.00  0.00    +0.000 NA
BRANCH  17  26
ATOM     22  C   UNL     1      10.947  13.598  20.120  0.00  0.00    +0.000 C 
ATOM     23  C   UNL     1      10.225  12.380  19.623  0.00  0.00    +0.000 A 
ATOM     24  C   UNL     1      10.030  11.270  20.451  0.00  0.00    +0.000 A 
ATOM     25  C   UNL     1       9.370  10.129  19.965  0.00  0.00    +0.000 A 
ATOM     26  C   UNL     1       8.894  10.084  18.646  0.00  0.00    +0.000 A 
ATOM     27  C   UNL     1       9.086  11.207  17.828  0.00  0.00    +0.000 A 
ATOM     28  C   UNL     1       9.744  12.343  18.310  0.00  0.00    +0.000 A 
ENDBRANCH  17  26
ENDBRANCH  16  20
ENDBRANCH   1  16
TORSDOF 5
ENDMDL
MODEL 3
REMARK VINA RESULT:      -8.1      5.006      8.119
REMARK  Name = 
REMARK  9 active torsions:
REMARK  status: ('A' for Active; 'I' for Inactive)
REMARK    1  A    between atoms: C_1  and  C_2
REMARK    2  A    between atoms: C_5  and  C_6
REMARK    3  A    between atoms: C_9  and  C_10
REMARK    4  A    between atoms: C_10  and  S_11
REMARK    5  A    between atoms: S_11  and  C_12
REMARK    6  A    between atoms: C_15  and  C_16
REMARK    7  A    between atoms: N_17  and  C_18
REMARK    8  A    between atoms: C_21  and  C_22
REMARK    9  A    between atoms: C_23  and  C_24
REMARK                            x       y       z     vdW  Elec       q    Type
REMARK                         _______ _______ _______ _____ _____    ______ ____
ROOT
ATOM      1  S   UNL     1      -0.289   9.426  21.242  0.00  0.00    +0.000 S 
ENDROOT
BRANCH   1   2
ATOM      2  C   UNL     1       0.224  11.059  20.964  0.00  0.00    +0.000 A 
ATOM      3  N   UNL     1       1.342  11.559  21.436  0.00  0.00    +0.000 NA
ATOM      4  N   UNL     1       1.485  12.819  20.933  0.00  0.00    +0.000 NA
ATOM      5  C   UNL     1       0.444  13.084  20.167  0.00  0.00    +0.000 A 
ATOM      6  C   UNL     1       0.160  14.428  19.601  0.00  0.00    +0.000 C 
ATOM      7  N   UNL     1      -0.395  11.969  20.108  0.00  0.00    +0.000 N 
BRANCH   7   8
ATOM      8  C   UNL     1      -1.606  11.835  19.355  0.00  0.00    +0.000 A 
ATOM      9  C   UNL     1      -2.828  12.267  19.876  0.00  0.00    +0.000 A 
ATOM     10  C   UNL     1      -4.006  12.132  19.135  0.00  0.00    +0.000 A 
ATOM     11  C   UNL     1      -3.992  11.597  17.839  0.00  0.00    +0.000 A 
ATOM     12  C   UNL     1      -5.283  11.487  17.077  0.00  0.00    +0.000 C 
ATOM     13  C   UNL     1      -2.767  11.183  17.292  0.00  0.00    +0.000 A 
ATOM     14  C   UNL     1      -2.619  10.656  15.890  0.00  0.00    +0.000 C 
ATOM     15  C   UNL     1      -1.596  11.280  18.070  0.00  0.00    +0.000 A 
ENDBRANCH   7   8
ENDBRANCH   1   2
BRANCH   1  16
ATOM     16  C   UNL     1       1.281   8.521  21.416  0.00  0.00    +0.000 C 
BRANCH  16  20
ATOM     17  C   UNL     1       2.680   7.257  18.370  0.00  0.00    +0.000 A 
ATOM     18  N   UNL     1       2.066   8.356  17.893  0.00  0.00    +0.000 NA
ATOM     19  O   UNL     1       1.454   8.913  19.018  0.00  0.00    +0.000 OA
ATOM     20  C   UNL     1       1.751   8.097  20.070  0.00  0.00    +0.000 A 
ATOM     21  N   UNL     1       2.473   7.055  19.719  0.00  0.00    +0.000 NA
BRANCH  17  26
ATOM     22  C   UNL     1       6.109   3.676  15.386  0.00  0.00    +0.000 C 
ATOM     23  C   UNL     1       5.214   4.621  16.132  0.00  0.00    +0.000 A 
ATOM     24  C   UNL     1       5.411   6.004  16.067  0.00  0.00    +0.000 A 
ATOM     25  C   UNL     1       4.576   6.874  16.787  0.00  0.00    +0.000 A 
ATOM     26  C   UNL     1       3.532   6.374  17.580  0.00  0.00    +0.000 A 
ATOM     27  C   UNL     1       3.338   4.986  17.629  0.00  0.00    +0.000 A 
ATOM     28  C   UNL     1       4.169   4.118  16.914  0.00  0.00    +0.000 A 
ENDBRANCH  17  26
ENDBRANCH  16  20
ENDBRANCH   1  16
TORSDOF 5
ENDMDL
MODEL 4
REMARK VINA RESULT:      -7.8      2.219      3.201
REMARK  Name = 
REMARK  9 active torsions:
REMARK  status: ('A' for Active; 'I' for Inactive)
REMARK    1  A    between atoms: C_1  and  C_2
REMARK    2  A    between atoms: C_5  and  C_6
REMARK    3  A    between atoms: C_9  and  C_10
REMARK    4  A    between atoms: C_10  and  S_11
REMARK    5  A    between atoms: S_11  and  C_12
REMARK    6  A    between atoms: C_15  and  C_16
REMARK    7  A    between atoms: N_17  and  C_18
REMARK    8  A    between atoms: C_21  and  C_22
REMARK    9  A    between atoms: C_23  and  C_24
REMARK                            x       y       z     vdW  Elec       q    Type
REMARK                         _______ _______ _______ _____ _____    ______ ____
ROOT
ATOM      1  S   UNL     1       7.772   6.821  18.304  0.00  0.00    +0.000 S 
ENDROOT
BRANCH   1   2
ATOM      2  C   UNL     1       7.037   5.622  17.289  0.00  0.00    +0.000 A 
ATOM      3  N   UNL     1       7.714   4.849  16.472  0.00  0.00    +0.000 NA
ATOM      4  N   UNL     1       6.843   3.956  15.921  0.00  0.00    +0.000 NA
ATOM      5  C   UNL     1       5.637   4.198  16.397  0.00  0.00    +0.000 A 
ATOM      6  C   UNL     1       4.403   3.549  15.882  0.00  0.00    +0.000 C 
ATOM      7  N   UNL     1       5.696   5.242  17.323  0.00  0.00    +0.000 N 
BRANCH   7   8
ATOM      8  C   UNL     1       4.614   5.781  18.091  0.00  0.00    +0.000 A 
ATOM      9  C   UNL     1       4.274   5.238  19.333  0.00  0.00    +0.000 A 
ATOM     10  C   UNL     1       3.214   5.769  20.077  0.00  0.00    +0.000 A 
ATOM     11  C   UNL     1       2.490   6.879  19.619  0.00  0.00    +0.000 A 
ATOM     12  C   UNL     1       1.371   7.422  20.462  0.00  0.00    +0.000 C 
ATOM     13  C   UNL     1       2.838   7.451  18.385  0.00  0.00    +0.000 A 
ATOM     14  C   UNL     1       2.177   8.681  17.824  0.00  0.00    +0.000 C 
ATOM     15  C   UNL     1       3.875   6.875  17.625  0.00  0.00    +0.000 A 
ENDBRANCH   7   8
ENDBRANCH   1   2
BRANCH   1  16
ATOM     16  C   UNL     1       7.252   8.389  17.539  0.00  0.00    +0.000 C 
BRANCH  16  20
ATOM     17  C   UNL     1       9.376  11.178  18.275  0.00  0.00    +0.000 A 
ATOM     18  N   UNL     1       9.760  10.342  19.257  0.00  0.00    +0.000 NA
ATOM     19  O   UNL     1       8.955   9.216  19.072  0.00  0.00    +0.000 OA
ATOM     20  C   UNL     1       8.155   9.478  17.999  0.00  0.00    +0.000 A 
ATOM     21  N   UNL     1       8.354  10.677  17.496  0.00  0.00    +0.000 NA
BRANCH  17  26
ATOM     22  C   UNL     1      11.957  16.260  17.271  0.00  0.00    +0.000 C 
ATOM     23  C   UNL     1      11.261  14.953  17.516  0.00  0.00    +0.000 A 
ATOM     24  C   UNL     1      10.018  14.907  18.157  0.00  0.00    +0.000 A 
ATOM     25  C   UNL     1       9.389  13.674  18.397  0.00  0.00    +0.000 A 
ATOM     26  C   UNL     1       9.992  12.471  17.998  0.00  0.00    +0.000 A 
ATOM     27  C   UNL     1      11.233  12.532  17.347  0.00  0.00    +0.000 A 
ATOM     28  C   UNL     1      11.862  13.758  17.109  0.00  0.00    +0.000 A 
ENDBRANCH  17  26
ENDBRANCH  16  20
ENDBRANCH   1  16
TORSDOF 5
ENDMDL
MODEL 5
REMARK VINA RESULT:      -7.8      4.096      8.719
REMARK  Name = 
REMARK  9 active torsions:
REMARK  status: ('A' for Active; 'I' for Inactive)
REMARK    1  A    between atoms: C_1  and  C_2
REMARK    2  A    between atoms: C_5  and  C_6
REMARK    3  A    between atoms: C_9  and  C_10
REMARK    4  A    between atoms: C_10  and  S_11
REMARK    5  A    between atoms: S_11  and  C_12
REMARK    6  A    between atoms: C_15  and  C_16
REMARK    7  A    between atoms: N_17  and  C_18
REMARK    8  A    between atoms: C_21  and  C_22
REMARK    9  A    between atoms: C_23  and  C_24
REMARK                            x       y       z     vdW  Elec       q    Type
REMARK                         _______ _______ _______ _____ _____    ______ ____
ROOT
ATOM      1  S   UNL     1       2.301   7.600  19.092  0.00  0.00    +0.000 S 
ENDROOT
BRANCH   1   2
ATOM      2  C   UNL     1       2.416   6.025  19.806  0.00  0.00    +0.000 A 
ATOM      3  N   UNL     1       1.654   5.617  20.794  0.00  0.00    +0.000 NA
ATOM      4  N   UNL     1       1.933   4.303  21.026  0.00  0.00    +0.000 NA
ATOM      5  C   UNL     1       2.875   3.920  20.186  0.00  0.00    +0.000 A 
ATOM      6  C   UNL     1       3.568   2.607  20.268  0.00  0.00    +0.000 C 
ATOM      7  N   UNL     1       3.208   4.977  19.336  0.00  0.00    +0.000 N 
BRANCH   7   8
ATOM      8  C   UNL     1       4.155   4.960  18.262  0.00  0.00    +0.000 A 
ATOM      9  C   UNL     1       3.929   4.190  17.118  0.00  0.00    +0.000 A 
ATOM     10  C   UNL     1       4.860   4.177  16.073  0.00  0.00    +0.000 A 
ATOM     11  C   UNL     1       6.021   4.961  16.125  0.00  0.00    +0.000 A 
ATOM     12  C   UNL     1       6.982   4.924  14.970  0.00  0.00    +0.000 C 
ATOM     13  C   UNL     1       6.247   5.760  17.257  0.00  0.00    +0.000 A 
ATOM     14  C   UNL     1       7.422   6.690  17.396  0.00  0.00    +0.000 C 
ATOM     15  C   UNL     1       5.326   5.724  18.322  0.00  0.00    +0.000 A 
ENDBRANCH   7   8
ENDBRANCH   1   2
BRANCH   1  16
ATOM     16  C   UNL     1       1.541   8.599  20.411  0.00  0.00    +0.000 C 
BRANCH  16  20
ATOM     17  C   UNL     1      -0.915  10.768  18.964  0.00  0.00    +0.000 A 
ATOM     18  N   UNL     1       0.203  11.400  18.562  0.00  0.00    +0.000 NA
ATOM     19  O   UNL     1       1.235  10.636  19.110  0.00  0.00    +0.000 OA
ATOM     20  C   UNL     1       0.646   9.616  19.798  0.00  0.00    +0.000 A 
ATOM     21  N   UNL     1      -0.668   9.670  19.763  0.00  0.00    +0.000 NA
BRANCH  17  26
ATOM     22  C   UNL     1      -6.219  12.345  17.267  0.00  0.00    +0.000 C 
ATOM     23  C   UNL     1      -4.856  11.924  17.735  0.00  0.00    +0.000 A 
ATOM     24  C   UNL     1      -4.365  12.327  18.981  0.00  0.00    +0.000 A 
ATOM     25  C   UNL     1      -3.080  11.941  19.395  0.00  0.00    +0.000 A 
ATOM     26  C   UNL     1      -2.269  11.145  18.571  0.00  0.00    +0.000 A 
ATOM     27  C   UNL     1      -2.777  10.739  17.328  0.00  0.00    +0.000 A 
ATOM     28  C   UNL     1      -4.056  11.124  16.913  0.00  0.00    +0.000 A 
ENDBRANCH  17  26
ENDBRANCH  16  20
ENDBRANCH   1  16
TORSDOF 5
ENDMDL
MODEL 6
REMARK VINA RESULT:      -7.8      3.869      7.440
REMARK  Name = 
REMARK  9 active torsions:
REMARK  status: ('A' for Active; 'I' for Inactive)
REMARK    1  A    between atoms: C_1  and  C_2
REMARK    2  A    between atoms: C_5  and  C_6
REMARK    3  A    between atoms: C_9  and  C_10
REMARK    4  A    between atoms: C_10  and  S_11
REMARK    5  A    between atoms: S_11  and  C_12
REMARK    6  A    between atoms: C_15  and  C_16
REMARK    7  A    between atoms: N_17  and  C_18
REMARK    8  A    between atoms: C_21  and  C_22
REMARK    9  A    between atoms: C_23  and  C_24
REMARK                            x       y       z     vdW  Elec       q    Type
REMARK                         _______ _______ _______ _____ _____    ______ ____
ROOT
ATOM      1  S   UNL     1       1.792   5.744  20.753  0.00  0.00    +0.000 S 
ENDROOT
BRANCH   1   2
ATOM      2  C   UNL     1       1.994   4.184  20.024  0.00  0.00    +0.000 A 
ATOM      3  N   UNL     1       1.120   3.212  20.137  0.00  0.00    +0.000 NA
ATOM      4  N   UNL     1       1.537   2.178  19.351  0.00  0.00    +0.000 NA
ATOM      5  C   UNL     1       2.672   2.523  18.773  0.00  0.00    +0.000 A 
ATOM      6  C   UNL     1       3.519   1.582  17.994  0.00  0.00    +0.000 C 
ATOM      7  N   UNL     1       3.006   3.831  19.132  0.00  0.00    +0.000 N 
BRANCH   7   8
ATOM      8  C   UNL     1       4.138   4.588  18.689  0.00  0.00    +0.000 A 
ATOM      9  C   UNL     1       5.250   4.770  19.515  0.00  0.00    +0.000 A 
ATOM     10  C   UNL     1       6.351   5.512  19.076  0.00  0.00    +0.000 A 
ATOM     11  C   UNL     1       6.389   6.061  17.786  0.00  0.00    +0.000 A 
ATOM     12  C   UNL     1       7.601   6.837  17.356  0.00  0.00    +0.000 C 
ATOM     13  C   UNL     1       5.289   5.864  16.935  0.00  0.00    +0.000 A 
ATOM     14  C   UNL     1       5.244   6.349  15.511  0.00  0.00    +0.000 C 
ATOM     15  C   UNL     1       4.168   5.156  17.410  0.00  0.00    +0.000 A 
ENDBRANCH   7   8
ENDBRANCH   1   2
BRANCH   1  16
ATOM     16  C   UNL     1       2.271   6.890  19.422  0.00  0.00    +0.000 C 
BRANCH  16  20
ATOM     17  C   UNL     1       0.513   9.887  20.295  0.00  0.00    +0.000 A 
ATOM     18  N   UNL     1       0.997  10.255  19.095  0.00  0.00    +0.000 NA
ATOM     19  O   UNL     1       1.735   9.147  18.677  0.00  0.00    +0.000 OA
ATOM     20  C   UNL     1       1.634   8.212  19.665  0.00  0.00    +0.000 A 
ATOM     21  N   UNL     1       0.921   8.629  20.689  0.00  0.00    +0.000 NA
BRANCH  17  26
ATOM     22  C   UNL     1      -3.196  12.923  23.539  0.00  0.00    +0.000 C 
ATOM     23  C   UNL     1      -2.219  12.163  22.689  0.00  0.00    +0.000 A 
ATOM     24  C   UNL     1      -2.046  12.475  21.337  0.00  0.00    +0.000 A 
ATOM     25  C   UNL     1      -1.143  11.741  20.550  0.00  0.00    +0.000 A 
ATOM     26  C   UNL     1      -0.399  10.689  21.104  0.00  0.00    +0.000 A 
ATOM     27  C   UNL     1      -0.574  10.393  22.464  0.00  0.00    +0.000 A 
ATOM     28  C   UNL     1      -1.474  11.121  23.249  0.00  0.00    +0.000 A 
ENDBRANCH  17  26
ENDBRANCH  16  20
ENDBRANCH   1  16
TORSDOF 5
ENDMDL
MODEL 7
REMARK VINA RESULT:      -7.8      1.312      2.044
REMARK  Name = 
REMARK  9 active torsions:
REMARK  status: ('A' for Active; 'I' for Inactive)
REMARK    1  A    between atoms: C_1  and  C_2
REMARK    2  A    between atoms: C_5  and  C_6
REMARK    3  A    between atoms: C_9  and  C_10
REMARK    4  A    between atoms: C_10  and  S_11
REMARK    5  A    between atoms: S_11  and  C_12
REMARK    6  A    between atoms: C_15  and  C_16
REMARK    7  A    between atoms: N_17  and  C_18
REMARK    8  A    between atoms: C_21  and  C_22
REMARK    9  A    between atoms: C_23  and  C_24
REMARK                            x       y       z     vdW  Elec       q    Type
REMARK                         _______ _______ _______ _____ _____    ______ ____
ROOT
ATOM      1  S   UNL     1       5.998   5.778  18.786  0.00  0.00    +0.000 S 
ENDROOT
BRANCH   1   2
ATOM      2  C   UNL     1       4.699   4.834  18.131  0.00  0.00    +0.000 A 
ATOM      3  N   UNL     1       4.870   3.670  17.548  0.00  0.00    +0.000 NA
ATOM      4  N   UNL     1       3.638   3.160  17.260  0.00  0.00    +0.000 NA
ATOM      5  C   UNL     1       2.723   4.023  17.657  0.00  0.00    +0.000 A 
ATOM      6  C   UNL     1       1.277   3.896  17.339  0.00  0.00    +0.000 C 
ATOM      7  N   UNL     1       3.340   5.116  18.270  0.00  0.00    +0.000 N 
BRANCH   7   8
ATOM      8  C   UNL     1       2.700   6.249  18.869  0.00  0.00    +0.000 A 
ATOM      9  C   UNL     1       2.226   6.195  20.182  0.00  0.00    +0.000 A 
ATOM     10  C   UNL     1       1.601   7.304  20.760  0.00  0.00    +0.000 A 
ATOM     11  C   UNL     1       1.466   8.510  20.058  0.00  0.00    +0.000 A 
ATOM     12  C   UNL     1       0.801   9.679  20.728  0.00  0.00    +0.000 C 
ATOM     13  C   UNL     1       1.962   8.587  18.746  0.00  0.00    +0.000 A 
ATOM     14  C   UNL     1       1.933   9.845  17.920  0.00  0.00    +0.000 C 
ATOM     15  C   UNL     1       2.545   7.446  18.161  0.00  0.00    +0.000 A 
ENDBRANCH   7   8
ENDBRANCH   1   2
BRANCH   1  16
ATOM     16  C   UNL     1       6.572   6.744  17.354  0.00  0.00    +0.000 C 
BRANCH  16  20
ATOM     17  C   UNL     1       8.558   9.615  18.159  0.00  0.00    +0.000 A 
ATOM     18  N   UNL     1       9.103   8.723  19.007  0.00  0.00    +0.000 NA
ATOM     19  O   UNL     1       8.365   7.558  18.789  0.00  0.00    +0.000 OA
ATOM     20  C   UNL     1       7.438   7.855  17.832  0.00  0.00    +0.000 A 
ATOM     21  N   UNL     1       7.497   9.108  17.438  0.00  0.00    +0.000 NA
BRANCH  17  26
ATOM     22  C   UNL     1      10.561  15.007  17.520  0.00  0.00    +0.000 C 
ATOM     23  C   UNL     1      10.028  13.611  17.657  0.00  0.00    +0.000 A 
ATOM     24  C   UNL     1       8.663  13.342  17.505  0.00  0.00    +0.000 A 
ATOM     25  C   UNL     1       8.177  12.033  17.656  0.00  0.00    +0.000 A 
ATOM     26  C   UNL     1       9.048  10.974  17.957  0.00  0.00    +0.000 A 
ATOM     27  C   UNL     1      10.415  11.255  18.096  0.00  0.00    +0.000 A 
ATOM     28  C   UNL     1      10.901  12.558  17.948  0.00  0.00    +0.000 A 
ENDBRANCH  17  26
ENDBRANCH  16  20
ENDBRANCH   1  16
TORSDOF 5
ENDMDL
MODEL 8
REMARK VINA RESULT:      -7.7      1.279      1.632
REMARK  Name = 
REMARK  9 active torsions:
REMARK  status: ('A' for Active; 'I' for Inactive)
REMARK    1  A    between atoms: C_1  and  C_2
REMARK    2  A    between atoms: C_5  and  C_6
REMARK    3  A    between atoms: C_9  and  C_10
REMARK    4  A    between atoms: C_10  and  S_11
REMARK    5  A    between atoms: S_11  and  C_12
REMARK    6  A    between atoms: C_15  and  C_16
REMARK    7  A    between atoms: N_17  and  C_18
REMARK    8  A    between atoms: C_21  and  C_22
REMARK    9  A    between atoms: C_23  and  C_24
REMARK                            x       y       z     vdW  Elec       q    Type
REMARK                         _______ _______ _______ _____ _____    ______ ____
ROOT
ATOM      1  S   UNL     1       6.055   5.732  18.871  0.00  0.00    +0.000 S 
ENDROOT
BRANCH   1   2
ATOM      2  C   UNL     1       4.720   4.802  18.272  0.00  0.00    +0.000 A 
ATOM      3  N   UNL     1       4.806   3.533  17.948  0.00  0.00    +0.000 NA
ATOM      4  N   UNL     1       3.555   3.093  17.630  0.00  0.00    +0.000 NA
ATOM      5  C   UNL     1       2.714   4.103  17.750  0.00  0.00    +0.000 A 
ATOM      6  C   UNL     1       1.296   4.051  17.305  0.00  0.00    +0.000 C 
ATOM      7  N   UNL     1       3.396   5.234  18.204  0.00  0.00    +0.000 N 
BRANCH   7   8
ATOM      8  C   UNL     1       2.839   6.521  18.498  0.00  0.00    +0.000 A 
ATOM      9  C   UNL     1       2.785   7.520  17.523  0.00  0.00    +0.000 A 
ATOM     10  C   UNL     1       2.241   8.775  17.819  0.00  0.00    +0.000 A 
ATOM     11  C   UNL     1       1.702   9.053  19.082  0.00  0.00    +0.000 A 
ATOM     12  C   UNL     1       1.115  10.411  19.345  0.00  0.00    +0.000 C 
ATOM     13  C   UNL     1       1.726   8.049  20.063  0.00  0.00    +0.000 A 
ATOM     14  C   UNL     1       1.119   8.210  21.432  0.00  0.00    +0.000 C 
ATOM     15  C   UNL     1       2.321   6.808  19.766  0.00  0.00    +0.000 A 
ENDBRANCH   7   8
ENDBRANCH   1   2
BRANCH   1  16
ATOM     16  C   UNL     1       6.566   6.706  17.420  0.00  0.00    +0.000 C 
BRANCH  16  20
ATOM     17  C   UNL     1       8.564   9.589  18.150  0.00  0.00    +0.000 A 
ATOM     18  N   UNL     1       9.124   8.709  19.000  0.00  0.00    +0.000 NA
ATOM     19  O   UNL     1       8.383   7.541  18.811  0.00  0.00    +0.000 OA
ATOM     20  C   UNL     1       7.440   7.823  17.867  0.00  0.00    +0.000 A 
ATOM     21  N   UNL     1       7.490   9.071  17.454  0.00  0.00    +0.000 NA
BRANCH  17  26
ATOM     22  C   UNL     1      10.562  14.968  17.395  0.00  0.00    +0.000 C 
ATOM     23  C   UNL     1      10.027  13.575  17.563  0.00  0.00    +0.000 A 
ATOM     24  C   UNL     1       8.651  13.323  17.536  0.00  0.00    +0.000 A 
ATOM     25  C   UNL     1       8.166  12.017  17.715  0.00  0.00    +0.000 A 
ATOM     26  C   UNL     1       9.048  10.946  17.920  0.00  0.00    +0.000 A 
ATOM     27  C   UNL     1      10.426  11.210  17.934  0.00  0.00    +0.000 A 
ATOM     28  C   UNL     1      10.911  12.509  17.758  0.00  0.00    +0.000 A 
ENDBRANCH  17  26
ENDBRANCH  16  20
ENDBRANCH   1  16
TORSDOF 5
ENDMDL
MODEL 9
REMARK VINA RESULT:      -7.7      1.257      2.048
REMARK  Name = 
REMARK  9 active torsions:
REMARK  status: ('A' for Active; 'I' for Inactive)
REMARK    1  A    between atoms: C_1  and  C_2
REMARK    2  A    between atoms: C_5  and  C_6
REMARK    3  A    between atoms: C_9  and  C_10
REMARK    4  A    between atoms: C_10  and  S_11
REMARK    5  A    between atoms: S_11  and  C_12
REMARK    6  A    between atoms: C_15  and  C_16
REMARK    7  A    between atoms: N_17  and  C_18
REMARK    8  A    between atoms: C_21  and  C_22
REMARK    9  A    between atoms: C_23  and  C_24
REMARK                            x       y       z     vdW  Elec       q    Type
REMARK                         _______ _______ _______ _____ _____    ______ ____
ROOT
ATOM      1  S   UNL     1       4.839   6.526  16.492  0.00  0.00    +0.000 S 
ENDROOT
BRANCH   1   2
ATOM      2  C   UNL     1       4.140   5.145  17.273  0.00  0.00    +0.000 A 
ATOM      3  N   UNL     1       4.518   3.910  17.039  0.00  0.00    +0.000 NA
ATOM      4  N   UNL     1       3.846   3.094  17.902  0.00  0.00    +0.000 NA
ATOM      5  C   UNL     1       3.052   3.837  18.648  0.00  0.00    +0.000 A 
ATOM      6  C   UNL     1       2.029   3.279  19.571  0.00  0.00    +0.000 C 
ATOM      7  N   UNL     1       3.222   5.185  18.322  0.00  0.00    +0.000 N 
BRANCH   7   8
ATOM      8  C   UNL     1       2.576   6.311  18.927  0.00  0.00    +0.000 A 
ATOM      9  C   UNL     1       2.143   6.263  20.255  0.00  0.00    +0.000 A 
ATOM     10  C   UNL     1       1.512   7.366  20.839  0.00  0.00    +0.000 A 
ATOM     11  C   UNL     1       1.329   8.560  20.127  0.00  0.00    +0.000 A 
ATOM     12  C   UNL     1       0.659   9.722  20.803  0.00  0.00    +0.000 C 
ATOM     13  C   UNL     1       1.783   8.631  18.800  0.00  0.00    +0.000 A 
ATOM     14  C   UNL     1       1.702   9.877  17.960  0.00  0.00    +0.000 C 
ATOM     15  C   UNL     1       2.373   7.496  18.210  0.00  0.00    +0.000 A 
ENDBRANCH   7   8
ENDBRANCH   1   2
BRANCH   1  16
ATOM     16  C   UNL     1       6.614   6.125  16.448  0.00  0.00    +0.000 C 
BRANCH  16  20
ATOM     17  C   UNL     1       8.384   8.515  18.444  0.00  0.00    +0.000 A 
ATOM     18  N   UNL     1       8.567   7.416  19.199  0.00  0.00    +0.000 NA
ATOM     19  O   UNL     1       7.877   6.417  18.510  0.00  0.00    +0.000 OA
ATOM     20  C   UNL     1       7.337   7.005  17.405  0.00  0.00    +0.000 A 
ATOM     21  N   UNL     1       7.593   8.293  17.335  0.00  0.00    +0.000 NA
BRANCH  17  26
ATOM     22  C   UNL     1      10.918  13.631  19.395  0.00  0.00    +0.000 C 
ATOM     23  C   UNL     1      10.238  12.312  19.171  0.00  0.00    +0.000 A 
ATOM     24  C   UNL     1       9.983  11.442  20.236  0.00  0.00    +0.000 A 
ATOM     25  C   UNL     1       9.364  10.202  20.006  0.00  0.00    +0.000 A 
ATOM     26  C   UNL     1       8.990   9.816  18.710  0.00  0.00    +0.000 A 
ATOM     27  C   UNL     1       9.242  10.701  17.652  0.00  0.00    +0.000 A 
ATOM     28  C   UNL     1       9.859  11.936  17.878  0.00  0.00    +0.000 A 
ENDBRANCH  17  26
ENDBRANCH  16  20
ENDBRANCH   1  16
TORSDOF 5
ENDMDL
