MODEL 1
REMARK VINA RESULT:      -8.3      0.000      0.000
REMARK  Name = 
REMARK  11 active torsions:
REMARK  status: ('A' for Active; 'I' for Inactive)
REMARK    1  A    between atoms: C_1  and  C_2
REMARK    2  A    between atoms: C_2  and  N_3
REMARK    3  A    between atoms: N_3  and  C_4
REMARK    4  A    between atoms: C_4  and  C_5
REMARK    5  A    between atoms: C_6  and  C_8
REMARK    6  A    between atoms: C_11  and  N_12
REMARK    7  A    between atoms: C_13  and  C_15
REMARK    8  A    between atoms: C_15  and  N_16
REMARK    9  A    between atoms: N_16  and  C_17
REMARK   10  A    between atoms: C_17  and  C_18
REMARK   11  A    between atoms: C_17  and  C_19
REMARK                            x       y       z     vdW  Elec       q    Type
REMARK                         _______ _______ _______ _____ _____    ______ ____
ROOT
ATOM      1  N   UNL     1       8.949   9.026  19.057  0.00  0.00    +0.000 N 
ATOM      2  C   UNL     1       8.059   8.554  18.068  0.00  0.00    +0.000 C 
ATOM      3  O   UNL     1       7.427   9.240  17.275  0.00  0.00    +0.000 OA
ATOM      4  H   UNL     1       9.389   8.340  19.675  0.00  0.00    +0.000 HD
ENDROOT
BRANCH   1   8
ATOM      5  C   UNL     1      10.406  13.016  19.259  0.00  0.00    +0.000 A 
ATOM      6  C   UNL     1      10.568  12.243  18.113  0.00  0.00    +0.000 A 
ATOM      7  C   UNL     1      10.007  10.975  18.017  0.00  0.00    +0.000 A 
ATOM      8  C   UNL     1       9.434  10.351  19.121  0.00  0.00    +0.000 A 
ATOM      9  C   UNL     1       9.381  11.069  20.323  0.00  0.00    +0.000 A 
ATOM     10  C   UNL     1       9.851  12.398  20.382  0.00  0.00    +0.000 A 
BRANCH   5  12
ATOM     11  N   UNL     1      10.097  15.479  18.755  0.00  0.00    +0.000 N 
ATOM     12  C   UNL     1      10.873  14.436  19.317  0.00  0.00    +0.000 C 
ATOM     13  O   UNL     1      11.946  14.647  19.885  0.00  0.00    +0.000 OA
BRANCH  11  15
ATOM     14  C   UNL     1      11.403  17.061  17.353  0.00  0.00    +0.000 C 
ATOM     15  C   UNL     1      10.722  16.805  18.690  0.00  0.00    +0.000 C 
ENDBRANCH  11  15
BRANCH  11  16
ATOM     16  C   UNL     1       8.794  15.285  18.104  0.00  0.00    +0.000 C 
ATOM     17  C   UNL     1       7.566  15.091  18.971  0.00  0.00    +0.000 C 
ENDBRANCH  11  16
ENDBRANCH   5  12
ENDBRANCH   1   8
BRANCH   2  18
ATOM     18  C   UNL     1       7.857   7.043  18.017  0.00  0.00    +0.000 C 
BRANCH  18  19
ATOM     19  N   UNL     1       7.035   6.709  16.831  0.00  0.00    +0.000 NA
ATOM     20  H   UNL     1       7.682   6.563  16.048  0.00  0.00    +0.000 HD
BRANCH  19  21
ATOM     21  C   UNL     1       6.208   5.478  16.966  0.00  0.00    +0.000 C 
ATOM     22  C   UNL     1       6.725   4.689  18.177  0.00  0.00    +0.000 C 
BRANCH  21  23
ATOM     23  C   UNL     1       4.711   5.780  17.211  0.00  0.00    +0.000 A 
ATOM     24  C   UNL     1       4.348   7.133  17.398  0.00  0.00    +0.000 A 
ATOM     25  C   UNL     1       3.084   7.496  17.847  0.00  0.00    +0.000 A 
ATOM     26  C   UNL     1       2.178   6.504  18.195  0.00  0.00    +0.000 A 
ATOM     27  C   UNL     1       2.495   5.162  18.050  0.00  0.00    +0.000 A 
ATOM     28  C   UNL     1       1.576   4.236  18.539  0.00  0.00    +0.000 A 
ATOM     29  C   UNL     1       1.906   2.894  18.545  0.00  0.00    +0.000 A 
ATOM     30  C   UNL     1       2.739   2.496  17.523  0.00  0.00    +0.000 A 
ATOM     31  C   UNL     1       3.758   3.367  17.111  0.00  0.00    +0.000 A 
ATOM     32  C   UNL     1       3.719   4.753  17.455  0.00  0.00    +0.000 A 
ENDBRANCH  21  23
ENDBRANCH  19  21
ENDBRANCH  18  19
ENDBRANCH   2  18
TORSDOF 8
ENDMDL
MODEL 2
REMARK VINA RESULT:      -7.9      0.499      1.109
REMARK  Name = 
REMARK  11 active torsions:
REMARK  status: ('A' for Active; 'I' for Inactive)
REMARK    1  A    between atoms: C_1  and  C_2
REMARK    2  A    between atoms: C_2  and  N_3
REMARK    3  A    between atoms: N_3  and  C_4
REMARK    4  A    between atoms: C_4  and  C_5
REMARK    5  A    between atoms: C_6  and  C_8
REMARK    6  A    between atoms: C_11  and  N_12
REMARK    7  A    between atoms: C_13  and  C_15
REMARK    8  A    between atoms: C_15  and  N_16
REMARK    9  A    between atoms: N_16  and  C_17
REMARK   10  A    between atoms: C_17  and  C_18
REMARK   11  A    between atoms: C_17  and  C_19
REMARK                            x       y       z     vdW  Elec       q    Type
REMARK                         _______ _______ _______ _____ _____    ______ ____
ROOT
ATOM      1  N   UNL     1       9.039   9.084  19.056  0.00  0.00    +0.000 N 
ATOM      2  C   UNL     1       8.081   8.640  18.119  0.00  0.00    +0.000 C 
ATOM      3  O   UNL     1       7.369   9.348  17.420  0.00  0.00    +0.000 OA
ATOM      4  H   UNL     1       9.546   8.380  19.597  0.00  0.00    +0.000 HD
ENDROOT
BRANCH   1   8
ATOM      5  C   UNL     1      10.410  13.100  19.342  0.00  0.00    +0.000 A 
ATOM      6  C   UNL     1       9.815  12.458  20.425  0.00  0.00    +0.000 A 
ATOM      7  C   UNL     1       9.457  11.117  20.356  0.00  0.00    +0.000 A 
ATOM      8  C   UNL     1       9.494  10.418  19.154  0.00  0.00    +0.000 A 
ATOM      9  C   UNL     1       9.968  11.092  18.021  0.00  0.00    +0.000 A 
ATOM     10  C   UNL     1      10.437  12.419  18.123  0.00  0.00    +0.000 A 
BRANCH   5  12
ATOM     11  N   UNL     1      10.097  15.610  19.215  0.00  0.00    +0.000 N 
ATOM     12  C   UNL     1      10.938  14.495  19.453  0.00  0.00    +0.000 C 
ATOM     13  O   UNL     1      12.121  14.620  19.773  0.00  0.00    +0.000 OA
BRANCH  11  15
ATOM     14  C   UNL     1      10.880  17.565  20.533  0.00  0.00    +0.000 C 
ATOM     15  C   UNL     1      10.744  16.925  19.159  0.00  0.00    +0.000 C 
ENDBRANCH  11  15
BRANCH  11  16
ATOM     16  C   UNL     1       8.671  15.514  18.872  0.00  0.00    +0.000 C 
ATOM     17  C   UNL     1       7.666  16.293  19.698  0.00  0.00    +0.000 C 
ENDBRANCH  11  16
ENDBRANCH   5  12
ENDBRANCH   1   8
BRANCH   2  18
ATOM     18  C   UNL     1       7.914   7.128  18.001  0.00  0.00    +0.000 C 
BRANCH  18  19
ATOM     19  N   UNL     1       6.996   6.835  16.876  0.00  0.00    +0.000 NA
ATOM     20  H   UNL     1       7.575   6.726  16.036  0.00  0.00    +0.000 HD
BRANCH  19  21
ATOM     21  C   UNL     1       6.191   5.591  17.030  0.00  0.00    +0.000 C 
ATOM     22  C   UNL     1       6.710   4.839  18.263  0.00  0.00    +0.000 C 
BRANCH  21  23
ATOM     23  C   UNL     1       4.687   5.870  17.254  0.00  0.00    +0.000 A 
ATOM     24  C   UNL     1       4.301   7.216  17.448  0.00  0.00    +0.000 A 
ATOM     25  C   UNL     1       3.026   7.557  17.880  0.00  0.00    +0.000 A 
ATOM     26  C   UNL     1       2.128   6.549  18.203  0.00  0.00    +0.000 A 
ATOM     27  C   UNL     1       2.466   5.213  18.049  0.00  0.00    +0.000 A 
ATOM     28  C   UNL     1       1.552   4.270  18.513  0.00  0.00    +0.000 A 
ATOM     29  C   UNL     1       1.900   2.933  18.511  0.00  0.00    +0.000 A 
ATOM     30  C   UNL     1       2.755   2.556  17.499  0.00  0.00    +0.000 A 
ATOM     31  C   UNL     1       3.769   3.446  17.113  0.00  0.00    +0.000 A 
ATOM     32  C   UNL     1       3.705   4.828  17.470  0.00  0.00    +0.000 A 
ENDBRANCH  21  23
ENDBRANCH  19  21
ENDBRANCH  18  19
ENDBRANCH   2  18
TORSDOF 8
ENDMDL
MODEL 3
REMARK VINA RESULT:      -7.8      1.046      2.056
REMARK  Name = 
REMARK  11 active torsions:
REMARK  status: ('A' for Active; 'I' for Inactive)
REMARK    1  A    between atoms: C_1  and  C_2
REMARK    2  A    between atoms: C_2  and  N_3
REMARK    3  A    between atoms: N_3  and  C_4
REMARK    4  A    between atoms: C_4  and  C_5
REMARK    5  A    between atoms: C_6  and  C_8
REMARK    6  A    between atoms: C_11  and  N_12
REMARK    7  A    between atoms: C_13  and  C_15
REMARK    8  A    between atoms: C_15  and  N_16
REMARK    9  A    between atoms: N_16  and  C_17
REMARK   10  A    between atoms: C_17  and  C_18
REMARK   11  A    between atoms: C_17  and  C_19
REMARK                            x       y       z     vdW  Elec       q    Type
REMARK                         _______ _______ _______ _____ _____    ______ ____
ROOT
ATOM      1  N   UNL     1       8.631   8.470  19.023  0.00  0.00    +0.000 N 
ATOM      2  C   UNL     1       7.871   7.901  17.978  0.00  0.00    +0.000 C 
ATOM      3  O   UNL     1       7.389   8.499  17.025  0.00  0.00    +0.000 OA
ATOM      4  H   UNL     1       8.948   7.857  19.777  0.00  0.00    +0.000 HD
ENDROOT
BRANCH   1   8
ATOM      5  C   UNL     1      10.219  12.415  18.957  0.00  0.00    +0.000 A 
ATOM      6  C   UNL     1      10.173  11.633  17.806  0.00  0.00    +0.000 A 
ATOM      7  C   UNL     1       9.566  10.383  17.811  0.00  0.00    +0.000 A 
ATOM      8  C   UNL     1       9.159   9.780  18.998  0.00  0.00    +0.000 A 
ATOM      9  C   UNL     1       9.320  10.504  20.187  0.00  0.00    +0.000 A 
ATOM     10  C   UNL     1       9.833  11.818  20.159  0.00  0.00    +0.000 A 
BRANCH   5  12
ATOM     11  N   UNL     1       9.863  14.904  18.650  0.00  0.00    +0.000 N 
ATOM     12  C   UNL     1      10.732  13.820  18.927  0.00  0.00    +0.000 C 
ATOM     13  O   UNL     1      11.929  13.982  19.170  0.00  0.00    +0.000 OA
BRANCH  11  15
ATOM     14  C   UNL     1      10.990  16.415  17.031  0.00  0.00    +0.000 C 
ATOM     15  C   UNL     1      10.488  16.217  18.454  0.00  0.00    +0.000 C 
ENDBRANCH  11  15
BRANCH  11  16
ATOM     16  C   UNL     1       8.422  14.768  18.397  0.00  0.00    +0.000 C 
ATOM     17  C   UNL     1       7.589  16.022  18.217  0.00  0.00    +0.000 C 
ENDBRANCH  11  16
ENDBRANCH   5  12
ENDBRANCH   1   8
BRANCH   2  18
ATOM     18  C   UNL     1       7.613   6.402  18.080  0.00  0.00    +0.000 C 
BRANCH  18  19
ATOM     19  N   UNL     1       6.406   6.069  17.289  0.00  0.00    +0.000 NA
ATOM     20  H   UNL     1       6.529   5.112  16.940  0.00  0.00    +0.000 HD
BRANCH  19  21
ATOM     21  C   UNL     1       5.126   6.107  18.049  0.00  0.00    +0.000 C 
ATOM     22  C   UNL     1       4.183   7.092  17.344  0.00  0.00    +0.000 C 
BRANCH  21  23
ATOM     23  C   UNL     1       4.412   4.736  18.099  0.00  0.00    +0.000 A 
ATOM     24  C   UNL     1       4.715   3.813  17.073  0.00  0.00    +0.000 A 
ATOM     25  C   UNL     1       3.974   2.652  16.890  0.00  0.00    +0.000 A 
ATOM     26  C   UNL     1       2.860   2.428  17.686  0.00  0.00    +0.000 A 
ATOM     27  C   UNL     1       2.509   3.315  18.692  0.00  0.00    +0.000 A 
ATOM     28  C   UNL     1       1.308   3.076  19.358  0.00  0.00    +0.000 A 
ATOM     29  C   UNL     1       0.845   4.005  20.271  0.00  0.00    +0.000 A 
ATOM     30  C   UNL     1       1.827   4.699  20.943  0.00  0.00    +0.000 A 
ATOM     31  C   UNL     1       2.987   5.064  20.244  0.00  0.00    +0.000 A 
ATOM     32  C   UNL     1       3.325   4.433  19.007  0.00  0.00    +0.000 A 
ENDBRANCH  21  23
ENDBRANCH  19  21
ENDBRANCH  18  19
ENDBRANCH   2  18
TORSDOF 8
ENDMDL
MODEL 4
REMARK VINA RESULT:      -7.6      6.620     10.088
REMARK  Name = 
REMARK  11 active torsions:
REMARK  status: ('A' for Active; 'I' for Inactive)
REMARK    1  A    between atoms: C_1  and  C_2
REMARK    2  A    between atoms: C_2  and  N_3
REMARK    3  A    between atoms: N_3  and  C_4
REMARK    4  A    between atoms: C_4  and  C_5
REMARK    5  A    between atoms: C_6  and  C_8
REMARK    6  A    between atoms: C_11  and  N_12
REMARK    7  A    between atoms: C_13  and  C_15
REMARK    8  A    between atoms: C_15  and  N_16
REMARK    9  A    between atoms: N_16  and  C_17
REMARK   10  A    between atoms: C_17  and  C_18
REMARK   11  A    between atoms: C_17  and  C_19
REMARK                            x       y       z     vdW  Elec       q    Type
REMARK                         _______ _______ _______ _____ _____    ______ ____
ROOT
ATOM      1  N   UNL     1       1.384   8.563  21.487  0.00  0.00    +0.000 N 
ATOM      2  C   UNL     1       0.075   8.579  22.016  0.00  0.00    +0.000 C 
ATOM      3  O   UNL     1      -0.888   7.960  21.584  0.00  0.00    +0.000 OA
ATOM      4  H   UNL     1       2.090   9.155  21.932  0.00  0.00    +0.000 HD
ENDROOT
BRANCH   1   8
ATOM      5  C   UNL     1       2.753   5.770  18.587  0.00  0.00    +0.000 A 
ATOM      6  C   UNL     1       2.469   7.089  18.245  0.00  0.00    +0.000 A 
ATOM      7  C   UNL     1       2.115   8.022  19.214  0.00  0.00    +0.000 A 
ATOM      8  C   UNL     1       1.839   7.638  20.522  0.00  0.00    +0.000 A 
ATOM      9  C   UNL     1       1.993   6.285  20.852  0.00  0.00    +0.000 A 
ATOM     10  C   UNL     1       2.462   5.364  19.892  0.00  0.00    +0.000 A 
BRANCH   5  12
ATOM     11  N   UNL     1       4.636   4.840  17.171  0.00  0.00    +0.000 N 
ATOM     12  C   UNL     1       3.281   4.797  17.581  0.00  0.00    +0.000 C 
ATOM     13  O   UNL     1       2.489   3.960  17.146  0.00  0.00    +0.000 OA
BRANCH  11  15
ATOM     14  C   UNL     1       5.712   4.747  14.933  0.00  0.00    +0.000 C 
ATOM     15  C   UNL     1       5.014   3.978  16.046  0.00  0.00    +0.000 C 
ENDBRANCH  11  15
BRANCH  11  16
ATOM     16  C   UNL     1       5.629   5.792  17.690  0.00  0.00    +0.000 C 
ATOM     17  C   UNL     1       6.586   5.333  18.773  0.00  0.00    +0.000 C 
ENDBRANCH  11  16
ENDBRANCH   5  12
ENDBRANCH   1   8
BRANCH   2  18
ATOM     18  C   UNL     1      -0.146   9.482  23.225  0.00  0.00    +0.000 C 
BRANCH  18  19
ATOM     19  N   UNL     1       0.113  10.885  22.828  0.00  0.00    +0.000 NA
ATOM     20  H   UNL     1       0.887  10.869  22.154  0.00  0.00    +0.000 HD
BRANCH  19  21
ATOM     21  C   UNL     1      -1.035  11.576  22.176  0.00  0.00    +0.000 C 
ATOM     22  C   UNL     1      -1.501  12.704  23.106  0.00  0.00    +0.000 C 
BRANCH  21  23
ATOM     23  C   UNL     1      -0.662  12.216  20.819  0.00  0.00    +0.000 A 
ATOM     24  C   UNL     1      -0.131  13.525  20.846  0.00  0.00    +0.000 A 
ATOM     25  C   UNL     1       0.024  14.277  19.689  0.00  0.00    +0.000 A 
ATOM     26  C   UNL     1      -0.424  13.760  18.481  0.00  0.00    +0.000 A 
ATOM     27  C   UNL     1      -0.971  12.489  18.405  0.00  0.00    +0.000 A 
ATOM     28  C   UNL     1      -1.507  12.101  17.179  0.00  0.00    +0.000 A 
ATOM     29  C   UNL     1      -2.187  10.901  17.087  0.00  0.00    +0.000 A 
ATOM     30  C   UNL     1      -1.739   9.913  17.936  0.00  0.00    +0.000 A 
ATOM     31  C   UNL     1      -1.323  10.275  19.225  0.00  0.00    +0.000 A 
ATOM     32  C   UNL     1      -1.010  11.634  19.538  0.00  0.00    +0.000 A 
ENDBRANCH  21  23
ENDBRANCH  19  21
ENDBRANCH  18  19
ENDBRANCH   2  18
TORSDOF 8
ENDMDL
MODEL 5
REMARK VINA RESULT:      -7.5      1.160      2.258
REMARK  Name = 
REMARK  11 active torsions:
REMARK  status: ('A' for Active; 'I' for Inactive)
REMARK    1  A    between atoms: C_1  and  C_2
REMARK    2  A    between atoms: C_2  and  N_3
REMARK    3  A    between atoms: N_3  and  C_4
REMARK    4  A    between atoms: C_4  and  C_5
REMARK    5  A    between atoms: C_6  and  C_8
REMARK    6  A    between atoms: C_11  and  N_12
REMARK    7  A    between atoms: C_13  and  C_15
REMARK    8  A    between atoms: C_15  and  N_16
REMARK    9  A    between atoms: N_16  and  C_17
REMARK   10  A    between atoms: C_17  and  C_18
REMARK   11  A    between atoms: C_17  and  C_19
REMARK                            x       y       z     vdW  Elec       q    Type
REMARK                         _______ _______ _______ _____ _____    ______ ____
ROOT
ATOM      1  N   UNL     1       8.799   8.683  18.973  0.00  0.00    +0.000 N 
ATOM      2  C   UNL     1       7.928   8.212  17.966  0.00  0.00    +0.000 C 
ATOM      3  O   UNL     1       7.284   8.900  17.186  0.00  0.00    +0.000 OA
ATOM      4  H   UNL     1       9.253   7.994  19.577  0.00  0.00    +0.000 HD
ENDROOT
BRANCH   1   8
ATOM      5  C   UNL     1      10.147  12.705  19.267  0.00  0.00    +0.000 A 
ATOM      6  C   UNL     1       9.657  12.023  20.377  0.00  0.00    +0.000 A 
ATOM      7  C   UNL     1       9.308  10.679  20.297  0.00  0.00    +0.000 A 
ATOM      8  C   UNL     1       9.246  10.018  19.074  0.00  0.00    +0.000 A 
ATOM      9  C   UNL     1       9.612  10.734  17.926  0.00  0.00    +0.000 A 
ATOM     10  C   UNL     1      10.073  12.063  18.029  0.00  0.00    +0.000 A 
BRANCH   5  12
ATOM     11  N   UNL     1       9.848  15.211  19.047  0.00  0.00    +0.000 N 
ATOM     12  C   UNL     1      10.668  14.104  19.377  0.00  0.00    +0.000 C 
ATOM     13  O   UNL     1      11.824  14.238  19.779  0.00  0.00    +0.000 OA
BRANCH  11  15
ATOM     14  C   UNL     1      10.830  16.960  17.580  0.00  0.00    +0.000 C 
ATOM     15  C   UNL     1      10.500  16.524  19.001  0.00  0.00    +0.000 C 
ENDBRANCH  11  15
BRANCH  11  16
ATOM     16  C   UNL     1       8.451  15.105  18.603  0.00  0.00    +0.000 C 
ATOM     17  C   UNL     1       7.355  15.631  19.508  0.00  0.00    +0.000 C 
ENDBRANCH  11  16
ENDBRANCH   5  12
ENDBRANCH   1   8
BRANCH   2  18
ATOM     18  C   UNL     1       7.768   6.698  17.876  0.00  0.00    +0.000 C 
BRANCH  18  19
ATOM     19  N   UNL     1       7.514   6.326  16.465  0.00  0.00    +0.000 NA
ATOM     20  H   UNL     1       8.279   5.705  16.175  0.00  0.00    +0.000 HD
BRANCH  19  21
ATOM     21  C   UNL     1       6.234   5.603  16.226  0.00  0.00    +0.000 C 
ATOM     22  C   UNL     1       6.571   4.207  15.683  0.00  0.00    +0.000 C 
BRANCH  21  23
ATOM     23  C   UNL     1       5.400   5.412  17.513  0.00  0.00    +0.000 A 
ATOM     24  C   UNL     1       5.624   4.233  18.260  0.00  0.00    +0.000 A 
ATOM     25  C   UNL     1       4.782   3.851  19.296  0.00  0.00    +0.000 A 
ATOM     26  C   UNL     1       3.647   4.605  19.558  0.00  0.00    +0.000 A 
ATOM     27  C   UNL     1       3.371   5.758  18.840  0.00  0.00    +0.000 A 
ATOM     28  C   UNL     1       2.149   6.382  19.085  0.00  0.00    +0.000 A 
ATOM     29  C   UNL     1       1.767   7.452  18.299  0.00  0.00    +0.000 A 
ATOM     30  C   UNL     1       2.803   8.228  17.829  0.00  0.00    +0.000 A 
ATOM     31  C   UNL     1       3.996   7.596  17.450  0.00  0.00    +0.000 A 
ATOM     32  C   UNL     1       4.284   6.262  17.875  0.00  0.00    +0.000 A 
ENDBRANCH  21  23
ENDBRANCH  19  21
ENDBRANCH  18  19
ENDBRANCH   2  18
TORSDOF 8
ENDMDL
MODEL 6
REMARK VINA RESULT:      -7.5      7.353     11.538
REMARK  Name = 
REMARK  11 active torsions:
REMARK  status: ('A' for Active; 'I' for Inactive)
REMARK    1  A    between atoms: C_1  and  C_2
REMARK    2  A    between atoms: C_2  and  N_3
REMARK    3  A    between atoms: N_3  and  C_4
REMARK    4  A    between atoms: C_4  and  C_5
REMARK    5  A    between atoms: C_6  and  C_8
REMARK    6  A    between atoms: C_11  and  N_12
REMARK    7  A    between atoms: C_13  and  C_15
REMARK    8  A    between atoms: C_15  and  N_16
REMARK    9  A    between atoms: N_16  and  C_17
REMARK   10  A    between atoms: C_17  and  C_18
REMARK   11  A    between atoms: C_17  and  C_19
REMARK                            x       y       z     vdW  Elec       q    Type
REMARK                         _______ _______ _______ _____ _____    ______ ____
ROOT
ATOM      1  N   UNL     1       0.210  10.480  19.687  0.00  0.00    +0.000 N 
ATOM      2  C   UNL     1       0.639  11.617  20.406  0.00  0.00    +0.000 C 
ATOM      3  O   UNL     1       1.649  11.701  21.093  0.00  0.00    +0.000 OA
ATOM      4  H   UNL     1      -0.673  10.540  19.175  0.00  0.00    +0.000 HD
ENDROOT
BRANCH   1   8
ATOM      5  C   UNL     1       2.621   7.049  18.978  0.00  0.00    +0.000 A 
ATOM      6  C   UNL     1       2.123   7.335  20.246  0.00  0.00    +0.000 A 
ATOM      7  C   UNL     1       1.257   8.403  20.453  0.00  0.00    +0.000 A 
ATOM      8  C   UNL     1       1.010   9.340  19.454  0.00  0.00    +0.000 A 
ATOM      9  C   UNL     1       1.612   9.137  18.205  0.00  0.00    +0.000 A 
ATOM     10  C   UNL     1       2.399   7.989  17.969  0.00  0.00    +0.000 A 
BRANCH   5  12
ATOM     11  N   UNL     1       2.854   4.530  18.852  0.00  0.00    +0.000 N 
ATOM     12  C   UNL     1       3.428   5.817  18.715  0.00  0.00    +0.000 C 
ATOM     13  O   UNL     1       4.597   5.982  18.362  0.00  0.00    +0.000 OA
BRANCH  11  15
ATOM     14  C   UNL     1       3.272   2.321  17.793  0.00  0.00    +0.000 C 
ATOM     15  C   UNL     1       3.768   3.386  18.761  0.00  0.00    +0.000 C 
ENDBRANCH  11  15
BRANCH  11  16
ATOM     16  C   UNL     1       1.455   4.282  19.229  0.00  0.00    +0.000 C 
ATOM     17  C   UNL     1       1.160   3.682  20.589  0.00  0.00    +0.000 C 
ENDBRANCH  11  16
ENDBRANCH   5  12
ENDBRANCH   1   8
BRANCH   2  18
ATOM     18  C   UNL     1      -0.270  12.839  20.328  0.00  0.00    +0.000 C 
BRANCH  18  19
ATOM     19  N   UNL     1      -0.940  13.020  21.637  0.00  0.00    +0.000 NA
ATOM     20  H   UNL     1      -1.460  13.903  21.589  0.00  0.00    +0.000 HD
BRANCH  19  21
ATOM     21  C   UNL     1      -1.908  11.949  22.002  0.00  0.00    +0.000 C 
ATOM     22  C   UNL     1      -1.321  11.161  23.182  0.00  0.00    +0.000 C 
BRANCH  21  23
ATOM     23  C   UNL     1      -3.281  12.502  22.448  0.00  0.00    +0.000 A 
ATOM     24  C   UNL     1      -3.499  12.643  23.837  0.00  0.00    +0.000 A 
ATOM     25  C   UNL     1      -4.760  12.912  24.357  0.00  0.00    +0.000 A 
ATOM     26  C   UNL     1      -5.848  12.966  23.497  0.00  0.00    +0.000 A 
ATOM     27  C   UNL     1      -5.688  12.813  22.129  0.00  0.00    +0.000 A 
ATOM     28  C   UNL     1      -6.847  12.758  21.357  0.00  0.00    +0.000 A 
ATOM     29  C   UNL     1      -6.749  12.468  20.009  0.00  0.00    +0.000 A 
ATOM     30  C   UNL     1      -5.591  12.905  19.403  0.00  0.00    +0.000 A 
ATOM     31  C   UNL     1      -4.391  12.838  20.125  0.00  0.00    +0.000 A 
ATOM     32  C   UNL     1      -4.399  12.686  21.546  0.00  0.00    +0.000 A 
ENDBRANCH  21  23
ENDBRANCH  19  21
ENDBRANCH  18  19
ENDBRANCH   2  18
TORSDOF 8
ENDMDL
MODEL 7
REMARK VINA RESULT:      -7.5      6.513      9.160
REMARK  Name = 
REMARK  11 active torsions:
REMARK  status: ('A' for Active; 'I' for Inactive)
REMARK    1  A    between atoms: C_1  and  C_2
REMARK    2  A    between atoms: C_2  and  N_3
REMARK    3  A    between atoms: N_3  and  C_4
REMARK    4  A    between atoms: C_4  and  C_5
REMARK    5  A    between atoms: C_6  and  C_8
REMARK    6  A    between atoms: C_11  and  N_12
REMARK    7  A    between atoms: C_13  and  C_15
REMARK    8  A    between atoms: C_15  and  N_16
REMARK    9  A    between atoms: N_16  and  C_17
REMARK   10  A    between atoms: C_17  and  C_18
REMARK   11  A    between atoms: C_17  and  C_19
REMARK                            x       y       z     vdW  Elec       q    Type
REMARK                         _______ _______ _______ _____ _____    ______ ____
ROOT
ATOM      1  N   UNL     1       1.200   8.505  21.227  0.00  0.00    +0.000 N 
ATOM      2  C   UNL     1       1.563   8.290  19.880  0.00  0.00    +0.000 C 
ATOM      3  O   UNL     1       1.176   8.935  18.914  0.00  0.00    +0.000 OA
ATOM      4  H   UNL     1       1.576   7.868  21.934  0.00  0.00    +0.000 HD
ENDROOT
BRANCH   1   8
ATOM      5  C   UNL     1      -0.834  11.968  22.625  0.00  0.00    +0.000 A 
ATOM      6  C   UNL     1      -1.100  10.708  23.155  0.00  0.00    +0.000 A 
ATOM      7  C   UNL     1      -0.365   9.595  22.763  0.00  0.00    +0.000 A 
ATOM      8  C   UNL     1       0.523   9.653  21.694  0.00  0.00    +0.000 A 
ATOM      9  C   UNL     1       0.704  10.890  21.062  0.00  0.00    +0.000 A 
ATOM     10  C   UNL     1       0.040  12.040  21.538  0.00  0.00    +0.000 A 
BRANCH   5  12
ATOM     11  N   UNL     1      -2.840  13.508  22.767  0.00  0.00    +0.000 N 
ATOM     12  C   UNL     1      -1.512  13.195  23.147  0.00  0.00    +0.000 C 
ATOM     13  O   UNL     1      -0.868  13.899  23.927  0.00  0.00    +0.000 OA
BRANCH  11  15
ATOM     14  C   UNL     1      -4.686  14.727  23.900  0.00  0.00    +0.000 C 
ATOM     15  C   UNL     1      -3.351  14.822  23.174  0.00  0.00    +0.000 C 
ENDBRANCH  11  15
BRANCH  11  16
ATOM     16  C   UNL     1      -3.664  12.680  21.875  0.00  0.00    +0.000 C 
ATOM     17  C   UNL     1      -3.783  13.074  20.416  0.00  0.00    +0.000 C 
ENDBRANCH  11  16
ENDBRANCH   5  12
ENDBRANCH   1   8
BRANCH   2  18
ATOM     18  C   UNL     1       2.507   7.121  19.621  0.00  0.00    +0.000 C 
BRANCH  18  19
ATOM     19  N   UNL     1       2.307   6.101  20.677  0.00  0.00    +0.000 NA
ATOM     20  H   UNL     1       1.298   5.924  20.737  0.00  0.00    +0.000 HD
BRANCH  19  21
ATOM     21  C   UNL     1       2.977   4.795  20.424  0.00  0.00    +0.000 C 
ATOM     22  C   UNL     1       1.954   3.679  20.679  0.00  0.00    +0.000 C 
BRANCH  21  23
ATOM     23  C   UNL     1       3.477   4.645  18.969  0.00  0.00    +0.000 A 
ATOM     24  C   UNL     1       2.586   4.068  18.036  0.00  0.00    +0.000 A 
ATOM     25  C   UNL     1       3.002   3.680  16.769  0.00  0.00    +0.000 A 
ATOM     26  C   UNL     1       4.344   3.788  16.435  0.00  0.00    +0.000 A 
ATOM     27  C   UNL     1       5.262   4.328  17.323  0.00  0.00    +0.000 A 
ATOM     28  C   UNL     1       6.605   4.284  16.953  0.00  0.00    +0.000 A 
ATOM     29  C   UNL     1       7.569   4.680  17.859  0.00  0.00    +0.000 A 
ATOM     30  C   UNL     1       7.174   5.670  18.733  0.00  0.00    +0.000 A 
ATOM     31  C   UNL     1       5.859   5.647  19.221  0.00  0.00    +0.000 A 
ATOM     32  C   UNL     1       4.850   4.873  18.568  0.00  0.00    +0.000 A 
ENDBRANCH  21  23
ENDBRANCH  19  21
ENDBRANCH  18  19
ENDBRANCH   2  18
TORSDOF 8
ENDMDL
MODEL 8
REMARK VINA RESULT:      -7.5      6.299      8.254
REMARK  Name = 
REMARK  11 active torsions:
REMARK  status: ('A' for Active; 'I' for Inactive)
REMARK    1  A    between atoms: C_1  and  C_2
REMARK    2  A    between atoms: C_2  and  N_3
REMARK    3  A    between atoms: N_3  and  C_4
REMARK    4  A    between atoms: C_4  and  C_5
REMARK    5  A    between atoms: C_6  and  C_8
REMARK    6  A    between atoms: C_11  and  N_12
REMARK    7  A    between atoms: C_13  and  C_15
REMARK    8  A    between atoms: C_15  and  N_16
REMARK    9  A    between atoms: N_16  and  C_17
REMARK   10  A    between atoms: C_17  and  C_18
REMARK   11  A    between atoms: C_17  and  C_19
REMARK                            x       y       z     vdW  Elec       q    Type
REMARK                         _______ _______ _______ _____ _____    ______ ____
ROOT
ATOM      1  N   UNL     1       2.504   5.766  20.489  0.00  0.00    +0.000 N 
ATOM      2  C   UNL     1       1.755   4.574  20.382  0.00  0.00    +0.000 C 
ATOM      3  O   UNL     1       0.534   4.486  20.356  0.00  0.00    +0.000 OA
ATOM      4  H   UNL     1       3.523   5.692  20.530  0.00  0.00    +0.000 HD
ENDROOT
BRANCH   1   8
ATOM      5  C   UNL     1       0.874   9.666  20.019  0.00  0.00    +0.000 A 
ATOM      6  C   UNL     1       0.604   8.899  21.150  0.00  0.00    +0.000 A 
ATOM      7  C   UNL     1       1.216   7.665  21.343  0.00  0.00    +0.000 A 
ATOM      8  C   UNL     1       1.961   7.061  20.336  0.00  0.00    +0.000 A 
ATOM      9  C   UNL     1       2.132   7.766  19.137  0.00  0.00    +0.000 A 
ATOM     10  C   UNL     1       1.603   9.066  18.991  0.00  0.00    +0.000 A 
BRANCH   5  12
ATOM     11  N   UNL     1      -0.835  11.308  19.126  0.00  0.00    +0.000 N 
ATOM     12  C   UNL     1       0.341  11.056  19.873  0.00  0.00    +0.000 C 
ATOM     13  O   UNL     1       0.964  11.954  20.442  0.00  0.00    +0.000 OA
BRANCH  11  15
ATOM     14  C   UNL     1      -2.140  13.271  19.912  0.00  0.00    +0.000 C 
ATOM     15  C   UNL     1      -1.172  12.714  18.878  0.00  0.00    +0.000 C 
ENDBRANCH  11  15
BRANCH  11  16
ATOM     16  C   UNL     1      -1.635  10.268  18.464  0.00  0.00    +0.000 C 
ATOM     17  C   UNL     1      -2.257  10.572  17.115  0.00  0.00    +0.000 C 
ENDBRANCH  11  16
ENDBRANCH   5  12
ENDBRANCH   1   8
BRANCH   2  18
ATOM     18  C   UNL     1       2.561   3.281  20.323  0.00  0.00    +0.000 C 
BRANCH  18  19
ATOM     19  N   UNL     1       3.960   3.605  19.957  0.00  0.00    +0.000 NA
ATOM     20  H   UNL     1       4.566   2.987  20.507  0.00  0.00    +0.000 HD
BRANCH  19  21
ATOM     21  C   UNL     1       4.296   3.402  18.520  0.00  0.00    +0.000 C 
ATOM     22  C   UNL     1       3.089   3.847  17.682  0.00  0.00    +0.000 C 
BRANCH  21  23
ATOM     23  C   UNL     1       5.514   4.236  18.061  0.00  0.00    +0.000 A 
ATOM     24  C   UNL     1       6.082   5.122  19.005  0.00  0.00    +0.000 A 
ATOM     25  C   UNL     1       7.024   6.076  18.639  0.00  0.00    +0.000 A 
ATOM     26  C   UNL     1       7.361   6.215  17.300  0.00  0.00    +0.000 A 
ATOM     27  C   UNL     1       6.815   5.384  16.334  0.00  0.00    +0.000 A 
ATOM     28  C   UNL     1       7.113   5.676  15.004  0.00  0.00    +0.000 A 
ATOM     29  C   UNL     1       6.485   4.965  13.999  0.00  0.00    +0.000 A 
ATOM     30  C   UNL     1       6.168   3.663  14.318  0.00  0.00    +0.000 A 
ATOM     31  C   UNL     1       5.735   3.378  15.621  0.00  0.00    +0.000 A 
ATOM     32  C   UNL     1       5.964   4.303  16.686  0.00  0.00    +0.000 A 
ENDBRANCH  21  23
ENDBRANCH  19  21
ENDBRANCH  18  19
ENDBRANCH   2  18
TORSDOF 8
ENDMDL
MODEL 9
REMARK VINA RESULT:      -7.4      6.847      9.027
REMARK  Name = 
REMARK  11 active torsions:
REMARK  status: ('A' for Active; 'I' for Inactive)
REMARK    1  A    between atoms: C_1  and  C_2
REMARK    2  A    between atoms: C_2  and  N_3
REMARK    3  A    between atoms: N_3  and  C_4
REMARK    4  A    between atoms: C_4  and  C_5
REMARK    5  A    between atoms: C_6  and  C_8
REMARK    6  A    between atoms: C_11  and  N_12
REMARK    7  A    between atoms: C_13  and  C_15
REMARK    8  A    between atoms: C_15  and  N_16
REMARK    9  A    between atoms: N_16  and  C_17
REMARK   10  A    between atoms: C_17  and  C_18
REMARK   11  A    between atoms: C_17  and  C_19
REMARK                            x       y       z     vdW  Elec       q    Type
REMARK                         _______ _______ _______ _____ _____    ______ ____
ROOT
ATOM      1  N   UNL     1      -0.119   9.744  20.953  0.00  0.00    +0.000 N 
ATOM      2  C   UNL     1       0.926   9.090  21.643  0.00  0.00    +0.000 C 
ATOM      3  O   UNL     1       1.603   9.562  22.546  0.00  0.00    +0.000 OA
ATOM      4  H   UNL     1      -0.584   9.239  20.195  0.00  0.00    +0.000 HD
ENDROOT
BRANCH   1   8
ATOM      5  C   UNL     1      -1.879  13.412  22.191  0.00  0.00    +0.000 A 
ATOM      6  C   UNL     1      -1.782  12.325  23.057  0.00  0.00    +0.000 A 
ATOM      7  C   UNL     1      -1.120  11.163  22.679  0.00  0.00    +0.000 A 
ATOM      8  C   UNL     1      -0.703  10.961  21.367  0.00  0.00    +0.000 A 
ATOM      9  C   UNL     1      -0.914  11.997  20.448  0.00  0.00    +0.000 A 
ATOM     10  C   UNL     1      -1.484  13.218  20.866  0.00  0.00    +0.000 A 
BRANCH   5  12
ATOM     11  N   UNL     1      -1.611  15.772  23.069  0.00  0.00    +0.000 N 
ATOM     12  C   UNL     1      -2.453  14.719  22.638  0.00  0.00    +0.000 C 
ATOM     13  O   UNL     1      -3.679  14.833  22.596  0.00  0.00    +0.000 OA
BRANCH  11  15
ATOM     14  C   UNL     1      -2.254  16.900  25.188  0.00  0.00    +0.000 C 
ATOM     15  C   UNL     1      -2.267  16.941  23.667  0.00  0.00    +0.000 C 
ENDBRANCH  11  15
BRANCH  11  16
ATOM     16  C   UNL     1      -0.143  15.701  23.099  0.00  0.00    +0.000 C 
ATOM     17  C   UNL     1       0.644  16.370  21.990  0.00  0.00    +0.000 C 
ENDBRANCH  11  16
ENDBRANCH   5  12
ENDBRANCH   1   8
BRANCH   2  18
ATOM     18  C   UNL     1       1.243   7.671  21.184  0.00  0.00    +0.000 C 
BRANCH  18  19
ATOM     19  N   UNL     1       2.390   7.716  20.247  0.00  0.00    +0.000 NA
ATOM     20  H   UNL     1       3.094   7.059  20.602  0.00  0.00    +0.000 HD
BRANCH  19  21
ATOM     21  C   UNL     1       2.073   7.320  18.847  0.00  0.00    +0.000 C 
ATOM     22  C   UNL     1       2.556   8.441  17.916  0.00  0.00    +0.000 C 
BRANCH  21  23
ATOM     23  C   UNL     1       2.781   6.016  18.413  0.00  0.00    +0.000 A 
ATOM     24  C   UNL     1       3.868   6.139  17.518  0.00  0.00    +0.000 A 
ATOM     25  C   UNL     1       4.428   5.034  16.890  0.00  0.00    +0.000 A 
ATOM     26  C   UNL     1       3.857   3.784  17.084  0.00  0.00    +0.000 A 
ATOM     27  C   UNL     1       2.776   3.614  17.936  0.00  0.00    +0.000 A 
ATOM     28  C   UNL     1       2.191   2.351  17.975  0.00  0.00    +0.000 A 
ATOM     29  C   UNL     1       1.029   2.166  18.700  0.00  0.00    +0.000 A 
ATOM     30  C   UNL     1       0.903   2.969  19.813  0.00  0.00    +0.000 A 
ATOM     31  C   UNL     1       1.368   4.290  19.741  0.00  0.00    +0.000 A 
ATOM     32  C   UNL     1       2.271   4.693  18.710  0.00  0.00    +0.000 A 
ENDBRANCH  21  23
ENDBRANCH  19  21
ENDBRANCH  18  19
ENDBRANCH   2  18
TORSDOF 8
ENDMDL
