MODEL 1
REMARK VINA RESULT:      -7.3      0.000      0.000
REMARK  Name = 
REMARK  5 active torsions:
REMARK  status: ('A' for Active; 'I' for Inactive)
REMARK    1  A    between atoms: O_1  and  C_2
REMARK    2  A    between atoms: C_2  and  C_3
REMARK    3  A    between atoms: N_13  and  C_14
REMARK    4  A    between atoms: C_14  and  C_15
REMARK    5  A    between atoms: N_19  and  C_20
REMARK                            x       y       z     vdW  Elec       q    Type
REMARK                         _______ _______ _______ _____ _____    ______ ____
ROOT
ATOM      1  C   UNL     1       2.532   4.143  19.359  0.00  0.00    +0.000 C 
ATOM      2  C   UNL     1       2.992   3.161  18.255  0.00  0.00    +0.000 C 
ATOM      3  C   UNL     1       4.508   3.179  18.108  0.00  0.00    +0.000 C 
ATOM      4  C   UNL     1       5.033   4.603  17.823  0.00  0.00    +0.000 C 
ATOM      5  C   UNL     1       4.697   4.989  16.361  0.00  0.00    +0.000 C 
ATOM      6  C   UNL     1       5.438   6.242  15.911  0.00  0.00    +0.000 C 
ATOM      7  O   UNL     1       6.850   6.072  16.052  0.00  0.00    +0.000 OA
ATOM      8  C   UNL     1       7.242   5.827  17.398  0.00  0.00    +0.000 C 
ATOM      9  C   UNL     1       6.584   4.561  17.932  0.00  0.00    +0.000 C 
ATOM     10  C   UNL     1       4.413   5.605  18.869  0.00  0.00    +0.000 C 
ATOM     11  N   UNL     1       2.931   5.533  18.989  0.00  0.00    +0.000 NA
ENDROOT
BRANCH   1  12
ATOM     12  C   UNL     1       1.030   3.913  19.654  0.00  0.00    +0.000 C 
BRANCH  12  13
ATOM     13  O   UNL     1       0.793   3.182  20.852  0.00  0.00    +0.000 OA
ATOM     14  H   UNL     1       1.363   3.567  21.541  0.00  0.00    +0.000 HD
ENDBRANCH  12  13
ENDBRANCH   1  12
BRANCH  11  15
ATOM     15  C   UNL     1       2.327   6.628  19.853  0.00  0.00    +0.000 C 
BRANCH  15  16
ATOM     16  C   UNL     1       2.010   7.926  19.175  0.00  0.00    +0.000 A 
ATOM     17  N   UNL     1       2.403   8.201  17.935  0.00  0.00    +0.000 NA
ATOM     18  N   UNL     1       1.963   9.437  17.603  0.00  0.00    +0.000 NA
ATOM     19  N   UNL     1       1.279   9.962  18.594  0.00  0.00    +0.000 NA
ATOM     20  N   UNL     1       1.281   9.050  19.598  0.00  0.00    +0.000 N 
BRANCH  20  21
ATOM     21  C   UNL     1       0.561   9.494  20.785  0.00  0.00    +0.000 C 
ATOM     22  C   UNL     1      -0.284   8.716  21.758  0.00  0.00    +0.000 C 
ATOM     23  C   UNL     1       1.014   9.297  22.215  0.00  0.00    +0.000 C 
ENDBRANCH  20  21
ENDBRANCH  15  16
ENDBRANCH  11  15
TORSDOF 5
ENDMDL
MODEL 2
REMARK VINA RESULT:      -7.1      2.959      5.739
REMARK  Name = 
REMARK  5 active torsions:
REMARK  status: ('A' for Active; 'I' for Inactive)
REMARK    1  A    between atoms: O_1  and  C_2
REMARK    2  A    between atoms: C_2  and  C_3
REMARK    3  A    between atoms: N_13  and  C_14
REMARK    4  A    between atoms: C_14  and  C_15
REMARK    5  A    between atoms: N_19  and  C_20
REMARK                            x       y       z     vdW  Elec       q    Type
REMARK                         _______ _______ _______ _____ _____    ______ ____
ROOT
ATOM      1  C   UNL     1       3.003   7.182  18.505  0.00  0.00    +0.000 C 
ATOM      2  C   UNL     1       1.764   6.553  19.186  0.00  0.00    +0.000 C 
ATOM      3  C   UNL     1       2.160   5.347  20.028  0.00  0.00    +0.000 C 
ATOM      4  C   UNL     1       2.913   4.292  19.189  0.00  0.00    +0.000 C 
ATOM      5  C   UNL     1       1.907   3.557  18.268  0.00  0.00    +0.000 C 
ATOM      6  C   UNL     1       2.509   2.309  17.636  0.00  0.00    +0.000 C 
ATOM      7  O   UNL     1       2.985   1.412  18.643  0.00  0.00    +0.000 OA
ATOM      8  C   UNL     1       4.000   1.988  19.457  0.00  0.00    +0.000 C 
ATOM      9  C   UNL     1       3.481   3.229  20.173  0.00  0.00    +0.000 C 
ATOM     10  C   UNL     1       4.066   4.998  18.380  0.00  0.00    +0.000 C 
ATOM     11  N   UNL     1       3.631   6.182  17.591  0.00  0.00    +0.000 NA
ENDROOT
BRANCH   1  12
ATOM     12  C   UNL     1       2.606   8.537  17.874  0.00  0.00    +0.000 C 
BRANCH  12  13
ATOM     13  O   UNL     1       1.523   9.178  18.538  0.00  0.00    +0.000 OA
ATOM     14  H   UNL     1       1.137   9.813  17.909  0.00  0.00    +0.000 HD
ENDBRANCH  12  13
ENDBRANCH   1  12
BRANCH  11  15
ATOM     15  C   UNL     1       4.704   6.738  16.668  0.00  0.00    +0.000 C 
BRANCH  15  16
ATOM     16  C   UNL     1       5.723   5.767  16.155  0.00  0.00    +0.000 A 
ATOM     17  N   UNL     1       5.576   5.116  15.005  0.00  0.00    +0.000 NA
ATOM     18  N   UNL     1       6.656   4.323  14.813  0.00  0.00    +0.000 NA
ATOM     19  N   UNL     1       7.507   4.459  15.803  0.00  0.00    +0.000 NA
ATOM     20  N   UNL     1       6.965   5.355  16.666  0.00  0.00    +0.000 N 
BRANCH  20  21
ATOM     21  C   UNL     1       7.796   5.610  17.835  0.00  0.00    +0.000 C 
ATOM     22  C   UNL     1       7.986   6.868  18.639  0.00  0.00    +0.000 C 
ATOM     23  C   UNL     1       7.305   5.695  19.264  0.00  0.00    +0.000 C 
ENDBRANCH  20  21
ENDBRANCH  15  16
ENDBRANCH  11  15
TORSDOF 5
ENDMDL
MODEL 3
REMARK VINA RESULT:      -7.0      3.389      5.760
REMARK  Name = 
REMARK  5 active torsions:
REMARK  status: ('A' for Active; 'I' for Inactive)
REMARK    1  A    between atoms: O_1  and  C_2
REMARK    2  A    between atoms: C_2  and  C_3
REMARK    3  A    between atoms: N_13  and  C_14
REMARK    4  A    between atoms: C_14  and  C_15
REMARK    5  A    between atoms: N_19  and  C_20
REMARK                            x       y       z     vdW  Elec       q    Type
REMARK                         _______ _______ _______ _____ _____    ______ ____
ROOT
ATOM      1  C   UNL     1       3.288   2.889  18.296  0.00  0.00    +0.000 C 
ATOM      2  C   UNL     1       1.765   3.157  18.354  0.00  0.00    +0.000 C 
ATOM      3  C   UNL     1       1.425   4.503  17.728  0.00  0.00    +0.000 C 
ATOM      4  C   UNL     1       2.205   5.654  18.400  0.00  0.00    +0.000 C 
ATOM      5  C   UNL     1       1.598   5.936  19.797  0.00  0.00    +0.000 C 
ATOM      6  C   UNL     1       2.108   7.242  20.393  0.00  0.00    +0.000 C 
ATOM      7  O   UNL     1       1.834   8.339  19.517  0.00  0.00    +0.000 OA
ATOM      8  C   UNL     1       2.460   8.197  18.247  0.00  0.00    +0.000 C 
ATOM      9  C   UNL     1       1.980   6.933  17.545  0.00  0.00    +0.000 C 
ATOM     10  C   UNL     1       3.733   5.274  18.471  0.00  0.00    +0.000 C 
ATOM     11  N   UNL     1       4.009   3.941  19.072  0.00  0.00    +0.000 NA
ENDROOT
BRANCH   1  12
ATOM     12  C   UNL     1       3.565   1.422  18.702  0.00  0.00    +0.000 C 
BRANCH  12  13
ATOM     13  O   UNL     1       4.284   0.687  17.718  0.00  0.00    +0.000 OA
ATOM     14  H   UNL     1       4.455   1.294  16.975  0.00  0.00    +0.000 HD
ENDBRANCH  12  13
ENDBRANCH   1  12
BRANCH  11  15
ATOM     15  C   UNL     1       5.485   3.665  19.312  0.00  0.00    +0.000 C 
BRANCH  15  16
ATOM     16  C   UNL     1       6.452   4.711  18.848  0.00  0.00    +0.000 A 
ATOM     17  N   UNL     1       7.090   5.520  19.689  0.00  0.00    +0.000 NA
ATOM     18  N   UNL     1       7.892   6.344  18.975  0.00  0.00    +0.000 NA
ATOM     19  N   UNL     1       7.801   6.076  17.693  0.00  0.00    +0.000 NA
ATOM     20  N   UNL     1       6.912   5.059  17.567  0.00  0.00    +0.000 N 
BRANCH  20  21
ATOM     21  C   UNL     1       6.694   4.648  16.186  0.00  0.00    +0.000 C 
ATOM     22  C   UNL     1       5.658   3.729  15.596  0.00  0.00    +0.000 C 
ATOM     23  C   UNL     1       5.620   5.185  15.266  0.00  0.00    +0.000 C 
ENDBRANCH  20  21
ENDBRANCH  15  16
ENDBRANCH  11  15
TORSDOF 5
ENDMDL
MODEL 4
REMARK VINA RESULT:      -7.0      2.793      5.663
REMARK  Name = 
REMARK  5 active torsions:
REMARK  status: ('A' for Active; 'I' for Inactive)
REMARK    1  A    between atoms: O_1  and  C_2
REMARK    2  A    between atoms: C_2  and  C_3
REMARK    3  A    between atoms: N_13  and  C_14
REMARK    4  A    between atoms: C_14  and  C_15
REMARK    5  A    between atoms: N_19  and  C_20
REMARK                            x       y       z     vdW  Elec       q    Type
REMARK                         _______ _______ _______ _____ _____    ______ ____
ROOT
ATOM      1  C   UNL     1       2.680   6.950  19.426  0.00  0.00    +0.000 C 
ATOM      2  C   UNL     1       1.730   6.009  20.203  0.00  0.00    +0.000 C 
ATOM      3  C   UNL     1       2.459   4.752  20.659  0.00  0.00    +0.000 C 
ATOM      4  C   UNL     1       3.106   4.010  19.470  0.00  0.00    +0.000 C 
ATOM      5  C   UNL     1       2.001   3.300  18.649  0.00  0.00    +0.000 C 
ATOM      6  C   UNL     1       2.576   2.306  17.647  0.00  0.00    +0.000 C 
ATOM      7  O   UNL     1       3.387   1.332  18.309  0.00  0.00    +0.000 OA
ATOM      8  C   UNL     1       4.493   1.910  18.993  0.00  0.00    +0.000 C 
ATOM      9  C   UNL     1       4.019   2.894  20.055  0.00  0.00    +0.000 C 
ATOM     10  C   UNL     1       3.935   5.034  18.606  0.00  0.00    +0.000 C 
ATOM     11  N   UNL     1       3.183   6.253  18.205  0.00  0.00    +0.000 NA
ENDROOT
BRANCH   1  12
ATOM     12  C   UNL     1       1.984   8.313  19.204  0.00  0.00    +0.000 C 
BRANCH  12  13
ATOM     13  O   UNL     1       1.280   8.784  20.348  0.00  0.00    +0.000 OA
ATOM     14  H   UNL     1       0.420   9.120  20.037  0.00  0.00    +0.000 HD
ENDBRANCH  12  13
ENDBRANCH   1  12
BRANCH  11  15
ATOM     15  C   UNL     1       3.924   7.140  17.217  0.00  0.00    +0.000 C 
BRANCH  15  16
ATOM     16  C   UNL     1       5.353   6.790  16.934  0.00  0.00    +0.000 A 
ATOM     17  N   UNL     1       6.371   7.396  17.537  0.00  0.00    +0.000 NA
ATOM     18  N   UNL     1       7.528   6.861  17.080  0.00  0.00    +0.000 NA
ATOM     19  N   UNL     1       7.281   5.910  16.209  0.00  0.00    +0.000 NA
ATOM     20  N   UNL     1       5.932   5.830  16.088  0.00  0.00    +0.000 N 
BRANCH  20  21
ATOM     21  C   UNL     1       5.495   4.813  15.140  0.00  0.00    +0.000 C 
ATOM     22  C   UNL     1       6.297   3.945  14.206  0.00  0.00    +0.000 C 
ATOM     23  C   UNL     1       5.574   3.317  15.353  0.00  0.00    +0.000 C 
ENDBRANCH  20  21
ENDBRANCH  15  16
ENDBRANCH  11  15
TORSDOF 5
ENDMDL
MODEL 5
REMARK VINA RESULT:      -6.9      3.159      5.873
REMARK  Name = 
REMARK  5 active torsions:
REMARK  status: ('A' for Active; 'I' for Inactive)
REMARK    1  A    between atoms: O_1  and  C_2
REMARK    2  A    between atoms: C_2  and  C_3
REMARK    3  A    between atoms: N_13  and  C_14
REMARK    4  A    between atoms: C_14  and  C_15
REMARK    5  A    between atoms: N_19  and  C_20
REMARK                            x       y       z     vdW  Elec       q    Type
REMARK                         _______ _______ _______ _____ _____    ______ ____
ROOT
ATOM      1  C   UNL     1       3.572   3.464  17.926  0.00  0.00    +0.000 C 
ATOM      2  C   UNL     1       2.039   3.530  18.123  0.00  0.00    +0.000 C 
ATOM      3  C   UNL     1       1.490   4.876  17.669  0.00  0.00    +0.000 C 
ATOM      4  C   UNL     1       2.182   6.047  18.400  0.00  0.00    +0.000 C 
ATOM      5  C   UNL     1       1.667   6.114  19.860  0.00  0.00    +0.000 C 
ATOM      6  C   UNL     1       2.068   7.411  20.553  0.00  0.00    +0.000 C 
ATOM      7  O   UNL     1       1.592   8.543  19.820  0.00  0.00    +0.000 OA
ATOM      8  C   UNL     1       2.120   8.605  18.500  0.00  0.00    +0.000 C 
ATOM      9  C   UNL     1       1.735   7.364  17.704  0.00  0.00    +0.000 C 
ATOM     10  C   UNL     1       3.745   5.858  18.320  0.00  0.00    +0.000 C 
ATOM     11  N   UNL     1       4.228   4.519  18.754  0.00  0.00    +0.000 NA
ENDROOT
BRANCH   1  12
ATOM     12  C   UNL     1       4.055   2.012  18.153  0.00  0.00    +0.000 C 
BRANCH  12  13
ATOM     13  O   UNL     1       3.011   1.116  18.517  0.00  0.00    +0.000 OA
ATOM     14  H   UNL     1       2.854   0.534  17.752  0.00  0.00    +0.000 HD
ENDBRANCH  12  13
ENDBRANCH   1  12
BRANCH  11  15
ATOM     15  C   UNL     1       5.741   4.411  18.856  0.00  0.00    +0.000 C 
BRANCH  15  16
ATOM     16  C   UNL     1       6.543   5.407  18.077  0.00  0.00    +0.000 A 
ATOM     17  N   UNL     1       7.384   6.259  18.656  0.00  0.00    +0.000 NA
ATOM     18  N   UNL     1       7.961   7.020  17.696  0.00  0.00    +0.000 NA
ATOM     19  N   UNL     1       7.526   6.669  16.508  0.00  0.00    +0.000 NA
ATOM     20  N   UNL     1       6.638   5.661  16.699  0.00  0.00    +0.000 N 
BRANCH  20  21
ATOM     21  C   UNL     1       6.054   5.163  15.460  0.00  0.00    +0.000 C 
ATOM     22  C   UNL     1       6.715   4.710  14.186  0.00  0.00    +0.000 C 
ATOM     23  C   UNL     1       5.997   3.712  15.034  0.00  0.00    +0.000 C 
ENDBRANCH  20  21
ENDBRANCH  15  16
ENDBRANCH  11  15
TORSDOF 5
ENDMDL
MODEL 6
REMARK VINA RESULT:      -6.8      2.887      6.326
REMARK  Name = 
REMARK  5 active torsions:
REMARK  status: ('A' for Active; 'I' for Inactive)
REMARK    1  A    between atoms: O_1  and  C_2
REMARK    2  A    between atoms: C_2  and  C_3
REMARK    3  A    between atoms: N_13  and  C_14
REMARK    4  A    between atoms: C_14  and  C_15
REMARK    5  A    between atoms: N_19  and  C_20
REMARK                            x       y       z     vdW  Elec       q    Type
REMARK                         _______ _______ _______ _____ _____    ______ ____
ROOT
ATOM      1  C   UNL     1       3.118   7.372  18.494  0.00  0.00    +0.000 C 
ATOM      2  C   UNL     1       1.791   6.996  19.194  0.00  0.00    +0.000 C 
ATOM      3  C   UNL     1       1.989   5.822  20.144  0.00  0.00    +0.000 C 
ATOM      4  C   UNL     1       2.584   4.598  19.415  0.00  0.00    +0.000 C 
ATOM      5  C   UNL     1       1.489   3.946  18.533  0.00  0.00    +0.000 C 
ATOM      6  C   UNL     1       1.904   2.571  18.023  0.00  0.00    +0.000 C 
ATOM      7  O   UNL     1       2.227   1.704  19.112  0.00  0.00    +0.000 OA
ATOM      8  C   UNL     1       3.307   2.190  19.901  0.00  0.00    +0.000 C 
ATOM      9  C   UNL     1       2.972   3.551  20.497  0.00  0.00    +0.000 C 
ATOM     10  C   UNL     1       3.841   5.051  18.579  0.00  0.00    +0.000 C 
ATOM     11  N   UNL     1       3.599   6.214  17.683  0.00  0.00    +0.000 NA
ENDROOT
BRANCH   1  12
ATOM     12  C   UNL     1       2.939   8.712  17.742  0.00  0.00    +0.000 C 
BRANCH  12  13
ATOM     13  O   UNL     1       1.586   8.998  17.406  0.00  0.00    +0.000 OA
ATOM     14  H   UNL     1       1.518   8.958  16.435  0.00  0.00    +0.000 HD
ENDBRANCH  12  13
ENDBRANCH   1  12
BRANCH  11  15
ATOM     15  C   UNL     1       4.754   6.522  16.744  0.00  0.00    +0.000 C 
BRANCH  15  16
ATOM     16  C   UNL     1       6.047   5.812  17.007  0.00  0.00    +0.000 A 
ATOM     17  N   UNL     1       6.795   6.060  18.078  0.00  0.00    +0.000 NA
ATOM     18  N   UNL     1       7.888   5.263  18.039  0.00  0.00    +0.000 NA
ATOM     19  N   UNL     1       7.857   4.492  16.977  0.00  0.00    +0.000 NA
ATOM     20  N   UNL     1       6.720   4.800  16.303  0.00  0.00    +0.000 N 
BRANCH  20  21
ATOM     21  C   UNL     1       6.544   4.026  15.081  0.00  0.00    +0.000 C 
ATOM     22  C   UNL     1       5.456   4.080  14.043  0.00  0.00    +0.000 C 
ATOM     23  C   UNL     1       6.838   4.513  13.679  0.00  0.00    +0.000 C 
ENDBRANCH  20  21
ENDBRANCH  15  16
ENDBRANCH  11  15
TORSDOF 5
ENDMDL
MODEL 7
REMARK VINA RESULT:      -6.8      2.640      5.084
REMARK  Name = 
REMARK  5 active torsions:
REMARK  status: ('A' for Active; 'I' for Inactive)
REMARK    1  A    between atoms: O_1  and  C_2
REMARK    2  A    between atoms: C_2  and  C_3
REMARK    3  A    between atoms: N_13  and  C_14
REMARK    4  A    between atoms: C_14  and  C_15
REMARK    5  A    between atoms: N_19  and  C_20
REMARK                            x       y       z     vdW  Elec       q    Type
REMARK                         _______ _______ _______ _____ _____    ______ ____
ROOT
ATOM      1  C   UNL     1       2.750   6.612  18.894  0.00  0.00    +0.000 C 
ATOM      2  C   UNL     1       3.189   7.812  18.023  0.00  0.00    +0.000 C 
ATOM      3  C   UNL     1       3.745   7.341  16.685  0.00  0.00    +0.000 C 
ATOM      4  C   UNL     1       4.915   6.351  16.875  0.00  0.00    +0.000 C 
ATOM      5  C   UNL     1       6.172   7.128  17.339  0.00  0.00    +0.000 C 
ATOM      6  C   UNL     1       7.436   6.281  17.257  0.00  0.00    +0.000 C 
ATOM      7  O   UNL     1       7.633   5.795  15.927  0.00  0.00    +0.000 OA
ATOM      8  C   UNL     1       6.561   4.974  15.478  0.00  0.00    +0.000 C 
ATOM      9  C   UNL     1       5.248   5.748  15.481  0.00  0.00    +0.000 C 
ATOM     10  C   UNL     1       4.487   5.231  17.897  0.00  0.00    +0.000 C 
ATOM     11  N   UNL     1       3.931   5.744  19.178  0.00  0.00    +0.000 NA
ENDROOT
BRANCH   1  12
ATOM     12  C   UNL     1       1.964   7.130  20.121  0.00  0.00    +0.000 C 
BRANCH  12  13
ATOM     13  O   UNL     1       1.570   8.492  20.010  0.00  0.00    +0.000 OA
ATOM     14  H   UNL     1       0.968   8.554  19.246  0.00  0.00    +0.000 HD
ENDBRANCH  12  13
ENDBRANCH   1  12
BRANCH  11  15
ATOM     15  C   UNL     1       3.702   4.668  20.228  0.00  0.00    +0.000 C 
BRANCH  15  16
ATOM     16  C   UNL     1       3.947   3.251  19.808  0.00  0.00    +0.000 A 
ATOM     17  N   UNL     1       5.019   2.565  20.193  0.00  0.00    +0.000 NA
ATOM     18  N   UNL     1       4.955   1.323  19.660  0.00  0.00    +0.000 NA
ATOM     19  N   UNL     1       3.858   1.182  18.952  0.00  0.00    +0.000 NA
ATOM     20  N   UNL     1       3.195   2.365  19.019  0.00  0.00    +0.000 N 
BRANCH  20  21
ATOM     21  C   UNL     1       1.946   2.371  18.268  0.00  0.00    +0.000 C 
ATOM     22  C   UNL     1       0.527   2.545  18.741  0.00  0.00    +0.000 C 
ATOM     23  C   UNL     1       1.152   3.602  17.890  0.00  0.00    +0.000 C 
ENDBRANCH  20  21
ENDBRANCH  15  16
ENDBRANCH  11  15
TORSDOF 5
ENDMDL
MODEL 8
REMARK VINA RESULT:      -6.7      2.704      6.454
REMARK  Name = 
REMARK  5 active torsions:
REMARK  status: ('A' for Active; 'I' for Inactive)
REMARK    1  A    between atoms: O_1  and  C_2
REMARK    2  A    between atoms: C_2  and  C_3
REMARK    3  A    between atoms: N_13  and  C_14
REMARK    4  A    between atoms: C_14  and  C_15
REMARK    5  A    between atoms: N_19  and  C_20
REMARK                            x       y       z     vdW  Elec       q    Type
REMARK                         _______ _______ _______ _____ _____    ______ ____
ROOT
ATOM      1  C   UNL     1       2.925   7.340  18.754  0.00  0.00    +0.000 C 
ATOM      2  C   UNL     1       1.597   7.258  19.544  0.00  0.00    +0.000 C 
ATOM      3  C   UNL     1       1.727   6.312  20.731  0.00  0.00    +0.000 C 
ATOM      4  C   UNL     1       2.184   4.906  20.288  0.00  0.00    +0.000 C 
ATOM      5  C   UNL     1       1.004   4.179  19.596  0.00  0.00    +0.000 C 
ATOM      6  C   UNL     1       1.276   2.692  19.402  0.00  0.00    +0.000 C 
ATOM      7  O   UNL     1       1.562   2.064  20.655  0.00  0.00    +0.000 OA
ATOM      8  C   UNL     1       2.710   2.610  21.294  0.00  0.00    +0.000 C 
ATOM      9  C   UNL     1       2.520   4.096  21.573  0.00  0.00    +0.000 C 
ATOM     10  C   UNL     1       3.443   5.040  19.350  0.00  0.00    +0.000 C 
ATOM     11  N   UNL     1       3.272   5.990  18.218  0.00  0.00    +0.000 NA
ENDROOT
BRANCH   1  12
ATOM     12  C   UNL     1       2.837   8.489  17.722  0.00  0.00    +0.000 C 
BRANCH  12  13
ATOM     13  O   UNL     1       1.859   9.470  18.047  0.00  0.00    +0.000 OA
ATOM     14  H   UNL     1       0.986   9.068  17.888  0.00  0.00    +0.000 HD
ENDBRANCH  12  13
ENDBRANCH   1  12
BRANCH  11  15
ATOM     15  C   UNL     1       4.413   5.969  17.214  0.00  0.00    +0.000 C 
BRANCH  15  16
ATOM     16  C   UNL     1       5.735   5.464  17.705  0.00  0.00    +0.000 A 
ATOM     17  N   UNL     1       6.157   5.654  18.952  0.00  0.00    +0.000 NA
ATOM     18  N   UNL     1       7.375   5.080  19.091  0.00  0.00    +0.000 NA
ATOM     19  N   UNL     1       7.744   4.508  17.968  0.00  0.00    +0.000 NA
ATOM     20  N   UNL     1       6.747   4.722  17.073  0.00  0.00    +0.000 N 
BRANCH  20  21
ATOM     21  C   UNL     1       7.014   4.148  15.761  0.00  0.00    +0.000 C 
ATOM     22  C   UNL     1       6.070   3.795  14.642  0.00  0.00    +0.000 C 
ATOM     23  C   UNL     1       7.044   4.911  14.454  0.00  0.00    +0.000 C 
ENDBRANCH  20  21
ENDBRANCH  15  16
ENDBRANCH  11  15
TORSDOF 5
ENDMDL
MODEL 9
REMARK VINA RESULT:      -6.7      1.705      4.405
REMARK  Name = 
REMARK  5 active torsions:
REMARK  status: ('A' for Active; 'I' for Inactive)
REMARK    1  A    between atoms: O_1  and  C_2
REMARK    2  A    between atoms: C_2  and  C_3
REMARK    3  A    between atoms: N_13  and  C_14
REMARK    4  A    between atoms: C_14  and  C_15
REMARK    5  A    between atoms: N_19  and  C_20
REMARK                            x       y       z     vdW  Elec       q    Type
REMARK                         _______ _______ _______ _____ _____    ______ ____
ROOT
ATOM      1  C   UNL     1       4.249   5.638  17.065  0.00  0.00    +0.000 C 
ATOM      2  C   UNL     1       4.919   4.305  17.474  0.00  0.00    +0.000 C 
ATOM      3  C   UNL     1       3.884   3.196  17.612  0.00  0.00    +0.000 C 
ATOM      4  C   UNL     1       2.775   3.577  18.616  0.00  0.00    +0.000 C 
ATOM      5  C   UNL     1       3.337   3.491  20.057  0.00  0.00    +0.000 C 
ATOM      6  C   UNL     1       2.237   3.555  21.109  0.00  0.00    +0.000 C 
ATOM      7  O   UNL     1       1.278   2.515  20.902  0.00  0.00    +0.000 OA
ATOM      8  C   UNL     1       0.637   2.603  19.635  0.00  0.00    +0.000 C 
ATOM      9  C   UNL     1       1.654   2.504  18.505  0.00  0.00    +0.000 C 
ATOM     10  C   UNL     1       2.229   5.013  18.266  0.00  0.00    +0.000 C 
ATOM     11  N   UNL     1       3.281   6.055  18.122  0.00  0.00    +0.000 NA
ENDROOT
BRANCH   1  12
ATOM     12  C   UNL     1       5.343   6.666  16.689  0.00  0.00    +0.000 C 
BRANCH  12  13
ATOM     13  O   UNL     1       5.474   6.867  15.286  0.00  0.00    +0.000 OA
ATOM     14  H   UNL     1       6.114   7.590  15.159  0.00  0.00    +0.000 HD
ENDBRANCH  12  13
ENDBRANCH   1  12
BRANCH  11  15
ATOM     15  C   UNL     1       2.737   7.467  17.976  0.00  0.00    +0.000 C 
BRANCH  15  16
ATOM     16  C   UNL     1       2.034   8.047  19.165  0.00  0.00    +0.000 A 
ATOM     17  N   UNL     1       1.942   7.405  20.326  0.00  0.00    +0.000 NA
ATOM     18  N   UNL     1       1.260   8.182  21.200  0.00  0.00    +0.000 NA
ATOM     19  N   UNL     1       0.923   9.319  20.637  0.00  0.00    +0.000 NA
ATOM     20  N   UNL     1       1.389   9.279  19.364  0.00  0.00    +0.000 N 
BRANCH  20  21
ATOM     21  C   UNL     1       1.084  10.481  18.598  0.00  0.00    +0.000 C 
ATOM     22  C   UNL     1       0.888  11.902  19.055  0.00  0.00    +0.000 C 
ATOM     23  C   UNL     1       2.076  11.559  18.218  0.00  0.00    +0.000 C 
ENDBRANCH  20  21
ENDBRANCH  15  16
ENDBRANCH  11  15
TORSDOF 5
ENDMDL
