MODEL 1
REMARK VINA RESULT:      -8.1      0.000      0.000
REMARK  Name = 
REMARK  2 active torsions:
REMARK  status: ('A' for Active; 'I' for Inactive)
REMARK    1  A    between atoms: C_7  and  C_8
REMARK    2  A    between atoms: N_13  and  C_14
REMARK                            x       y       z     vdW  Elec       q    Type
REMARK                         _______ _______ _______ _____ _____    ______ ____
ROOT
ATOM      1  O   UNL     1       3.491   4.204  20.308  0.00  0.00    +0.000 OA
ATOM      2  C   UNL     1       3.226   5.311  19.838  0.00  0.00    +0.000 C 
ATOM      3  N   UNL     1       2.313   6.101  20.491  0.00  0.00    +0.000 N 
ATOM      4  C   UNL     1       1.894   7.318  20.037  0.00  0.00    +0.000 A 
ATOM      5  N   UNL     1       2.162   7.839  18.864  0.00  0.00    +0.000 NA
ATOM      6  C   UNL     1       1.633   9.104  18.795  0.00  0.00    +0.000 A 
ATOM      7  C   UNL     1       1.017   9.538  19.948  0.00  0.00    +0.000 A 
ATOM      8  S   UNL     1       0.988   8.278  21.110  0.00  0.00    +0.000 S 
ATOM      9  N   UNL     1       3.826   5.868  18.740  0.00  0.00    +0.000 N 
ATOM     10  H   UNL     1       1.972   5.764  21.377  0.00  0.00    +0.000 HD
ATOM     11  H   UNL     1       3.581   6.842  18.552  0.00  0.00    +0.000 HD
ENDROOT
BRANCH   9  12
ATOM     12  C   UNL     1       4.810   5.345  17.895  0.00  0.00    +0.000 A 
ATOM     13  C   UNL     1       4.587   4.957  16.569  0.00  0.00    +0.000 A 
ATOM     14  C   UNL     1       5.631   4.451  15.784  0.00  0.00    +0.000 A 
ATOM     15  C   UNL     1       6.924   4.290  16.294  0.00  0.00    +0.000 A 
ATOM     16  C   UNL     1       7.122   4.684  17.617  0.00  0.00    +0.000 A 
ATOM     17  N   UNL     1       8.203   4.672  18.452  0.00  0.00    +0.000 N 
ATOM     18  N   UNL     1       7.910   5.165  19.667  0.00  0.00    +0.000 NA
ATOM     19  N   UNL     1       6.626   5.503  19.656  0.00  0.00    +0.000 NA
ATOM     20  C   UNL     1       6.116   5.210  18.413  0.00  0.00    +0.000 A 
ATOM     21  H   UNL     1       9.144   4.345  18.274  0.00  0.00    +0.000 HD
ENDBRANCH   9  12
BRANCH   7  22
ATOM     22  C   UNL     1       0.454  10.932  20.175  0.00  0.00    +0.000 C 
ATOM     23  C   UNL     1      -1.033  11.129  19.745  0.00  0.00    +0.000 C 
ATOM     24  C   UNL     1      -1.239  11.948  21.028  0.00  0.00    +0.000 C 
ATOM     25  C   UNL     1      -0.049  11.178  21.629  0.00  0.00    +0.000 C 
ENDBRANCH   7  22
TORSDOF 2
ENDMDL
MODEL 2
REMARK VINA RESULT:      -8.1      0.716      1.043
REMARK  Name = 
REMARK  2 active torsions:
REMARK  status: ('A' for Active; 'I' for Inactive)
REMARK    1  A    between atoms: C_7  and  C_8
REMARK    2  A    between atoms: N_13  and  C_14
REMARK                            x       y       z     vdW  Elec       q    Type
REMARK                         _______ _______ _______ _____ _____    ______ ____
ROOT
ATOM      1  O   UNL     1       3.508   4.367  20.106  0.00  0.00    +0.000 OA
ATOM      2  C   UNL     1       3.269   5.469  19.612  0.00  0.00    +0.000 C 
ATOM      3  N   UNL     1       2.366   6.290  20.240  0.00  0.00    +0.000 N 
ATOM      4  C   UNL     1       1.975   7.505  19.758  0.00  0.00    +0.000 A 
ATOM      5  N   UNL     1       2.263   7.997  18.578  0.00  0.00    +0.000 NA
ATOM      6  C   UNL     1       1.760   9.271  18.479  0.00  0.00    +0.000 A 
ATOM      7  C   UNL     1       1.142   9.739  19.617  0.00  0.00    +0.000 A 
ATOM      8  S   UNL     1       1.078   8.504  20.803  0.00  0.00    +0.000 S 
ATOM      9  N   UNL     1       3.890   5.993  18.509  0.00  0.00    +0.000 N 
ATOM     10  H   UNL     1       2.010   5.977  21.130  0.00  0.00    +0.000 HD
ATOM     11  H   UNL     1       3.666   6.967  18.299  0.00  0.00    +0.000 HD
ENDROOT
BRANCH   9  12
ATOM     12  C   UNL     1       4.871   5.433  17.684  0.00  0.00    +0.000 A 
ATOM     13  C   UNL     1       4.663   5.061  16.351  0.00  0.00    +0.000 A 
ATOM     14  C   UNL     1       5.703   4.516  15.587  0.00  0.00    +0.000 A 
ATOM     15  C   UNL     1       6.977   4.301  16.126  0.00  0.00    +0.000 A 
ATOM     16  C   UNL     1       7.161   4.681  17.455  0.00  0.00    +0.000 A 
ATOM     17  N   UNL     1       8.221   4.622  18.314  0.00  0.00    +0.000 N 
ATOM     18  N   UNL     1       7.919   5.121  19.525  0.00  0.00    +0.000 NA
ATOM     19  N   UNL     1       6.651   5.510  19.486  0.00  0.00    +0.000 NA
ATOM     20  C   UNL     1       6.158   5.244  18.230  0.00  0.00    +0.000 A 
ATOM     21  H   UNL     1       9.151   4.257  18.156  0.00  0.00    +0.000 HD
ENDBRANCH   9  12
BRANCH   7  22
ATOM     22  C   UNL     1       0.605  11.149  19.811  0.00  0.00    +0.000 C 
ATOM     23  C   UNL     1       1.297  12.250  18.947  0.00  0.00    +0.000 C 
ATOM     24  C   UNL     1      -0.095  12.852  18.700  0.00  0.00    +0.000 C 
ATOM     25  C   UNL     1      -0.674  11.454  18.976  0.00  0.00    +0.000 C 
ENDBRANCH   7  22
TORSDOF 2
ENDMDL
MODEL 3
REMARK VINA RESULT:      -7.9      1.477      1.691
REMARK  Name = 
REMARK  2 active torsions:
REMARK  status: ('A' for Active; 'I' for Inactive)
REMARK    1  A    between atoms: C_7  and  C_8
REMARK    2  A    between atoms: N_13  and  C_14
REMARK                            x       y       z     vdW  Elec       q    Type
REMARK                         _______ _______ _______ _____ _____    ______ ____
ROOT
ATOM      1  O   UNL     1       3.592   4.447  20.042  0.00  0.00    +0.000 OA
ATOM      2  C   UNL     1       3.276   5.514  19.516  0.00  0.00    +0.000 C 
ATOM      3  N   UNL     1       2.448   6.367  20.204  0.00  0.00    +0.000 N 
ATOM      4  C   UNL     1       1.981   7.546  19.703  0.00  0.00    +0.000 A 
ATOM      5  N   UNL     1       2.110   7.966  18.468  0.00  0.00    +0.000 NA
ATOM      6  C   UNL     1       1.580   9.227  18.356  0.00  0.00    +0.000 A 
ATOM      7  C   UNL     1       1.105   9.762  19.534  0.00  0.00    +0.000 A 
ATOM      8  S   UNL     1       1.211   8.603  20.791  0.00  0.00    +0.000 S 
ATOM      9  N   UNL     1       3.743   5.972  18.313  0.00  0.00    +0.000 N 
ATOM     10  H   UNL     1       2.213   6.107  21.149  0.00  0.00    +0.000 HD
ATOM     11  H   UNL     1       3.481   6.930  18.074  0.00  0.00    +0.000 HD
ENDROOT
BRANCH   9  12
ATOM     12  C   UNL     1       4.620   5.369  17.405  0.00  0.00    +0.000 A 
ATOM     13  C   UNL     1       4.384   4.140  16.778  0.00  0.00    +0.000 A 
ATOM     14  C   UNL     1       5.308   3.607  15.871  0.00  0.00    +0.000 A 
ATOM     15  C   UNL     1       6.508   4.264  15.572  0.00  0.00    +0.000 A 
ATOM     16  C   UNL     1       6.720   5.487  16.207  0.00  0.00    +0.000 A 
ATOM     17  N   UNL     1       7.741   6.395  16.188  0.00  0.00    +0.000 N 
ATOM     18  N   UNL     1       7.493   7.452  16.980  0.00  0.00    +0.000 NA
ATOM     19  N   UNL     1       6.307   7.254  17.542  0.00  0.00    +0.000 NA
ATOM     20  C   UNL     1       5.814   6.052  17.092  0.00  0.00    +0.000 A 
ATOM     21  H   UNL     1       8.616   6.360  15.681  0.00  0.00    +0.000 HD
ENDBRANCH   9  12
BRANCH   7  22
ATOM     22  C   UNL     1       0.577  11.177  19.708  0.00  0.00    +0.000 C 
ATOM     23  C   UNL     1       1.329  12.275  18.891  0.00  0.00    +0.000 C 
ATOM     24  C   UNL     1      -0.040  12.897  18.573  0.00  0.00    +0.000 C 
ATOM     25  C   UNL     1      -0.651  11.505  18.807  0.00  0.00    +0.000 C 
ENDBRANCH   7  22
TORSDOF 2
ENDMDL
MODEL 4
REMARK VINA RESULT:      -7.8      2.250      2.853
REMARK  Name = 
REMARK  2 active torsions:
REMARK  status: ('A' for Active; 'I' for Inactive)
REMARK    1  A    between atoms: C_7  and  C_8
REMARK    2  A    between atoms: N_13  and  C_14
REMARK                            x       y       z     vdW  Elec       q    Type
REMARK                         _______ _______ _______ _____ _____    ______ ____
ROOT
ATOM      1  O   UNL     1       3.617   7.638  16.714  0.00  0.00    +0.000 OA
ATOM      2  C   UNL     1       2.876   7.729  17.693  0.00  0.00    +0.000 C 
ATOM      3  N   UNL     1       2.392   8.966  18.040  0.00  0.00    +0.000 N 
ATOM      4  C   UNL     1       1.614   9.202  19.135  0.00  0.00    +0.000 A 
ATOM      5  N   UNL     1       1.345   8.346  20.091  0.00  0.00    +0.000 NA
ATOM      6  C   UNL     1       0.472   8.917  20.983  0.00  0.00    +0.000 A 
ATOM      7  C   UNL     1       0.052  10.186  20.651  0.00  0.00    +0.000 A 
ATOM      8  S   UNL     1       0.872  10.729  19.248  0.00  0.00    +0.000 S 
ATOM      9  N   UNL     1       2.420   6.676  18.441  0.00  0.00    +0.000 N 
ATOM     10  H   UNL     1       2.603   9.728  17.413  0.00  0.00    +0.000 HD
ATOM     11  H   UNL     1       1.715   6.907  19.143  0.00  0.00    +0.000 HD
ENDROOT
BRANCH   9  12
ATOM     12  C   UNL     1       2.689   5.308  18.319  0.00  0.00    +0.000 A 
ATOM     13  C   UNL     1       1.773   4.363  17.843  0.00  0.00    +0.000 A 
ATOM     14  C   UNL     1       2.124   3.011  17.741  0.00  0.00    +0.000 A 
ATOM     15  C   UNL     1       3.387   2.548  18.128  0.00  0.00    +0.000 A 
ATOM     16  C   UNL     1       4.283   3.508  18.596  0.00  0.00    +0.000 A 
ATOM     17  N   UNL     1       5.564   3.451  19.066  0.00  0.00    +0.000 N 
ATOM     18  N   UNL     1       6.032   4.663  19.409  0.00  0.00    +0.000 NA
ATOM     19  N   UNL     1       5.061   5.539  19.179  0.00  0.00    +0.000 NA
ATOM     20  C   UNL     1       3.973   4.856  18.688  0.00  0.00    +0.000 A 
ATOM     21  H   UNL     1       6.165   2.646  19.186  0.00  0.00    +0.000 HD
ENDBRANCH   9  12
BRANCH   7  22
ATOM     22  C   UNL     1      -0.996  10.992  21.402  0.00  0.00    +0.000 C 
ATOM     23  C   UNL     1      -0.931  10.882  22.958  0.00  0.00    +0.000 C 
ATOM     24  C   UNL     1      -1.203  12.393  23.021  0.00  0.00    +0.000 C 
ATOM     25  C   UNL     1      -0.614  12.489  21.603  0.00  0.00    +0.000 C 
ENDBRANCH   7  22
TORSDOF 2
ENDMDL
MODEL 5
REMARK VINA RESULT:      -7.7      3.317      8.149
REMARK  Name = 
REMARK  2 active torsions:
REMARK  status: ('A' for Active; 'I' for Inactive)
REMARK    1  A    between atoms: C_7  and  C_8
REMARK    2  A    between atoms: N_13  and  C_14
REMARK                            x       y       z     vdW  Elec       q    Type
REMARK                         _______ _______ _______ _____ _____    ______ ____
ROOT
ATOM      1  O   UNL     1       0.583   9.564  22.181  0.00  0.00    +0.000 OA
ATOM      2  C   UNL     1       1.013   9.080  21.135  0.00  0.00    +0.000 C 
ATOM      3  N   UNL     1       1.457   7.780  21.145  0.00  0.00    +0.000 N 
ATOM      4  C   UNL     1       2.010   7.154  20.067  0.00  0.00    +0.000 A 
ATOM      5  N   UNL     1       2.346   7.720  18.933  0.00  0.00    +0.000 NA
ATOM      6  C   UNL     1       2.801   6.762  18.062  0.00  0.00    +0.000 A 
ATOM      7  C   UNL     1       2.749   5.471  18.541  0.00  0.00    +0.000 A 
ATOM      8  S   UNL     1       2.232   5.471  20.175  0.00  0.00    +0.000 S 
ATOM      9  N   UNL     1       1.024   9.707  19.917  0.00  0.00    +0.000 N 
ATOM     10  H   UNL     1       1.321   7.261  21.998  0.00  0.00    +0.000 HD
ATOM     11  H   UNL     1       1.301   9.126  19.124  0.00  0.00    +0.000 HD
ENDROOT
BRANCH   9  12
ATOM     12  C   UNL     1       0.607  10.997  19.571  0.00  0.00    +0.000 A 
ATOM     13  C   UNL     1       1.145  12.172  20.111  0.00  0.00    +0.000 A 
ATOM     14  C   UNL     1       0.679  13.428  19.704  0.00  0.00    +0.000 A 
ATOM     15  C   UNL     1      -0.352  13.562  18.765  0.00  0.00    +0.000 A 
ATOM     16  C   UNL     1      -0.870  12.378  18.241  0.00  0.00    +0.000 A 
ATOM     17  N   UNL     1      -1.860  12.100  17.342  0.00  0.00    +0.000 N 
ATOM     18  N   UNL     1      -2.006  10.779  17.142  0.00  0.00    +0.000 NA
ATOM     19  N   UNL     1      -1.119  10.164  17.915  0.00  0.00    +0.000 NA
ATOM     20  C   UNL     1      -0.415  11.121  18.607  0.00  0.00    +0.000 A 
ATOM     21  H   UNL     1      -2.467  12.738  16.844  0.00  0.00    +0.000 HD
ENDBRANCH   9  12
BRANCH   7  22
ATOM     22  C   UNL     1       3.082   4.221  17.742  0.00  0.00    +0.000 C 
ATOM     23  C   UNL     1       4.034   3.209  18.454  0.00  0.00    +0.000 C 
ATOM     24  C   UNL     1       3.145   2.078  17.915  0.00  0.00    +0.000 C 
ATOM     25  C   UNL     1       2.001   3.104  17.843  0.00  0.00    +0.000 C 
ENDBRANCH   7  22
TORSDOF 2
ENDMDL
MODEL 6
REMARK VINA RESULT:      -7.7      4.205      8.097
REMARK  Name = 
REMARK  2 active torsions:
REMARK  status: ('A' for Active; 'I' for Inactive)
REMARK    1  A    between atoms: C_7  and  C_8
REMARK    2  A    between atoms: N_13  and  C_14
REMARK                            x       y       z     vdW  Elec       q    Type
REMARK                         _______ _______ _______ _____ _____    ______ ____
ROOT
ATOM      1  O   UNL     1       6.823   5.142  19.409  0.00  0.00    +0.000 OA
ATOM      2  C   UNL     1       6.237   4.829  18.372  0.00  0.00    +0.000 C 
ATOM      3  N   UNL     1       6.910   4.933  17.180  0.00  0.00    +0.000 N 
ATOM      4  C   UNL     1       6.350   4.675  15.962  0.00  0.00    +0.000 A 
ATOM      5  N   UNL     1       5.080   4.452  15.728  0.00  0.00    +0.000 NA
ATOM      6  C   UNL     1       4.906   4.158  14.398  0.00  0.00    +0.000 A 
ATOM      7  C   UNL     1       6.067   4.112  13.659  0.00  0.00    +0.000 A 
ATOM      8  S   UNL     1       7.402   4.574  14.629  0.00  0.00    +0.000 S 
ATOM      9  N   UNL     1       4.973   4.307  18.304  0.00  0.00    +0.000 N 
ATOM     10  H   UNL     1       7.886   5.179  17.229  0.00  0.00    +0.000 HD
ATOM     11  H   UNL     1       4.678   3.986  17.380  0.00  0.00    +0.000 HD
ENDROOT
BRANCH   9  12
ATOM     12  C   UNL     1       4.058   4.041  19.328  0.00  0.00    +0.000 A 
ATOM     13  C   UNL     1       3.921   2.800  19.961  0.00  0.00    +0.000 A 
ATOM     14  C   UNL     1       2.986   2.617  20.988  0.00  0.00    +0.000 A 
ATOM     15  C   UNL     1       2.140   3.652  21.406  0.00  0.00    +0.000 A 
ATOM     16  C   UNL     1       2.296   4.879  20.762  0.00  0.00    +0.000 A 
ATOM     17  N   UNL     1       1.671   6.088  20.873  0.00  0.00    +0.000 N 
ATOM     18  N   UNL     1       2.175   6.999  20.024  0.00  0.00    +0.000 NA
ATOM     19  N   UNL     1       3.138   6.402  19.332  0.00  0.00    +0.000 NA
ATOM     20  C   UNL     1       3.228   5.098  19.758  0.00  0.00    +0.000 A 
ATOM     21  H   UNL     1       0.908   6.358  21.481  0.00  0.00    +0.000 HD
ENDBRANCH   9  12
BRANCH   7  22
ATOM     22  C   UNL     1       6.165   3.699  12.198  0.00  0.00    +0.000 C 
ATOM     23  C   UNL     1       7.357   2.752  11.852  0.00  0.00    +0.000 C 
ATOM     24  C   UNL     1       6.395   1.962  10.951  0.00  0.00    +0.000 C 
ATOM     25  C   UNL     1       5.246   2.498  11.822  0.00  0.00    +0.000 C 
ENDBRANCH   7  22
TORSDOF 2
ENDMDL
MODEL 7
REMARK VINA RESULT:      -7.5      2.385      7.503
REMARK  Name = 
REMARK  2 active torsions:
REMARK  status: ('A' for Active; 'I' for Inactive)
REMARK    1  A    between atoms: C_7  and  C_8
REMARK    2  A    between atoms: N_13  and  C_14
REMARK                            x       y       z     vdW  Elec       q    Type
REMARK                         _______ _______ _______ _____ _____    ______ ____
ROOT
ATOM      1  O   UNL     1       1.078   4.969  20.821  0.00  0.00    +0.000 OA
ATOM      2  C   UNL     1       1.950   5.287  20.013  0.00  0.00    +0.000 C 
ATOM      3  N   UNL     1       2.640   4.292  19.365  0.00  0.00    +0.000 N 
ATOM      4  C   UNL     1       3.668   4.517  18.496  0.00  0.00    +0.000 A 
ATOM      5  N   UNL     1       4.250   5.669  18.270  0.00  0.00    +0.000 NA
ATOM      6  C   UNL     1       5.189   5.520  17.279  0.00  0.00    +0.000 A 
ATOM      7  C   UNL     1       5.259   4.257  16.734  0.00  0.00    +0.000 A 
ATOM      8  S   UNL     1       4.208   3.195  17.572  0.00  0.00    +0.000 S 
ATOM      9  N   UNL     1       2.254   6.569  19.638  0.00  0.00    +0.000 N 
ATOM     10  H   UNL     1       2.329   3.346  19.523  0.00  0.00    +0.000 HD
ATOM     11  H   UNL     1       2.918   6.657  18.867  0.00  0.00    +0.000 HD
ENDROOT
BRANCH   9  12
ATOM     12  C   UNL     1       1.709   7.781  20.075  0.00  0.00    +0.000 A 
ATOM     13  C   UNL     1       1.179   7.993  21.353  0.00  0.00    +0.000 A 
ATOM     14  C   UNL     1       0.662   9.242  21.718  0.00  0.00    +0.000 A 
ATOM     15  C   UNL     1       0.630  10.316  20.820  0.00  0.00    +0.000 A 
ATOM     16  C   UNL     1       1.165  10.082  19.554  0.00  0.00    +0.000 A 
ATOM     17  N   UNL     1       1.301  10.848  18.431  0.00  0.00    +0.000 N 
ATOM     18  N   UNL     1       1.894  10.177  17.429  0.00  0.00    +0.000 NA
ATOM     19  N   UNL     1       2.151   8.953  17.872  0.00  0.00    +0.000 NA
ATOM     20  C   UNL     1       1.706   8.864  19.170  0.00  0.00    +0.000 A 
ATOM     21  H   UNL     1       1.016  11.806  18.274  0.00  0.00    +0.000 HD
ENDBRANCH   9  12
BRANCH   7  22
ATOM     22  C   UNL     1       6.127   3.856  15.552  0.00  0.00    +0.000 C 
ATOM     23  C   UNL     1       5.493   4.099  14.146  0.00  0.00    +0.000 C 
ATOM     24  C   UNL     1       6.866   4.602  13.674  0.00  0.00    +0.000 C 
ATOM     25  C   UNL     1       7.173   4.937  15.144  0.00  0.00    +0.000 C 
ENDBRANCH   7  22
TORSDOF 2
ENDMDL
MODEL 8
REMARK VINA RESULT:      -7.5      2.531      3.392
REMARK  Name = 
REMARK  2 active torsions:
REMARK  status: ('A' for Active; 'I' for Inactive)
REMARK    1  A    between atoms: C_7  and  C_8
REMARK    2  A    between atoms: N_13  and  C_14
REMARK                            x       y       z     vdW  Elec       q    Type
REMARK                         _______ _______ _______ _____ _____    ______ ____
ROOT
ATOM      1  O   UNL     1       2.727   6.775  17.582  0.00  0.00    +0.000 OA
ATOM      2  C   UNL     1       2.269   7.176  18.652  0.00  0.00    +0.000 C 
ATOM      3  N   UNL     1       1.927   8.501  18.765  0.00  0.00    +0.000 N 
ATOM      4  C   UNL     1       1.468   9.076  19.913  0.00  0.00    +0.000 A 
ATOM      5  N   UNL     1       1.433   8.515  21.097  0.00  0.00    +0.000 NA
ATOM      6  C   UNL     1       0.838   9.370  21.991  0.00  0.00    +0.000 A 
ATOM      7  C   UNL     1       0.382  10.551  21.447  0.00  0.00    +0.000 A 
ATOM      8  S   UNL     1       0.823  10.646  19.794  0.00  0.00    +0.000 S 
ATOM      9  N   UNL     1       1.995   6.392  19.740  0.00  0.00    +0.000 N 
ATOM     10  H   UNL     1       1.988   9.059  17.927  0.00  0.00    +0.000 HD
ATOM     11  H   UNL     1       1.504   6.856  20.506  0.00  0.00    +0.000 HD
ENDROOT
BRANCH   9  12
ATOM     12  C   UNL     1       2.185   5.018  19.923  0.00  0.00    +0.000 A 
ATOM     13  C   UNL     1       1.171   4.122  20.282  0.00  0.00    +0.000 A 
ATOM     14  C   UNL     1       1.441   2.756  20.436  0.00  0.00    +0.000 A 
ATOM     15  C   UNL     1       2.730   2.237  20.262  0.00  0.00    +0.000 A 
ATOM     16  C   UNL     1       3.722   3.148  19.903  0.00  0.00    +0.000 A 
ATOM     17  N   UNL     1       5.062   3.036  19.664  0.00  0.00    +0.000 N 
ATOM     18  N   UNL     1       5.619   4.215  19.340  0.00  0.00    +0.000 NA
ATOM     19  N   UNL     1       4.655   5.127  19.369  0.00  0.00    +0.000 NA
ATOM     20  C   UNL     1       3.482   4.502  19.721  0.00  0.00    +0.000 A 
ATOM     21  H   UNL     1       5.652   2.215  19.708  0.00  0.00    +0.000 HD
ENDBRANCH   9  12
BRANCH   7  22
ATOM     22  C   UNL     1      -0.412  11.614  22.189  0.00  0.00    +0.000 C 
ATOM     23  C   UNL     1      -1.655  12.172  21.427  0.00  0.00    +0.000 C 
ATOM     24  C   UNL     1      -2.423  12.126  22.757  0.00  0.00    +0.000 C 
ATOM     25  C   UNL     1      -1.437  11.034  23.210  0.00  0.00    +0.000 C 
ENDBRANCH   7  22
TORSDOF 2
ENDMDL
MODEL 9
REMARK VINA RESULT:      -7.5      1.977      2.487
REMARK  Name = 
REMARK  2 active torsions:
REMARK  status: ('A' for Active; 'I' for Inactive)
REMARK    1  A    between atoms: C_7  and  C_8
REMARK    2  A    between atoms: N_13  and  C_14
REMARK                            x       y       z     vdW  Elec       q    Type
REMARK                         _______ _______ _______ _____ _____    ______ ____
ROOT
ATOM      1  O   UNL     1       1.808   5.407  21.318  0.00  0.00    +0.000 OA
ATOM      2  C   UNL     1       1.833   6.348  20.525  0.00  0.00    +0.000 C 
ATOM      3  N   UNL     1       1.393   7.578  20.949  0.00  0.00    +0.000 N 
ATOM      4  C   UNL     1       1.315   8.679  20.148  0.00  0.00    +0.000 A 
ATOM      5  N   UNL     1       1.489   8.703  18.849  0.00  0.00    +0.000 NA
ATOM      6  C   UNL     1       1.408   9.998  18.401  0.00  0.00    +0.000 A 
ATOM      7  C   UNL     1       1.227  10.942  19.388  0.00  0.00    +0.000 A 
ATOM      8  S   UNL     1       1.026  10.174  20.907  0.00  0.00    +0.000 S 
ATOM      9  N   UNL     1       2.339   6.299  19.253  0.00  0.00    +0.000 N 
ATOM     10  H   UNL     1       1.153   7.662  21.925  0.00  0.00    +0.000 HD
ATOM     11  H   UNL     1       2.398   7.196  18.767  0.00  0.00    +0.000 HD
ENDROOT
BRANCH   9  12
ATOM     12  C   UNL     1       2.894   5.223  18.551  0.00  0.00    +0.000 A 
ATOM     13  C   UNL     1       2.176   4.395  17.681  0.00  0.00    +0.000 A 
ATOM     14  C   UNL     1       2.808   3.343  17.006  0.00  0.00    +0.000 A 
ATOM     15  C   UNL     1       4.167   3.062  17.190  0.00  0.00    +0.000 A 
ATOM     16  C   UNL     1       4.861   3.901  18.060  0.00  0.00    +0.000 A 
ATOM     17  N   UNL     1       6.155   3.943  18.498  0.00  0.00    +0.000 N 
ATOM     18  N   UNL     1       6.367   4.958  19.353  0.00  0.00    +0.000 NA
ATOM     19  N   UNL     1       5.213   5.597  19.500  0.00  0.00    +0.000 NA
ATOM     20  C   UNL     1       4.270   4.965  18.725  0.00  0.00    +0.000 A 
ATOM     21  H   UNL     1       6.925   3.328  18.272  0.00  0.00    +0.000 HD
ENDBRANCH   9  12
BRANCH   7  22
ATOM     22  C   UNL     1       1.220  12.448  19.176  0.00  0.00    +0.000 C 
ATOM     23  C   UNL     1       1.901  13.283  20.306  0.00  0.00    +0.000 C 
ATOM     24  C   UNL     1       2.522  14.160  19.207  0.00  0.00    +0.000 C 
ATOM     25  C   UNL     1       2.370  12.958  18.257  0.00  0.00    +0.000 C 
ENDBRANCH   7  22
TORSDOF 2
ENDMDL
