MODEL 1
REMARK VINA RESULT:      -6.6      0.000      0.000
REMARK  Name = 
REMARK  5 active torsions:
REMARK  status: ('A' for Active; 'I' for Inactive)
REMARK    1  A    between atoms: C_1  and  O_2
REMARK    2  A    between atoms: O_2  and  C_3
REMARK    3  A    between atoms: C_5  and  C_6
REMARK    4  A    between atoms: C_6  and  N_7
REMARK    5  A    between atoms: N_7  and  C_8
REMARK                            x       y       z     vdW  Elec       q    Type
REMARK                         _______ _______ _______ _____ _____    ______ ____
ROOT
ATOM      1  C   UNL     1       5.206   4.102  18.446  0.00  0.00    +0.000 C 
ENDROOT
BRANCH   1   2
ATOM      2  N   UNL     1       3.807   4.529  18.436  0.00  0.00    +0.000 N 
ATOM      3  C   UNL     1       3.435   5.893  18.091  0.00  0.00    +0.000 C 
ATOM      4  C   UNL     1       3.014   3.980  19.444  0.00  0.00    +0.000 A 
ATOM      5  N   UNL     1       3.546   3.068  20.277  0.00  0.00    +0.000 NA
ATOM      6  C   UNL     1       2.756   2.564  21.244  0.00  0.00    +0.000 A 
ATOM      7  C   UNL     1       1.442   2.915  21.409  0.00  0.00    +0.000 A 
ATOM      8  C   UNL     1       0.975   3.844  20.515  0.00  0.00    +0.000 A 
ATOM      9  N   UNL     1       1.734   4.387  19.547  0.00  0.00    +0.000 NA
ENDBRANCH   1   2
BRANCH   1  12
ATOM     10  C   UNL     1       6.846   4.938  15.166  0.00  0.00    +0.000 A 
ATOM     11  C   UNL     1       6.062   4.069  15.972  0.00  0.00    +0.000 A 
ATOM     12  C   UNL     1       6.028   4.542  17.270  0.00  0.00    +0.000 A 
ATOM     13  S   UNL     1       7.119   5.860  17.392  0.00  0.00    +0.000 S 
ATOM     14  N   UNL     1       7.498   5.922  15.779  0.00  0.00    +0.000 NA
BRANCH  10  16
ATOM     15  C   UNL     1       6.196   3.724  13.306  0.00  0.00    +0.000 C 
ATOM     16  O   UNL     1       6.971   4.802  13.824  0.00  0.00    +0.000 OA
ENDBRANCH  10  16
ENDBRANCH   1  12
TORSDOF 3
ENDMDL
MODEL 2
REMARK VINA RESULT:      -6.3      2.095      2.586
REMARK  Name = 
REMARK  5 active torsions:
REMARK  status: ('A' for Active; 'I' for Inactive)
REMARK    1  A    between atoms: C_1  and  O_2
REMARK    2  A    between atoms: O_2  and  C_3
REMARK    3  A    between atoms: C_5  and  C_6
REMARK    4  A    between atoms: C_6  and  N_7
REMARK    5  A    between atoms: N_7  and  C_8
REMARK                            x       y       z     vdW  Elec       q    Type
REMARK                         _______ _______ _______ _____ _____    ______ ____
ROOT
ATOM      1  C   UNL     1       4.963   3.758  18.206  0.00  0.00    +0.000 C 
ENDROOT
BRANCH   1   2
ATOM      2  N   UNL     1       3.537   4.087  18.240  0.00  0.00    +0.000 N 
ATOM      3  C   UNL     1       3.043   5.363  17.744  0.00  0.00    +0.000 C 
ATOM      4  C   UNL     1       2.852   3.632  19.366  0.00  0.00    +0.000 A 
ATOM      5  N   UNL     1       3.501   2.880  20.274  0.00  0.00    +0.000 NA
ATOM      6  C   UNL     1       2.812   2.464  21.354  0.00  0.00    +0.000 A 
ATOM      7  C   UNL     1       1.488   2.748  21.564  0.00  0.00    +0.000 A 
ATOM      8  C   UNL     1       0.899   3.512  20.590  0.00  0.00    +0.000 A 
ATOM      9  N   UNL     1       1.554   3.964  19.506  0.00  0.00    +0.000 NA
ENDBRANCH   1   2
BRANCH   1  12
ATOM     10  C   UNL     1       7.438   6.572  17.903  0.00  0.00    +0.000 A 
ATOM     11  C   UNL     1       6.493   5.831  18.663  0.00  0.00    +0.000 A 
ATOM     12  C   UNL     1       5.883   4.890  17.856  0.00  0.00    +0.000 A 
ATOM     13  S   UNL     1       6.380   5.163  16.237  0.00  0.00    +0.000 S 
ATOM     14  N   UNL     1       7.477   6.354  16.592  0.00  0.00    +0.000 NA
BRANCH  10  16
ATOM     15  C   UNL     1       8.093   8.791  17.894  0.00  0.00    +0.000 C 
ATOM     16  O   UNL     1       8.277   7.488  18.443  0.00  0.00    +0.000 OA
ENDBRANCH  10  16
ENDBRANCH   1  12
TORSDOF 3
ENDMDL
MODEL 3
REMARK VINA RESULT:      -6.1      1.356      1.376
REMARK  Name = 
REMARK  5 active torsions:
REMARK  status: ('A' for Active; 'I' for Inactive)
REMARK    1  A    between atoms: C_1  and  O_2
REMARK    2  A    between atoms: O_2  and  C_3
REMARK    3  A    between atoms: C_5  and  C_6
REMARK    4  A    between atoms: C_6  and  N_7
REMARK    5  A    between atoms: N_7  and  C_8
REMARK                            x       y       z     vdW  Elec       q    Type
REMARK                         _______ _______ _______ _____ _____    ______ ____
ROOT
ATOM      1  C   UNL     1       5.009   5.381  19.116  0.00  0.00    +0.000 C 
ENDROOT
BRANCH   1   2
ATOM      2  N   UNL     1       3.566   5.441  18.876  0.00  0.00    +0.000 N 
ATOM      3  C   UNL     1       2.759   6.537  19.393  0.00  0.00    +0.000 C 
ATOM      4  C   UNL     1       2.910   4.212  18.905  0.00  0.00    +0.000 A 
ATOM      5  N   UNL     1       3.628   3.085  19.065  0.00  0.00    +0.000 NA
ATOM      6  C   UNL     1       2.961   1.915  19.097  0.00  0.00    +0.000 A 
ATOM      7  C   UNL     1       1.602   1.812  18.956  0.00  0.00    +0.000 A 
ATOM      8  C   UNL     1       0.946   3.004  18.790  0.00  0.00    +0.000 A 
ATOM      9  N   UNL     1       1.570   4.196  18.770  0.00  0.00    +0.000 NA
ENDBRANCH   1   2
BRANCH   1  12
ATOM     10  C   UNL     1       6.697   5.546  15.760  0.00  0.00    +0.000 A 
ATOM     11  C   UNL     1       5.746   4.962  16.639  0.00  0.00    +0.000 A 
ATOM     12  C   UNL     1       5.876   5.516  17.899  0.00  0.00    +0.000 A 
ATOM     13  S   UNL     1       7.268   6.517  17.906  0.00  0.00    +0.000 S 
ATOM     14  N   UNL     1       7.596   6.371  16.288  0.00  0.00    +0.000 NA
BRANCH  10  16
ATOM     15  C   UNL     1       6.268   3.985  14.105  0.00  0.00    +0.000 C 
ATOM     16  O   UNL     1       6.739   5.291  14.430  0.00  0.00    +0.000 OA
ENDBRANCH  10  16
ENDBRANCH   1  12
TORSDOF 3
ENDMDL
MODEL 4
REMARK VINA RESULT:      -6.1      1.042      1.070
REMARK  Name = 
REMARK  5 active torsions:
REMARK  status: ('A' for Active; 'I' for Inactive)
REMARK    1  A    between atoms: C_1  and  O_2
REMARK    2  A    between atoms: O_2  and  C_3
REMARK    3  A    between atoms: C_5  and  C_6
REMARK    4  A    between atoms: C_6  and  N_7
REMARK    5  A    between atoms: N_7  and  C_8
REMARK                            x       y       z     vdW  Elec       q    Type
REMARK                         _______ _______ _______ _____ _____    ______ ____
ROOT
ATOM      1  C   UNL     1       4.232   3.483  17.013  0.00  0.00    +0.000 C 
ENDROOT
BRANCH   1   2
ATOM      2  N   UNL     1       3.396   4.518  17.623  0.00  0.00    +0.000 N 
ATOM      3  C   UNL     1       3.833   5.905  17.684  0.00  0.00    +0.000 C 
ATOM      4  C   UNL     1       2.686   4.113  18.753  0.00  0.00    +0.000 A 
ATOM      5  N   UNL     1       2.750   2.829  19.147  0.00  0.00    +0.000 NA
ATOM      6  C   UNL     1       2.058   2.473  20.247  0.00  0.00    +0.000 A 
ATOM      7  C   UNL     1       1.283   3.342  20.968  0.00  0.00    +0.000 A 
ATOM      8  C   UNL     1       1.266   4.630  20.497  0.00  0.00    +0.000 A 
ATOM      9  N   UNL     1       1.955   5.032  19.415  0.00  0.00    +0.000 NA
ENDBRANCH   1   2
BRANCH   1  12
ATOM     10  C   UNL     1       6.867   4.831  14.694  0.00  0.00    +0.000 A 
ATOM     11  C   UNL     1       5.648   4.136  14.910  0.00  0.00    +0.000 A 
ATOM     12  C   UNL     1       5.436   3.978  16.266  0.00  0.00    +0.000 A 
ATOM     13  S   UNL     1       6.841   4.507  17.096  0.00  0.00    +0.000 S 
ATOM     14  N   UNL     1       7.631   5.076  15.754  0.00  0.00    +0.000 NA
BRANCH  10  16
ATOM     15  C   UNL     1       7.093   4.246  12.466  0.00  0.00    +0.000 C 
ATOM     16  O   UNL     1       7.290   5.237  13.472  0.00  0.00    +0.000 OA
ENDBRANCH  10  16
ENDBRANCH   1  12
TORSDOF 3
ENDMDL
MODEL 5
REMARK VINA RESULT:      -6.1      1.451      2.004
REMARK  Name = 
REMARK  5 active torsions:
REMARK  status: ('A' for Active; 'I' for Inactive)
REMARK    1  A    between atoms: C_1  and  O_2
REMARK    2  A    between atoms: O_2  and  C_3
REMARK    3  A    between atoms: C_5  and  C_6
REMARK    4  A    between atoms: C_6  and  N_7
REMARK    5  A    between atoms: N_7  and  C_8
REMARK                            x       y       z     vdW  Elec       q    Type
REMARK                         _______ _______ _______ _____ _____    ______ ____
ROOT
ATOM      1  C   UNL     1       3.867   3.782  16.802  0.00  0.00    +0.000 C 
ENDROOT
BRANCH   1   2
ATOM      2  N   UNL     1       3.764   3.084  18.084  0.00  0.00    +0.000 N 
ATOM      3  C   UNL     1       3.541   1.647  18.148  0.00  0.00    +0.000 C 
ATOM      4  C   UNL     1       3.103   3.789  19.090  0.00  0.00    +0.000 A 
ATOM      5  N   UNL     1       2.690   5.047  18.850  0.00  0.00    +0.000 NA
ATOM      6  C   UNL     1       2.047   5.696  19.841  0.00  0.00    +0.000 A 
ATOM      7  C   UNL     1       1.813   5.153  21.076  0.00  0.00    +0.000 A 
ATOM      8  C   UNL     1       2.271   3.871  21.241  0.00  0.00    +0.000 A 
ATOM      9  N   UNL     1       2.901   3.180  20.274  0.00  0.00    +0.000 NA
ENDBRANCH   1   2
BRANCH   1  12
ATOM     10  C   UNL     1       7.085   4.982  15.273  0.00  0.00    +0.000 A 
ATOM     11  C   UNL     1       5.811   4.367  15.150  0.00  0.00    +0.000 A 
ATOM     12  C   UNL     1       5.250   4.205  16.402  0.00  0.00    +0.000 A 
ATOM     13  S   UNL     1       6.426   4.625  17.578  0.00  0.00    +0.000 S 
ATOM     14  N   UNL     1       7.566   5.158  16.500  0.00  0.00    +0.000 NA
BRANCH  10  16
ATOM     15  C   UNL     1       7.376   4.814  12.983  0.00  0.00    +0.000 C 
ATOM     16  O   UNL     1       7.830   5.375  14.212  0.00  0.00    +0.000 OA
ENDBRANCH  10  16
ENDBRANCH   1  12
TORSDOF 3
ENDMDL
MODEL 6
REMARK VINA RESULT:      -6.1      2.009      2.772
REMARK  Name = 
REMARK  5 active torsions:
REMARK  status: ('A' for Active; 'I' for Inactive)
REMARK    1  A    between atoms: C_1  and  O_2
REMARK    2  A    between atoms: O_2  and  C_3
REMARK    3  A    between atoms: C_5  and  C_6
REMARK    4  A    between atoms: C_6  and  N_7
REMARK    5  A    between atoms: N_7  and  C_8
REMARK                            x       y       z     vdW  Elec       q    Type
REMARK                         _______ _______ _______ _____ _____    ______ ____
ROOT
ATOM      1  C   UNL     1       3.759   3.856  16.747  0.00  0.00    +0.000 C 
ENDROOT
BRANCH   1   2
ATOM      2  N   UNL     1       3.750   3.090  17.994  0.00  0.00    +0.000 N 
ATOM      3  C   UNL     1       3.591   1.643  17.991  0.00  0.00    +0.000 C 
ATOM      4  C   UNL     1       3.111   3.712  19.066  0.00  0.00    +0.000 A 
ATOM      5  N   UNL     1       2.634   4.961  18.914  0.00  0.00    +0.000 NA
ATOM      6  C   UNL     1       2.015   5.529  19.967  0.00  0.00    +0.000 A 
ATOM      7  C   UNL     1       1.866   4.913  21.182  0.00  0.00    +0.000 A 
ATOM      8  C   UNL     1       2.386   3.647  21.256  0.00  0.00    +0.000 A 
ATOM      9  N   UNL     1       2.994   3.035  20.224  0.00  0.00    +0.000 NA
ENDBRANCH   1   2
BRANCH   1  12
ATOM     10  C   UNL     1       6.914   5.876  16.418  0.00  0.00    +0.000 A 
ATOM     11  C   UNL     1       5.563   5.752  16.839  0.00  0.00    +0.000 A 
ATOM     12  C   UNL     1       5.053   4.539  16.414  0.00  0.00    +0.000 A 
ATOM     13  S   UNL     1       6.207   3.801  15.382  0.00  0.00    +0.000 S 
ATOM     14  N   UNL     1       7.395   4.935  15.612  0.00  0.00    +0.000 NA
BRANCH  10  16
ATOM     15  C   UNL     1       7.845   7.030  18.195  0.00  0.00    +0.000 C 
ATOM     16  O   UNL     1       7.717   6.905  16.781  0.00  0.00    +0.000 OA
ENDBRANCH  10  16
ENDBRANCH   1  12
TORSDOF 3
ENDMDL
MODEL 7
REMARK VINA RESULT:      -5.9      1.186      1.761
REMARK  Name = 
REMARK  5 active torsions:
REMARK  status: ('A' for Active; 'I' for Inactive)
REMARK    1  A    between atoms: C_1  and  O_2
REMARK    2  A    between atoms: O_2  and  C_3
REMARK    3  A    between atoms: C_5  and  C_6
REMARK    4  A    between atoms: C_6  and  N_7
REMARK    5  A    between atoms: N_7  and  C_8
REMARK                            x       y       z     vdW  Elec       q    Type
REMARK                         _______ _______ _______ _____ _____    ______ ____
ROOT
ATOM      1  C   UNL     1       4.268   5.948  17.417  0.00  0.00    +0.000 C 
ENDROOT
BRANCH   1   2
ATOM      2  N   UNL     1       4.239   5.298  18.727  0.00  0.00    +0.000 N 
ATOM      3  C   UNL     1       5.463   4.859  19.382  0.00  0.00    +0.000 C 
ATOM      4  C   UNL     1       3.163   4.435  18.936  0.00  0.00    +0.000 A 
ATOM      5  N   UNL     1       2.216   4.322  17.987  0.00  0.00    +0.000 NA
ATOM      6  C   UNL     1       1.195   3.474  18.216  0.00  0.00    +0.000 A 
ATOM      7  C   UNL     1       1.062   2.741  19.366  0.00  0.00    +0.000 A 
ATOM      8  C   UNL     1       2.064   2.919  20.284  0.00  0.00    +0.000 A 
ATOM      9  N   UNL     1       3.111   3.740  20.088  0.00  0.00    +0.000 NA
ENDBRANCH   1   2
BRANCH   1  12
ATOM     10  C   UNL     1       6.558   4.656  14.729  0.00  0.00    +0.000 A 
ATOM     11  C   UNL     1       5.329   4.602  15.438  0.00  0.00    +0.000 A 
ATOM     12  C   UNL     1       5.359   5.496  16.492  0.00  0.00    +0.000 A 
ATOM     13  S   UNL     1       6.947   6.133  16.612  0.00  0.00    +0.000 S 
ATOM     14  N   UNL     1       7.531   5.402  15.243  0.00  0.00    +0.000 NA
BRANCH  10  16
ATOM     15  C   UNL     1       5.584   3.594  12.918  0.00  0.00    +0.000 C 
ATOM     16  O   UNL     1       6.787   3.978  13.579  0.00  0.00    +0.000 OA
ENDBRANCH  10  16
ENDBRANCH   1  12
TORSDOF 3
ENDMDL
MODEL 8
REMARK VINA RESULT:      -5.9      2.457      3.119
REMARK  Name = 
REMARK  5 active torsions:
REMARK  status: ('A' for Active; 'I' for Inactive)
REMARK    1  A    between atoms: C_1  and  O_2
REMARK    2  A    between atoms: O_2  and  C_3
REMARK    3  A    between atoms: C_5  and  C_6
REMARK    4  A    between atoms: C_6  and  N_7
REMARK    5  A    between atoms: N_7  and  C_8
REMARK                            x       y       z     vdW  Elec       q    Type
REMARK                         _______ _______ _______ _____ _____    ______ ____
ROOT
ATOM      1  C   UNL     1       4.113   5.574  17.769  0.00  0.00    +0.000 C 
ENDROOT
BRANCH   1   2
ATOM      2  N   UNL     1       3.958   4.160  18.114  0.00  0.00    +0.000 N 
ATOM      3  C   UNL     1       4.058   3.119  17.102  0.00  0.00    +0.000 C 
ATOM      4  C   UNL     1       2.996   3.891  19.087  0.00  0.00    +0.000 A 
ATOM      5  N   UNL     1       2.355   4.914  19.681  0.00  0.00    +0.000 NA
ATOM      6  C   UNL     1       1.427   4.619  20.611  0.00  0.00    +0.000 A 
ATOM      7  C   UNL     1       1.118   3.340  20.995  0.00  0.00    +0.000 A 
ATOM      8  C   UNL     1       1.820   2.356  20.348  0.00  0.00    +0.000 A 
ATOM      9  N   UNL     1       2.742   2.605  19.401  0.00  0.00    +0.000 NA
ENDBRANCH   1   2
BRANCH   1  12
ATOM     10  C   UNL     1       7.403   7.387  17.605  0.00  0.00    +0.000 A 
ATOM     11  C   UNL     1       6.112   7.116  17.078  0.00  0.00    +0.000 A 
ATOM     12  C   UNL     1       5.518   6.100  17.802  0.00  0.00    +0.000 A 
ATOM     13  S   UNL     1       6.680   5.462  18.890  0.00  0.00    +0.000 S 
ATOM     14  N   UNL     1       7.862   6.576  18.553  0.00  0.00    +0.000 NA
BRANCH  10  16
ATOM     15  C   UNL     1       8.435   9.371  18.201  0.00  0.00    +0.000 C 
ATOM     16  O   UNL     1       8.184   8.409  17.179  0.00  0.00    +0.000 OA
ENDBRANCH  10  16
ENDBRANCH   1  12
TORSDOF 3
ENDMDL
MODEL 9
REMARK VINA RESULT:      -5.9      2.237      2.688
REMARK  Name = 
REMARK  5 active torsions:
REMARK  status: ('A' for Active; 'I' for Inactive)
REMARK    1  A    between atoms: C_1  and  O_2
REMARK    2  A    between atoms: O_2  and  C_3
REMARK    3  A    between atoms: C_5  and  C_6
REMARK    4  A    between atoms: C_6  and  N_7
REMARK    5  A    between atoms: N_7  and  C_8
REMARK                            x       y       z     vdW  Elec       q    Type
REMARK                         _______ _______ _______ _____ _____    ______ ____
ROOT
ATOM      1  C   UNL     1       3.967   4.948  17.359  0.00  0.00    +0.000 C 
ENDROOT
BRANCH   1   2
ATOM      2  N   UNL     1       2.918   5.393  18.277  0.00  0.00    +0.000 N 
ATOM      3  C   UNL     1       2.807   6.787  18.681  0.00  0.00    +0.000 C 
ATOM      4  C   UNL     1       2.608   4.496  19.300  0.00  0.00    +0.000 A 
ATOM      5  N   UNL     1       3.213   3.295  19.328  0.00  0.00    +0.000 NA
ATOM      6  C   UNL     1       2.897   2.456  20.335  0.00  0.00    +0.000 A 
ATOM      7  C   UNL     1       1.984   2.755  21.311  0.00  0.00    +0.000 A 
ATOM      8  C   UNL     1       1.408   3.994  21.206  0.00  0.00    +0.000 A 
ATOM      9  N   UNL     1       1.707   4.869  20.229  0.00  0.00    +0.000 NA
ENDBRANCH   1   2
BRANCH   1  12
ATOM     10  C   UNL     1       7.095   7.033  17.445  0.00  0.00    +0.000 A 
ATOM     11  C   UNL     1       5.934   6.571  16.769  0.00  0.00    +0.000 A 
ATOM     12  C   UNL     1       5.304   5.607  17.532  0.00  0.00    +0.000 A 
ATOM     13  S   UNL     1       6.312   5.234  18.870  0.00  0.00    +0.000 S 
ATOM     14  N   UNL     1       7.448   6.402  18.561  0.00  0.00    +0.000 NA
BRANCH  10  16
ATOM     15  C   UNL     1       8.169   8.998  18.028  0.00  0.00    +0.000 C 
ATOM     16  O   UNL     1       7.859   8.059  17.001  0.00  0.00    +0.000 OA
ENDBRANCH  10  16
ENDBRANCH   1  12
TORSDOF 3
ENDMDL
