MODEL 1
REMARK VINA RESULT:      -7.5      0.000      0.000
REMARK  Name = 
REMARK  7 active torsions:
REMARK  status: ('A' for Active; 'I' for Inactive)
REMARK    1  A    between atoms: N_1  and  N_2
REMARK    2  A    between atoms: N_2  and  C_3
REMARK    3  A    between atoms: N_11  and  C1*_12
REMARK    4  A    between atoms: C4*_14  and  C5*_15
REMARK    5  A    between atoms: C5*_15  and  O5*_16
REMARK    6  A    between atoms: C3*_17  and  O3*_18
REMARK    7  A    between atoms: C2*_19  and  O2*_20
REMARK                            x       y       z     vdW  Elec       q    Type
REMARK                         _______ _______ _______ _____ _____    ______ ____
ROOT
ATOM      1  C   UNL     1       7.146   5.841  17.108  0.00  0.00    +0.000 A 
ATOM      2  N   UNL     1       7.983   6.052  18.162  0.00  0.00    +0.000 NA
ATOM      3  C   UNL     1       7.566   5.719  19.400  0.00  0.00    +0.000 A 
ATOM      4  N   UNL     1       6.396   5.154  19.765  0.00  0.00    +0.000 NA
ATOM      5  C   UNL     1       5.607   4.950  18.697  0.00  0.00    +0.000 A 
ATOM      6  C   UNL     1       5.893   5.260  17.378  0.00  0.00    +0.000 A 
ATOM      7  N   UNL     1       4.861   4.881  16.544  0.00  0.00    +0.000 NA
ATOM      8  C   UNL     1       3.967   4.342  17.347  0.00  0.00    +0.000 A 
ATOM      9  N   UNL     1       4.373   4.365  18.658  0.00  0.00    +0.000 N 
ENDROOT
BRANCH   9  10
ATOM     10  C1* UNL     1       3.626   3.800  19.762  0.00  0.00    +0.000 C 
ATOM     11  O4* UNL     1       3.261   2.439  19.453  0.00  0.00    +0.000 OA
ATOM     12  C4* UNL     1       1.903   2.214  19.907  0.00  0.00    +0.000 C 
ATOM     13  C3* UNL     1       1.502   3.442  20.724  0.00  0.00    +0.000 C 
ATOM     14  C2* UNL     1       2.350   4.556  20.128  0.00  0.00    +0.000 C 
BRANCH  13  15
ATOM     15  O3* UNL     1       1.871   3.312  22.110  0.00  0.00    +0.000 OA
ATOM     16  H3* UNL     1       2.344   2.469  22.239  0.00  0.00    +0.000 HD
ENDBRANCH  13  15
BRANCH  14  17
ATOM     17  O2* UNL     1       2.591   5.595  21.079  0.00  0.00    +0.000 OA
ATOM     18  H2* UNL     1       1.918   5.481  21.783  0.00  0.00    +0.000 HD
ENDBRANCH  14  17
BRANCH  12  19
ATOM     19  C5* UNL     1       0.998   1.976  18.696  0.00  0.00    +0.000 C 
BRANCH  19  20
ATOM     20  O5* UNL     1       1.792   1.767  17.532  0.00  0.00    +0.000 OA
ATOM     21  H5* UNL     1       2.642   1.400  17.845  0.00  0.00    +0.000 HD
ENDBRANCH  19  20
ENDBRANCH  12  19
ENDBRANCH   9  10
BRANCH   1  22
ATOM     22  N   UNL     1       7.514   6.154  15.778  0.00  0.00    +0.000 N 
ATOM     23  H   UNL     1       7.178   7.096  15.551  0.00  0.00    +0.000 HD
BRANCH  22  24
ATOM     24  N   UNL     1       7.409   5.141  14.807  0.00  0.00    +0.000 NA
ATOM     25  H   UNL     1       6.437   4.869  14.664  0.00  0.00    +0.000 HD
ATOM     26  H   UNL     1       7.922   4.307  15.101  0.00  0.00    +0.000 HD
ENDBRANCH  22  24
ENDBRANCH   1  22
TORSDOF 7
ENDMDL
MODEL 2
REMARK VINA RESULT:      -7.2      1.373      3.065
REMARK  Name = 
REMARK  7 active torsions:
REMARK  status: ('A' for Active; 'I' for Inactive)
REMARK    1  A    between atoms: N_1  and  N_2
REMARK    2  A    between atoms: N_2  and  C_3
REMARK    3  A    between atoms: N_11  and  C1*_12
REMARK    4  A    between atoms: C4*_14  and  C5*_15
REMARK    5  A    between atoms: C5*_15  and  O5*_16
REMARK    6  A    between atoms: C3*_17  and  O3*_18
REMARK    7  A    between atoms: C2*_19  and  O2*_20
REMARK                            x       y       z     vdW  Elec       q    Type
REMARK                         _______ _______ _______ _____ _____    ______ ____
ROOT
ATOM      1  C   UNL     1       6.874   5.994  16.391  0.00  0.00    +0.000 A 
ATOM      2  N   UNL     1       6.712   5.485  15.137  0.00  0.00    +0.000 NA
ATOM      3  C   UNL     1       5.729   4.589  14.921  0.00  0.00    +0.000 A 
ATOM      4  N   UNL     1       4.818   4.119  15.797  0.00  0.00    +0.000 NA
ATOM      5  C   UNL     1       5.003   4.655  17.016  0.00  0.00    +0.000 A 
ATOM      6  C   UNL     1       5.978   5.564  17.387  0.00  0.00    +0.000 A 
ATOM      7  N   UNL     1       5.846   5.919  18.714  0.00  0.00    +0.000 NA
ATOM      8  C   UNL     1       4.801   5.240  19.136  0.00  0.00    +0.000 A 
ATOM      9  N   UNL     1       4.260   4.459  18.146  0.00  0.00    +0.000 N 
ENDROOT
BRANCH   9  10
ATOM     10  C1* UNL     1       3.076   3.640  18.296  0.00  0.00    +0.000 C 
ATOM     11  O4* UNL     1       2.087   4.356  19.064  0.00  0.00    +0.000 OA
ATOM     12  C4* UNL     1       1.459   3.427  19.983  0.00  0.00    +0.000 C 
ATOM     13  C3* UNL     1       1.948   2.030  19.600  0.00  0.00    +0.000 C 
ATOM     14  C2* UNL     1       3.309   2.291  18.973  0.00  0.00    +0.000 C 
BRANCH  13  15
ATOM     15  O3* UNL     1       1.116   1.426  18.591  0.00  0.00    +0.000 OA
ATOM     16  H3* UNL     1       1.273   0.464  18.578  0.00  0.00    +0.000 HD
ENDBRANCH  13  15
BRANCH  14  17
ATOM     17  O2* UNL     1       3.658   1.269  18.038  0.00  0.00    +0.000 OA
ATOM     18  H2* UNL     1       3.797   0.454  18.564  0.00  0.00    +0.000 HD
ENDBRANCH  14  17
BRANCH  12  19
ATOM     19  C5* UNL     1       1.816   3.816  21.419  0.00  0.00    +0.000 C 
BRANCH  19  20
ATOM     20  O5* UNL     1       1.914   2.646  22.227  0.00  0.00    +0.000 OA
ATOM     21  H5* UNL     1       1.233   2.738  22.922  0.00  0.00    +0.000 HD
ENDBRANCH  19  20
ENDBRANCH  12  19
ENDBRANCH   9  10
BRANCH   1  22
ATOM     22  N   UNL     1       7.876   6.945  16.695  0.00  0.00    +0.000 N 
ATOM     23  H   UNL     1       8.716   6.455  17.019  0.00  0.00    +0.000 HD
BRANCH  22  24
ATOM     24  N   UNL     1       7.486   8.130  17.345  0.00  0.00    +0.000 NA
ATOM     25  H   UNL     1       7.673   8.947  16.763  0.00  0.00    +0.000 HD
ATOM     26  H   UNL     1       8.005   8.250  18.217  0.00  0.00    +0.000 HD
ENDBRANCH  22  24
ENDBRANCH   1  22
TORSDOF 7
ENDMDL
MODEL 3
REMARK VINA RESULT:      -7.2      3.214      6.295
REMARK  Name = 
REMARK  7 active torsions:
REMARK  status: ('A' for Active; 'I' for Inactive)
REMARK    1  A    between atoms: N_1  and  N_2
REMARK    2  A    between atoms: N_2  and  C_3
REMARK    3  A    between atoms: N_11  and  C1*_12
REMARK    4  A    between atoms: C4*_14  and  C5*_15
REMARK    5  A    between atoms: C5*_15  and  O5*_16
REMARK    6  A    between atoms: C3*_17  and  O3*_18
REMARK    7  A    between atoms: C2*_19  and  O2*_20
REMARK                            x       y       z     vdW  Elec       q    Type
REMARK                         _______ _______ _______ _____ _____    ______ ____
ROOT
ATOM      1  C   UNL     1       1.609   2.867  19.752  0.00  0.00    +0.000 A 
ATOM      2  N   UNL     1       1.526   1.834  18.867  0.00  0.00    +0.000 NA
ATOM      3  C   UNL     1       2.402   1.783  17.845  0.00  0.00    +0.000 A 
ATOM      4  N   UNL     1       3.418   2.627  17.570  0.00  0.00    +0.000 NA
ATOM      5  C   UNL     1       3.474   3.622  18.473  0.00  0.00    +0.000 A 
ATOM      6  C   UNL     1       2.632   3.813  19.555  0.00  0.00    +0.000 A 
ATOM      7  N   UNL     1       3.006   4.922  20.285  0.00  0.00    +0.000 NA
ATOM      8  C   UNL     1       4.065   5.390  19.657  0.00  0.00    +0.000 A 
ATOM      9  N   UNL     1       4.382   4.639  18.553  0.00  0.00    +0.000 N 
ENDROOT
BRANCH   9  10
ATOM     10  C1* UNL     1       5.523   4.877  17.695  0.00  0.00    +0.000 C 
ATOM     11  O4* UNL     1       6.733   4.488  18.378  0.00  0.00    +0.000 OA
ATOM     12  C4* UNL     1       7.756   5.476  18.098  0.00  0.00    +0.000 C 
ATOM     13  C3* UNL     1       7.193   6.398  17.017  0.00  0.00    +0.000 C 
ATOM     14  C2* UNL     1       5.690   6.323  17.234  0.00  0.00    +0.000 C 
BRANCH  13  15
ATOM     15  O3* UNL     1       7.464   5.902  15.692  0.00  0.00    +0.000 OA
ATOM     16  H3* UNL     1       8.273   6.326  15.348  0.00  0.00    +0.000 HD
ENDBRANCH  13  15
BRANCH  14  17
ATOM     17  O2* UNL     1       4.973   6.592  16.027  0.00  0.00    +0.000 OA
ATOM     18  H2* UNL     1       4.271   7.234  16.265  0.00  0.00    +0.000 HD
ENDBRANCH  14  17
BRANCH  12  19
ATOM     19  C5* UNL     1       8.113   6.214  19.390  0.00  0.00    +0.000 C 
BRANCH  19  20
ATOM     20  O5* UNL     1       8.212   5.285  20.466  0.00  0.00    +0.000 OA
ATOM     21  H5* UNL     1       8.781   5.708  21.139  0.00  0.00    +0.000 HD
ENDBRANCH  19  20
ENDBRANCH  12  19
ENDBRANCH   9  10
BRANCH   1  22
ATOM     22  N   UNL     1       0.732   2.986  20.857  0.00  0.00    +0.000 N 
ATOM     23  H   UNL     1       0.088   3.767  20.690  0.00  0.00    +0.000 HD
BRANCH  22  24
ATOM     24  N   UNL     1       1.265   2.806  22.146  0.00  0.00    +0.000 NA
ATOM     25  H   UNL     1       0.997   1.901  22.531  0.00  0.00    +0.000 HD
ATOM     26  H   UNL     1       0.918   3.526  22.783  0.00  0.00    +0.000 HD
ENDBRANCH  22  24
ENDBRANCH   1  22
TORSDOF 7
ENDMDL
MODEL 4
REMARK VINA RESULT:      -6.8      3.233      5.898
REMARK  Name = 
REMARK  7 active torsions:
REMARK  status: ('A' for Active; 'I' for Inactive)
REMARK    1  A    between atoms: N_1  and  N_2
REMARK    2  A    between atoms: N_2  and  C_3
REMARK    3  A    between atoms: N_11  and  C1*_12
REMARK    4  A    between atoms: C4*_14  and  C5*_15
REMARK    5  A    between atoms: C5*_15  and  O5*_16
REMARK    6  A    between atoms: C3*_17  and  O3*_18
REMARK    7  A    between atoms: C2*_19  and  O2*_20
REMARK                            x       y       z     vdW  Elec       q    Type
REMARK                         _______ _______ _______ _____ _____    ______ ____
ROOT
ATOM      1  C   UNL     1       1.718   2.935  19.603  0.00  0.00    +0.000 A 
ATOM      2  N   UNL     1       2.061   1.884  18.807  0.00  0.00    +0.000 NA
ATOM      3  C   UNL     1       3.021   2.058  17.878  0.00  0.00    +0.000 A 
ATOM      4  N   UNL     1       3.750   3.166  17.625  0.00  0.00    +0.000 NA
ATOM      5  C   UNL     1       3.392   4.173  18.440  0.00  0.00    +0.000 A 
ATOM      6  C   UNL     1       2.414   4.144  19.420  0.00  0.00    +0.000 A 
ATOM      7  N   UNL     1       2.342   5.352  20.083  0.00  0.00    +0.000 NA
ATOM      8  C   UNL     1       3.267   6.097  19.517  0.00  0.00    +0.000 A 
ATOM      9  N   UNL     1       3.926   5.428  18.516  0.00  0.00    +0.000 N 
ENDROOT
BRANCH   9  10
ATOM     10  C1* UNL     1       5.027   5.969  17.748  0.00  0.00    +0.000 C 
ATOM     11  O4* UNL     1       4.676   5.990  16.348  0.00  0.00    +0.000 OA
ATOM     12  C4* UNL     1       5.835   5.579  15.580  0.00  0.00    +0.000 C 
ATOM     13  C3* UNL     1       7.009   5.509  16.555  0.00  0.00    +0.000 C 
ATOM     14  C2* UNL     1       6.344   5.209  17.890  0.00  0.00    +0.000 C 
BRANCH  13  15
ATOM     15  O3* UNL     1       7.681   6.777  16.681  0.00  0.00    +0.000 OA
ATOM     16  H3* UNL     1       7.689   7.045  17.619  0.00  0.00    +0.000 HD
ENDBRANCH  13  15
BRANCH  14  17
ATOM     17  O2* UNL     1       7.129   5.687  18.984  0.00  0.00    +0.000 OA
ATOM     18  H2* UNL     1       7.325   4.903  19.541  0.00  0.00    +0.000 HD
ENDBRANCH  14  17
BRANCH  12  19
ATOM     19  C5* UNL     1       5.539   4.240  14.898  0.00  0.00    +0.000 C 
BRANCH  19  20
ATOM     20  O5* UNL     1       6.140   3.179  15.635  0.00  0.00    +0.000 OA
ATOM     21  H5* UNL     1       5.630   2.374  15.417  0.00  0.00    +0.000 HD
ENDBRANCH  19  20
ENDBRANCH  12  19
ENDBRANCH   9  10
BRANCH   1  22
ATOM     22  N   UNL     1       0.728   2.829  20.609  0.00  0.00    +0.000 N 
ATOM     23  H   UNL     1      -0.053   3.451  20.376  0.00  0.00    +0.000 HD
BRANCH  22  24
ATOM     24  N   UNL     1       1.152   2.739  21.947  0.00  0.00    +0.000 NA
ATOM     25  H   UNL     1       0.505   3.222  22.570  0.00  0.00    +0.000 HD
ATOM     26  H   UNL     1       2.070   3.171  22.064  0.00  0.00    +0.000 HD
ENDBRANCH  22  24
ENDBRANCH   1  22
TORSDOF 7
ENDMDL
MODEL 5
REMARK VINA RESULT:      -6.8      1.108      1.351
REMARK  Name = 
REMARK  7 active torsions:
REMARK  status: ('A' for Active; 'I' for Inactive)
REMARK    1  A    between atoms: N_1  and  N_2
REMARK    2  A    between atoms: N_2  and  C_3
REMARK    3  A    between atoms: N_11  and  C1*_12
REMARK    4  A    between atoms: C4*_14  and  C5*_15
REMARK    5  A    between atoms: C5*_15  and  O5*_16
REMARK    6  A    between atoms: C3*_17  and  O3*_18
REMARK    7  A    between atoms: C2*_19  and  O2*_20
REMARK                            x       y       z     vdW  Elec       q    Type
REMARK                         _______ _______ _______ _____ _____    ______ ____
ROOT
ATOM      1  C   UNL     1       6.976   5.416  15.621  0.00  0.00    +0.000 A 
ATOM      2  N   UNL     1       7.665   6.355  16.328  0.00  0.00    +0.000 NA
ATOM      3  C   UNL     1       7.264   6.650  17.580  0.00  0.00    +0.000 A 
ATOM      4  N   UNL     1       6.250   6.107  18.284  0.00  0.00    +0.000 NA
ATOM      5  C   UNL     1       5.605   5.177  17.558  0.00  0.00    +0.000 A 
ATOM      6  C   UNL     1       5.891   4.788  16.260  0.00  0.00    +0.000 A 
ATOM      7  N   UNL     1       5.040   3.784  15.845  0.00  0.00    +0.000 NA
ATOM      8  C   UNL     1       4.258   3.563  16.880  0.00  0.00    +0.000 A 
ATOM      9  N   UNL     1       4.559   4.385  17.938  0.00  0.00    +0.000 N 
ENDROOT
BRANCH   9  10
ATOM     10  C1* UNL     1       3.905   4.341  19.229  0.00  0.00    +0.000 C 
ATOM     11  O4* UNL     1       3.473   2.993  19.506  0.00  0.00    +0.000 OA
ATOM     12  C4* UNL     1       2.158   3.050  20.115  0.00  0.00    +0.000 C 
ATOM     13  C3* UNL     1       1.874   4.522  20.414  0.00  0.00    +0.000 C 
ATOM     14  C2* UNL     1       2.694   5.260  19.367  0.00  0.00    +0.000 C 
BRANCH  13  15
ATOM     15  O3* UNL     1       2.370   4.914  21.708  0.00  0.00    +0.000 OA
ATOM     16  H3* UNL     1       3.113   5.535  21.593  0.00  0.00    +0.000 HD
ENDBRANCH  13  15
BRANCH  14  17
ATOM     17  O2* UNL     1       3.056   6.568  19.814  0.00  0.00    +0.000 OA
ATOM     18  H2* UNL     1       2.278   6.914  20.301  0.00  0.00    +0.000 HD
ENDBRANCH  14  17
BRANCH  12  19
ATOM     19  C5* UNL     1       1.134   2.421  19.167  0.00  0.00    +0.000 C 
BRANCH  19  20
ATOM     20  O5* UNL     1       1.795   1.562  18.241  0.00  0.00    +0.000 OA
ATOM     21  H5* UNL     1       2.448   1.054  18.761  0.00  0.00    +0.000 HD
ENDBRANCH  19  20
ENDBRANCH  12  19
ENDBRANCH   9  10
BRANCH   1  22
ATOM     22  N   UNL     1       7.340   5.043  14.306  0.00  0.00    +0.000 N 
ATOM     23  H   UNL     1       7.274   4.024  14.216  0.00  0.00    +0.000 HD
BRANCH  22  24
ATOM     24  N   UNL     1       8.424   5.710  13.706  0.00  0.00    +0.000 NA
ATOM     25  H   UNL     1       8.213   6.697  13.560  0.00  0.00    +0.000 HD
ATOM     26  H   UNL     1       8.636   5.304  12.792  0.00  0.00    +0.000 HD
ENDBRANCH  22  24
ENDBRANCH   1  22
TORSDOF 7
ENDMDL
MODEL 6
REMARK VINA RESULT:      -6.8      3.406      5.971
REMARK  Name = 
REMARK  7 active torsions:
REMARK  status: ('A' for Active; 'I' for Inactive)
REMARK    1  A    between atoms: N_1  and  N_2
REMARK    2  A    between atoms: N_2  and  C_3
REMARK    3  A    between atoms: N_11  and  C1*_12
REMARK    4  A    between atoms: C4*_14  and  C5*_15
REMARK    5  A    between atoms: C5*_15  and  O5*_16
REMARK    6  A    between atoms: C3*_17  and  O3*_18
REMARK    7  A    between atoms: C2*_19  and  O2*_20
REMARK                            x       y       z     vdW  Elec       q    Type
REMARK                         _______ _______ _______ _____ _____    ______ ____
ROOT
ATOM      1  C   UNL     1       1.691   4.250  20.598  0.00  0.00    +0.000 A 
ATOM      2  N   UNL     1       1.270   5.537  20.744  0.00  0.00    +0.000 NA
ATOM      3  C   UNL     1       1.976   6.522  20.154  0.00  0.00    +0.000 A 
ATOM      4  N   UNL     1       3.074   6.415  19.377  0.00  0.00    +0.000 NA
ATOM      5  C   UNL     1       3.447   5.131  19.247  0.00  0.00    +0.000 A 
ATOM      6  C   UNL     1       2.835   4.024  19.811  0.00  0.00    +0.000 A 
ATOM      7  N   UNL     1       3.474   2.860  19.436  0.00  0.00    +0.000 NA
ATOM      8  C   UNL     1       4.453   3.257  18.650  0.00  0.00    +0.000 A 
ATOM      9  N   UNL     1       4.479   4.622  18.510  0.00  0.00    +0.000 N 
ENDROOT
BRANCH   9  10
ATOM     10  C1* UNL     1       5.408   5.347  17.669  0.00  0.00    +0.000 C 
ATOM     11  O4* UNL     1       4.800   5.604  16.386  0.00  0.00    +0.000 OA
ATOM     12  C4* UNL     1       5.799   5.396  15.356  0.00  0.00    +0.000 C 
ATOM     13  C3* UNL     1       7.137   5.208  16.071  0.00  0.00    +0.000 C 
ATOM     14  C2* UNL     1       6.739   4.640  17.424  0.00  0.00    +0.000 C 
BRANCH  13  15
ATOM     15  O3* UNL     1       7.802   6.464  16.307  0.00  0.00    +0.000 OA
ATOM     16  H3* UNL     1       8.163   6.800  15.466  0.00  0.00    +0.000 HD
ENDBRANCH  13  15
BRANCH  14  17
ATOM     17  O2* UNL     1       7.709   4.949  18.427  0.00  0.00    +0.000 OA
ATOM     18  H2* UNL     1       7.215   5.369  19.163  0.00  0.00    +0.000 HD
ENDBRANCH  14  17
BRANCH  12  19
ATOM     19  C5* UNL     1       5.400   4.190  14.502  0.00  0.00    +0.000 C 
BRANCH  19  20
ATOM     20  O5* UNL     1       6.381   3.966  13.493  0.00  0.00    +0.000 OA
ATOM     21  H5* UNL     1       7.094   3.449  13.917  0.00  0.00    +0.000 HD
ENDBRANCH  19  20
ENDBRANCH  12  19
ENDBRANCH   9  10
BRANCH   1  22
ATOM     22  N   UNL     1       1.000   3.160  21.178  0.00  0.00    +0.000 N 
ATOM     23  H   UNL     1       0.033   3.442  21.373  0.00  0.00    +0.000 HD
BRANCH  22  24
ATOM     24  N   UNL     1       1.682   2.370  22.121  0.00  0.00    +0.000 NA
ATOM     25  H   UNL     1       2.582   2.058  21.757  0.00  0.00    +0.000 HD
ATOM     26  H   UNL     1       1.139   1.537  22.353  0.00  0.00    +0.000 HD
ENDBRANCH  22  24
ENDBRANCH   1  22
TORSDOF 7
ENDMDL
MODEL 7
REMARK VINA RESULT:      -6.8      3.082      5.889
REMARK  Name = 
REMARK  7 active torsions:
REMARK  status: ('A' for Active; 'I' for Inactive)
REMARK    1  A    between atoms: N_1  and  N_2
REMARK    2  A    between atoms: N_2  and  C_3
REMARK    3  A    between atoms: N_11  and  C1*_12
REMARK    4  A    between atoms: C4*_14  and  C5*_15
REMARK    5  A    between atoms: C5*_15  and  O5*_16
REMARK    6  A    between atoms: C3*_17  and  O3*_18
REMARK    7  A    between atoms: C2*_19  and  O2*_20
REMARK                            x       y       z     vdW  Elec       q    Type
REMARK                         _______ _______ _______ _____ _____    ______ ____
ROOT
ATOM      1  C   UNL     1       1.721   4.099  19.969  0.00  0.00    +0.000 A 
ATOM      2  N   UNL     1       1.904   5.358  20.457  0.00  0.00    +0.000 NA
ATOM      3  C   UNL     1       2.991   6.053  20.070  0.00  0.00    +0.000 A 
ATOM      4  N   UNL     1       3.959   5.680  19.207  0.00  0.00    +0.000 NA
ATOM      5  C   UNL     1       3.735   4.441  18.739  0.00  0.00    +0.000 A 
ATOM      6  C   UNL     1       2.678   3.607  19.063  0.00  0.00    +0.000 A 
ATOM      7  N   UNL     1       2.753   2.418  18.366  0.00  0.00    +0.000 NA
ATOM      8  C   UNL     1       3.836   2.535  17.626  0.00  0.00    +0.000 A 
ATOM      9  N   UNL     1       4.464   3.740  17.821  0.00  0.00    +0.000 N 
ENDROOT
BRANCH   9  10
ATOM     10  C1* UNL     1       5.648   4.176  17.111  0.00  0.00    +0.000 C 
ATOM     11  O4* UNL     1       6.798   4.068  17.976  0.00  0.00    +0.000 OA
ATOM     12  C4* UNL     1       7.634   5.235  17.773  0.00  0.00    +0.000 C 
ATOM     13  C3* UNL     1       7.064   5.983  16.569  0.00  0.00    +0.000 C 
ATOM     14  C2* UNL     1       5.590   5.609  16.585  0.00  0.00    +0.000 C 
BRANCH  13  15
ATOM     15  O3* UNL     1       7.618   5.506  15.327  0.00  0.00    +0.000 OA
ATOM     16  H3* UNL     1       6.930   5.532  14.637  0.00  0.00    +0.000 HD
ENDBRANCH  13  15
BRANCH  14  17
ATOM     17  O2* UNL     1       5.018   5.682  15.278  0.00  0.00    +0.000 OA
ATOM     18  H2* UNL     1       4.398   6.442  15.294  0.00  0.00    +0.000 HD
ENDBRANCH  14  17
BRANCH  12  19
ATOM     19  C5* UNL     1       7.647   6.076  19.052  0.00  0.00    +0.000 C 
BRANCH  19  20
ATOM     20  O5* UNL     1       7.086   5.328  20.128  0.00  0.00    +0.000 OA
ATOM     21  H5* UNL     1       7.839   5.039  20.680  0.00  0.00    +0.000 HD
ENDBRANCH  19  20
ENDBRANCH  12  19
ENDBRANCH   9  10
BRANCH   1  22
ATOM     22  N   UNL     1       0.600   3.310  20.319  0.00  0.00    +0.000 N 
ATOM     23  H   UNL     1       0.752   2.905  21.249  0.00  0.00    +0.000 HD
BRANCH  22  24
ATOM     24  N   UNL     1       0.013   2.514  19.319  0.00  0.00    +0.000 NA
ATOM     25  H   UNL     1      -0.353   1.645  19.708  0.00  0.00    +0.000 HD
ATOM     26  H   UNL     1       0.703   2.264  18.607  0.00  0.00    +0.000 HD
ENDBRANCH  22  24
ENDBRANCH   1  22
TORSDOF 7
ENDMDL
MODEL 8
REMARK VINA RESULT:      -6.8      3.349      5.930
REMARK  Name = 
REMARK  7 active torsions:
REMARK  status: ('A' for Active; 'I' for Inactive)
REMARK    1  A    between atoms: N_1  and  N_2
REMARK    2  A    between atoms: N_2  and  C_3
REMARK    3  A    between atoms: N_11  and  C1*_12
REMARK    4  A    between atoms: C4*_14  and  C5*_15
REMARK    5  A    between atoms: C5*_15  and  O5*_16
REMARK    6  A    between atoms: C3*_17  and  O3*_18
REMARK    7  A    between atoms: C2*_19  and  O2*_20
REMARK                            x       y       z     vdW  Elec       q    Type
REMARK                         _______ _______ _______ _____ _____    ______ ____
ROOT
ATOM      1  C   UNL     1       1.221   3.596  19.774  0.00  0.00    +0.000 A 
ATOM      2  N   UNL     1       0.849   4.660  20.540  0.00  0.00    +0.000 NA
ATOM      3  C   UNL     1       1.682   5.715  20.633  0.00  0.00    +0.000 A 
ATOM      4  N   UNL     1       2.874   5.897  20.028  0.00  0.00    +0.000 NA
ATOM      5  C   UNL     1       3.196   4.834  19.272  0.00  0.00    +0.000 A 
ATOM      6  C   UNL     1       2.453   3.678  19.101  0.00  0.00    +0.000 A 
ATOM      7  N   UNL     1       3.079   2.811  18.228  0.00  0.00    +0.000 NA
ATOM      8  C   UNL     1       4.180   3.438  17.871  0.00  0.00    +0.000 A 
ATOM      9  N   UNL     1       4.296   4.663  18.480  0.00  0.00    +0.000 N 
ENDROOT
BRANCH   9  10
ATOM     10  C1* UNL     1       5.373   5.602  18.246  0.00  0.00    +0.000 C 
ATOM     11  O4* UNL     1       5.395   5.974  16.852  0.00  0.00    +0.000 OA
ATOM     12  C4* UNL     1       6.776   6.031  16.415  0.00  0.00    +0.000 C 
ATOM     13  C3* UNL     1       7.641   5.892  17.668  0.00  0.00    +0.000 C 
ATOM     14  C2* UNL     1       6.763   5.091  18.617  0.00  0.00    +0.000 C 
BRANCH  13  15
ATOM     15  O3* UNL     1       7.899   7.166  18.288  0.00  0.00    +0.000 OA
ATOM     16  H3* UNL     1       7.764   7.088  19.251  0.00  0.00    +0.000 HD
ENDBRANCH  13  15
BRANCH  14  17
ATOM     17  O2* UNL     1       7.091   5.357  19.982  0.00  0.00    +0.000 OA
ATOM     18  H2* UNL     1       8.051   5.557  19.998  0.00  0.00    +0.000 HD
ENDBRANCH  14  17
BRANCH  12  19
ATOM     19  C5* UNL     1       7.027   4.926  15.386  0.00  0.00    +0.000 C 
BRANCH  19  20
ATOM     20  O5* UNL     1       7.773   5.447  14.289  0.00  0.00    +0.000 OA
ATOM     21  H5* UNL     1       7.865   6.406  14.454  0.00  0.00    +0.000 HD
ENDBRANCH  19  20
ENDBRANCH  12  19
ENDBRANCH   9  10
BRANCH   1  22
ATOM     22  N   UNL     1       0.398   2.455  19.618  0.00  0.00    +0.000 N 
ATOM     23  H   UNL     1       0.474   1.870  20.457  0.00  0.00    +0.000 HD
BRANCH  22  24
ATOM     24  N   UNL     1       0.362   1.834  18.356  0.00  0.00    +0.000 NA
ATOM     25  H   UNL     1       1.218   1.307  18.182  0.00  0.00    +0.000 HD
ATOM     26  H   UNL     1       0.275   2.531  17.614  0.00  0.00    +0.000 HD
ENDBRANCH  22  24
ENDBRANCH   1  22
TORSDOF 7
ENDMDL
MODEL 9
REMARK VINA RESULT:      -6.7      1.887      2.591
REMARK  Name = 
REMARK  7 active torsions:
REMARK  status: ('A' for Active; 'I' for Inactive)
REMARK    1  A    between atoms: N_1  and  N_2
REMARK    2  A    between atoms: N_2  and  C_3
REMARK    3  A    between atoms: N_11  and  C1*_12
REMARK    4  A    between atoms: C4*_14  and  C5*_15
REMARK    5  A    between atoms: C5*_15  and  O5*_16
REMARK    6  A    between atoms: C3*_17  and  O3*_18
REMARK    7  A    between atoms: C2*_19  and  O2*_20
REMARK                            x       y       z     vdW  Elec       q    Type
REMARK                         _______ _______ _______ _____ _____    ______ ____
ROOT
ATOM      1  C   UNL     1       7.349   7.223  17.913  0.00  0.00    +0.000 A 
ATOM      2  N   UNL     1       8.200   6.649  18.809  0.00  0.00    +0.000 NA
ATOM      3  C   UNL     1       7.910   5.424  19.289  0.00  0.00    +0.000 A 
ATOM      4  N   UNL     1       6.865   4.629  18.977  0.00  0.00    +0.000 NA
ATOM      5  C   UNL     1       6.059   5.224  18.082  0.00  0.00    +0.000 A 
ATOM      6  C   UNL     1       6.219   6.480  17.522  0.00  0.00    +0.000 A 
ATOM      7  N   UNL     1       5.214   6.752  16.616  0.00  0.00    +0.000 NA
ATOM      8  C   UNL     1       4.462   5.672  16.622  0.00  0.00    +0.000 A 
ATOM      9  N   UNL     1       4.931   4.723  17.496  0.00  0.00    +0.000 N 
ENDROOT
BRANCH   9  10
ATOM     10  C1* UNL     1       4.344   3.412  17.683  0.00  0.00    +0.000 C 
ATOM     11  O4* UNL     1       3.054   3.365  17.040  0.00  0.00    +0.000 OA
ATOM     12  C4* UNL     1       2.138   2.644  17.903  0.00  0.00    +0.000 C 
ATOM     13  C3* UNL     1       2.976   2.043  19.031  0.00  0.00    +0.000 C 
ATOM     14  C2* UNL     1       4.158   2.994  19.140  0.00  0.00    +0.000 C 
BRANCH  13  15
ATOM     15  O3* UNL     1       3.497   0.745  18.683  0.00  0.00    +0.000 OA
ATOM     16  H3* UNL     1       3.071   0.438  17.861  0.00  0.00    +0.000 HD
ENDBRANCH  13  15
BRANCH  14  17
ATOM     17  O2* UNL     1       5.312   2.337  19.666  0.00  0.00    +0.000 OA
ATOM     18  H2* UNL     1       4.977   1.641  20.271  0.00  0.00    +0.000 HD
ENDBRANCH  14  17
BRANCH  12  19
ATOM     19  C5* UNL     1       1.055   3.602  18.405  0.00  0.00    +0.000 C 
BRANCH  19  20
ATOM     20  O5* UNL     1       0.493   3.106  19.616  0.00  0.00    +0.000 OA
ATOM     21  H5* UNL     1      -0.430   3.426  19.639  0.00  0.00    +0.000 HD
ENDBRANCH  19  20
ENDBRANCH  12  19
ENDBRANCH   9  10
BRANCH   1  22
ATOM     22  N   UNL     1       7.589   8.501  17.356  0.00  0.00    +0.000 N 
ATOM     23  H   UNL     1       7.784   8.398  16.355  0.00  0.00    +0.000 HD
BRANCH  22  24
ATOM     24  N   UNL     1       8.347   9.417  18.107  0.00  0.00    +0.000 NA
ATOM     25  H   UNL     1       7.797  10.243  18.342  0.00  0.00    +0.000 HD
ATOM     26  H   UNL     1       9.161   9.732  17.575  0.00  0.00    +0.000 HD
ENDBRANCH  22  24
ENDBRANCH   1  22
TORSDOF 7
ENDMDL
