MODEL 1
REMARK VINA RESULT:      -8.7      0.000      0.000
REMARK  Name = 
REMARK  7 active torsions:
REMARK  status: ('A' for Active; 'I' for Inactive)
REMARK    1  A    between atoms: C_2  and  C_24
REMARK    2  A    between atoms: N_3  and  C_4
REMARK    3  A    between atoms: C_4  and  C_5
REMARK    4  A    between atoms: C_4  and  C_18
REMARK    5  A    between atoms: N_7  and  C_8
REMARK    6  A    between atoms: C_27  and  N_28
REMARK    7  A    between atoms: N_29  and  C_30
REMARK                            x       y       z     vdW  Elec       q    Type
REMARK                         _______ _______ _______ _____ _____    ______ ____
ROOT
ATOM      1  C   UNL     1      -1.619  12.608  23.121  0.00  0.00    +0.000 C 
ENDROOT
BRANCH   1   2
ATOM      2  C   UNL     1      -3.113  12.723  22.931  0.00  0.00    +0.000 A 
ATOM      3  C   UNL     1      -3.963  12.758  24.045  0.00  0.00    +0.000 A 
ATOM      4  C   UNL     1      -5.341  12.841  23.875  0.00  0.00    +0.000 A 
ATOM      5  C   UNL     1      -5.836  12.888  22.584  0.00  0.00    +0.000 A 
ATOM      6  N   UNL     1      -5.057  12.848  21.481  0.00  0.00    +0.000 NA
ATOM      7  C   UNL     1      -3.720  12.756  21.677  0.00  0.00    +0.000 A 
ENDBRANCH   1   2
BRANCH   1  10
ATOM      8  O   UNL     1      -0.493  10.086  23.563  0.00  0.00    +0.000 OA
ATOM      9  C   UNL     1      -0.449  10.555  22.429  0.00  0.00    +0.000 C 
ATOM     10  N   UNL     1      -1.020  11.763  22.097  0.00  0.00    +0.000 N 
ATOM     11  H   UNL     1      -0.805  12.216  21.216  0.00  0.00    +0.000 HD
BRANCH   9  12
ATOM     12  C   UNL     1       0.294   9.839  21.360  0.00  0.00    +0.000 A 
ATOM     13  C   UNL     1       0.385  10.319  20.051  0.00  0.00    +0.000 A 
ATOM     14  C   UNL     1       1.104   9.596  19.092  0.00  0.00    +0.000 A 
ATOM     15  C   UNL     1       1.745   8.392  19.416  0.00  0.00    +0.000 A 
ATOM     16  C   UNL     1       1.622   7.906  20.725  0.00  0.00    +0.000 A 
ATOM     17  C   UNL     1       0.905   8.622  21.689  0.00  0.00    +0.000 A 
BRANCH  15  18
ATOM     18  N   UNL     1       2.448   7.729  18.389  0.00  0.00    +0.000 NA
ATOM     19  N   UNL     1       2.908   6.625  18.748  0.00  0.00    +0.000 NA
BRANCH  19  20
ATOM     20  C   UNL     1       3.705   6.025  17.747  0.00  0.00    +0.000 A 
ATOM     21  C   UNL     1       3.650   4.632  17.615  0.00  0.00    +0.000 A 
ATOM     22  C   UNL     1       4.421   3.968  16.658  0.00  0.00    +0.000 A 
ATOM     23  C   UNL     1       5.255   4.694  15.811  0.00  0.00    +0.000 A 
ATOM     24  C   UNL     1       5.307   6.082  15.911  0.00  0.00    +0.000 A 
ATOM     25  C   UNL     1       4.531   6.743  16.868  0.00  0.00    +0.000 A 
ENDBRANCH  19  20
ENDBRANCH  15  18
ENDBRANCH   9  12
ENDBRANCH   1  10
BRANCH   1  26
ATOM     26  C   UNL     1      -0.875  13.963  23.129  0.00  0.00    +0.000 C 
ATOM     27  O   UNL     1      -0.834  14.690  24.121  0.00  0.00    +0.000 OA
ATOM     28  N   UNL     1      -0.262  14.270  21.939  0.00  0.00    +0.000 N 
ATOM     29  H   UNL     1      -0.391  13.650  21.148  0.00  0.00    +0.000 HD
BRANCH  28  30
ATOM     30  C   UNL     1       0.356  15.557  21.652  0.00  0.00    +0.000 C 
ATOM     31  C   UNL     1      -0.666  16.529  21.044  0.00  0.00    +0.000 C 
ATOM     32  C   UNL     1      -1.135  16.031  19.677  0.00  0.00    +0.000 C 
ATOM     33  C   UNL     1       0.032  15.912  18.698  0.00  0.00    +0.000 C 
ATOM     34  C   UNL     1       1.304  15.361  19.298  0.00  0.00    +0.000 A 
ATOM     35  C   UNL     1       2.343  14.966  18.444  0.00  0.00    +0.000 A 
ATOM     36  C   UNL     1       3.559  14.521  18.960  0.00  0.00    +0.000 A 
ATOM     37  C   UNL     1       3.762  14.487  20.337  0.00  0.00    +0.000 A 
ATOM     38  C   UNL     1       2.737  14.870  21.199  0.00  0.00    +0.000 A 
ATOM     39  C   UNL     1       1.500  15.299  20.692  0.00  0.00    +0.000 A 
ENDBRANCH  28  30
ENDBRANCH   1  26
TORSDOF 7
ENDMDL
MODEL 2
REMARK VINA RESULT:      -8.6      2.938      5.708
REMARK  Name = 
REMARK  7 active torsions:
REMARK  status: ('A' for Active; 'I' for Inactive)
REMARK    1  A    between atoms: C_2  and  C_24
REMARK    2  A    between atoms: N_3  and  C_4
REMARK    3  A    between atoms: C_4  and  C_5
REMARK    4  A    between atoms: C_4  and  C_18
REMARK    5  A    between atoms: N_7  and  C_8
REMARK    6  A    between atoms: C_27  and  N_28
REMARK    7  A    between atoms: N_29  and  C_30
REMARK                            x       y       z     vdW  Elec       q    Type
REMARK                         _______ _______ _______ _____ _____    ______ ____
ROOT
ATOM      1  C   UNL     1      -1.979  12.661  20.090  0.00  0.00    +0.000 C 
ENDROOT
BRANCH   1   2
ATOM      2  C   UNL     1      -2.307  13.167  21.475  0.00  0.00    +0.000 A 
ATOM      3  C   UNL     1      -2.852  12.298  22.430  0.00  0.00    +0.000 A 
ATOM      4  C   UNL     1      -3.176  12.765  23.700  0.00  0.00    +0.000 A 
ATOM      5  C   UNL     1      -2.944  14.099  23.982  0.00  0.00    +0.000 A 
ATOM      6  N   UNL     1      -2.430  14.975  23.091  0.00  0.00    +0.000 NA
ATOM      7  C   UNL     1      -2.133  14.495  21.860  0.00  0.00    +0.000 A 
ENDBRANCH   1   2
BRANCH   1  10
ATOM      8  O   UNL     1       0.616  12.410  19.076  0.00  0.00    +0.000 OA
ATOM      9  C   UNL     1       0.084  11.421  19.573  0.00  0.00    +0.000 C 
ATOM     10  N   UNL     1      -1.167  11.454  20.146  0.00  0.00    +0.000 N 
ATOM     11  H   UNL     1      -1.660  10.596  20.371  0.00  0.00    +0.000 HD
BRANCH   9  12
ATOM     12  C   UNL     1       0.772  10.105  19.519  0.00  0.00    +0.000 A 
ATOM     13  C   UNL     1       0.860   9.252  20.622  0.00  0.00    +0.000 A 
ATOM     14  C   UNL     1       1.521   8.025  20.502  0.00  0.00    +0.000 A 
ATOM     15  C   UNL     1       2.098   7.622  19.290  0.00  0.00    +0.000 A 
ATOM     16  C   UNL     1       2.029   8.499  18.198  0.00  0.00    +0.000 A 
ATOM     17  C   UNL     1       1.371   9.728  18.310  0.00  0.00    +0.000 A 
BRANCH  15  18
ATOM     18  N   UNL     1       2.744   6.369  19.257  0.00  0.00    +0.000 NA
ATOM     19  N   UNL     1       2.132   5.523  18.572  0.00  0.00    +0.000 NA
BRANCH  19  20
ATOM     20  C   UNL     1       2.727   4.244  18.641  0.00  0.00    +0.000 A 
ATOM     21  C   UNL     1       2.341   3.290  17.691  0.00  0.00    +0.000 A 
ATOM     22  C   UNL     1       2.877   2.000  17.706  0.00  0.00    +0.000 A 
ATOM     23  C   UNL     1       3.816   1.648  18.672  0.00  0.00    +0.000 A 
ATOM     24  C   UNL     1       4.230   2.589  19.612  0.00  0.00    +0.000 A 
ATOM     25  C   UNL     1       3.694   3.880  19.592  0.00  0.00    +0.000 A 
ENDBRANCH  19  20
ENDBRANCH  15  18
ENDBRANCH   9  12
ENDBRANCH   1  10
BRANCH   1  26
ATOM     26  C   UNL     1      -3.218  12.373  19.211  0.00  0.00    +0.000 C 
ATOM     27  O   UNL     1      -3.146  11.768  18.141  0.00  0.00    +0.000 OA
ATOM     28  N   UNL     1      -4.396  12.846  19.735  0.00  0.00    +0.000 N 
ATOM     29  H   UNL     1      -4.368  13.388  20.590  0.00  0.00    +0.000 HD
BRANCH  28  30
ATOM     30  C   UNL     1      -5.664  12.843  19.018  0.00  0.00    +0.000 C 
ATOM     31  C   UNL     1      -6.448  14.135  19.292  0.00  0.00    +0.000 C 
ATOM     32  C   UNL     1      -6.856  14.216  20.763  0.00  0.00    +0.000 C 
ATOM     33  C   UNL     1      -7.746  13.038  21.159  0.00  0.00    +0.000 C 
ATOM     34  C   UNL     1      -7.334  11.711  20.568  0.00  0.00    +0.000 A 
ATOM     35  C   UNL     1      -7.913  10.536  21.069  0.00  0.00    +0.000 A 
ATOM     36  C   UNL     1      -7.614   9.298  20.503  0.00  0.00    +0.000 A 
ATOM     37  C   UNL     1      -6.751   9.218  19.413  0.00  0.00    +0.000 A 
ATOM     38  C   UNL     1      -6.162  10.376  18.909  0.00  0.00    +0.000 A 
ATOM     39  C   UNL     1      -6.438  11.627  19.485  0.00  0.00    +0.000 A 
ENDBRANCH  28  30
ENDBRANCH   1  26
TORSDOF 7
ENDMDL
MODEL 3
REMARK VINA RESULT:      -8.6      0.511      1.414
REMARK  Name = 
REMARK  7 active torsions:
REMARK  status: ('A' for Active; 'I' for Inactive)
REMARK    1  A    between atoms: C_2  and  C_24
REMARK    2  A    between atoms: N_3  and  C_4
REMARK    3  A    between atoms: C_4  and  C_5
REMARK    4  A    between atoms: C_4  and  C_18
REMARK    5  A    between atoms: N_7  and  C_8
REMARK    6  A    between atoms: C_27  and  N_28
REMARK    7  A    between atoms: N_29  and  C_30
REMARK                            x       y       z     vdW  Elec       q    Type
REMARK                         _______ _______ _______ _____ _____    ______ ____
ROOT
ATOM      1  C   UNL     1      -1.961  12.376  22.908  0.00  0.00    +0.000 C 
ENDROOT
BRANCH   1   2
ATOM      2  C   UNL     1      -3.396  12.647  22.520  0.00  0.00    +0.000 A 
ATOM      3  C   UNL     1      -3.755  12.730  21.168  0.00  0.00    +0.000 A 
ATOM      4  C   UNL     1      -5.071  13.001  20.806  0.00  0.00    +0.000 A 
ATOM      5  C   UNL     1      -5.999  13.185  21.815  0.00  0.00    +0.000 A 
ATOM      6  N   UNL     1      -5.697  13.124  23.131  0.00  0.00    +0.000 NA
ATOM      7  C   UNL     1      -4.408  12.868  23.453  0.00  0.00    +0.000 A 
ENDBRANCH   1   2
BRANCH   1  10
ATOM      8  O   UNL     1      -0.183  10.319  23.565  0.00  0.00    +0.000 OA
ATOM      9  C   UNL     1      -0.417  10.534  22.379  0.00  0.00    +0.000 C 
ATOM     10  N   UNL     1      -1.315  11.486  21.954  0.00  0.00    +0.000 N 
ATOM     11  H   UNL     1      -1.346  11.777  20.983  0.00  0.00    +0.000 HD
BRANCH   9  12
ATOM     12  C   UNL     1       0.329   9.789  21.331  0.00  0.00    +0.000 A 
ATOM     13  C   UNL     1       0.941   8.556  21.572  0.00  0.00    +0.000 A 
ATOM     14  C   UNL     1       1.627   7.906  20.540  0.00  0.00    +0.000 A 
ATOM     15  C   UNL     1       1.712   8.463  19.256  0.00  0.00    +0.000 A 
ATOM     16  C   UNL     1       1.120   9.714  19.035  0.00  0.00    +0.000 A 
ATOM     17  C   UNL     1       0.433  10.371  20.061  0.00  0.00    +0.000 A 
BRANCH  15  18
ATOM     18  N   UNL     1       2.422   7.740  18.275  0.00  0.00    +0.000 NA
ATOM     19  N   UNL     1       2.900   6.671  18.709  0.00  0.00    +0.000 NA
BRANCH  19  20
ATOM     20  C   UNL     1       3.702   6.014  17.750  0.00  0.00    +0.000 A 
ATOM     21  C   UNL     1       4.548   6.799  16.956  0.00  0.00    +0.000 A 
ATOM     22  C   UNL     1       5.360   6.221  15.977  0.00  0.00    +0.000 A 
ATOM     23  C   UNL     1       5.341   4.842  15.784  0.00  0.00    +0.000 A 
ATOM     24  C   UNL     1       4.524   4.041  16.577  0.00  0.00    +0.000 A 
ATOM     25  C   UNL     1       3.715   4.623  17.558  0.00  0.00    +0.000 A 
ENDBRANCH  19  20
ENDBRANCH  15  18
ENDBRANCH   9  12
ENDBRANCH   1  10
BRANCH   1  26
ATOM     26  C   UNL     1      -1.093  13.647  23.053  0.00  0.00    +0.000 C 
ATOM     27  O   UNL     1      -0.881  14.184  24.140  0.00  0.00    +0.000 OA
ATOM     28  N   UNL     1      -0.580  14.110  21.867  0.00  0.00    +0.000 N 
ATOM     29  H   UNL     1      -0.848  13.650  21.005  0.00  0.00    +0.000 HD
BRANCH  28  30
ATOM     30  C   UNL     1       0.127  15.376  21.726  0.00  0.00    +0.000 C 
ATOM     31  C   UNL     1      -0.804  16.459  21.159  0.00  0.00    +0.000 C 
ATOM     32  C   UNL     1      -1.227  16.112  19.732  0.00  0.00    +0.000 C 
ATOM     33  C   UNL     1      -0.017  16.005  18.804  0.00  0.00    +0.000 C 
ATOM     34  C   UNL     1       1.186  15.326  19.413  0.00  0.00    +0.000 A 
ATOM     35  C   UNL     1       2.245  14.942  18.578  0.00  0.00    +0.000 A 
ATOM     36  C   UNL     1       3.403  14.378  19.110  0.00  0.00    +0.000 A 
ATOM     37  C   UNL     1       3.531  14.213  20.487  0.00  0.00    +0.000 A 
ATOM     38  C   UNL     1       2.484  14.584  21.330  0.00  0.00    +0.000 A 
ATOM     39  C   UNL     1       1.303  15.131  20.803  0.00  0.00    +0.000 A 
ENDBRANCH  28  30
ENDBRANCH   1  26
TORSDOF 7
ENDMDL
MODEL 4
REMARK VINA RESULT:      -8.0      2.217      5.483
REMARK  Name = 
REMARK  7 active torsions:
REMARK  status: ('A' for Active; 'I' for Inactive)
REMARK    1  A    between atoms: C_2  and  C_24
REMARK    2  A    between atoms: N_3  and  C_4
REMARK    3  A    between atoms: C_4  and  C_5
REMARK    4  A    between atoms: C_4  and  C_18
REMARK    5  A    between atoms: N_7  and  C_8
REMARK    6  A    between atoms: C_27  and  N_28
REMARK    7  A    between atoms: N_29  and  C_30
REMARK                            x       y       z     vdW  Elec       q    Type
REMARK                         _______ _______ _______ _____ _____    ______ ____
ROOT
ATOM      1  C   UNL     1       0.869  14.003  19.471  0.00  0.00    +0.000 C 
ENDROOT
BRANCH   1   2
ATOM      2  C   UNL     1       1.821  14.977  18.816  0.00  0.00    +0.000 A 
ATOM      3  C   UNL     1       3.002  14.514  18.221  0.00  0.00    +0.000 A 
ATOM      4  C   UNL     1       3.892  15.410  17.637  0.00  0.00    +0.000 A 
ATOM      5  C   UNL     1       3.574  16.755  17.665  0.00  0.00    +0.000 A 
ATOM      6  N   UNL     1       2.453  17.249  18.236  0.00  0.00    +0.000 NA
ATOM      7  C   UNL     1       1.610  16.355  18.805  0.00  0.00    +0.000 A 
ENDBRANCH   1   2
BRANCH   1  10
ATOM      8  O   UNL     1      -0.787  11.758  19.273  0.00  0.00    +0.000 OA
ATOM      9  C   UNL     1       0.429  11.589  19.274  0.00  0.00    +0.000 C 
ATOM     10  N   UNL     1       1.328  12.630  19.314  0.00  0.00    +0.000 N 
ATOM     11  H   UNL     1       2.309  12.464  19.511  0.00  0.00    +0.000 HD
BRANCH   9  12
ATOM     12  C   UNL     1       0.984  10.211  19.292  0.00  0.00    +0.000 A 
ATOM     13  C   UNL     1       1.543   9.607  18.163  0.00  0.00    +0.000 A 
ATOM     14  C   UNL     1       2.050   8.305  18.248  0.00  0.00    +0.000 A 
ATOM     15  C   UNL     1       2.017   7.587  19.452  0.00  0.00    +0.000 A 
ATOM     16  C   UNL     1       1.428   8.193  20.570  0.00  0.00    +0.000 A 
ATOM     17  C   UNL     1       0.917   9.493  20.493  0.00  0.00    +0.000 A 
BRANCH  15  18
ATOM     18  N   UNL     1       2.551   6.282  19.449  0.00  0.00    +0.000 NA
ATOM     19  N   UNL     1       2.327   5.666  18.387  0.00  0.00    +0.000 NA
BRANCH  19  20
ATOM     20  C   UNL     1       2.767   4.325  18.441  0.00  0.00    +0.000 A 
ATOM     21  C   UNL     1       3.861   4.028  19.263  0.00  0.00    +0.000 A 
ATOM     22  C   UNL     1       4.361   2.726  19.357  0.00  0.00    +0.000 A 
ATOM     23  C   UNL     1       3.764   1.699  18.631  0.00  0.00    +0.000 A 
ATOM     24  C   UNL     1       2.661   1.969  17.825  0.00  0.00    +0.000 A 
ATOM     25  C   UNL     1       2.162   3.272  17.737  0.00  0.00    +0.000 A 
ENDBRANCH  19  20
ENDBRANCH  15  18
ENDBRANCH   9  12
ENDBRANCH   1  10
BRANCH   1  26
ATOM     26  C   UNL     1       0.627  14.267  20.974  0.00  0.00    +0.000 C 
ATOM     27  O   UNL     1       1.545  14.349  21.790  0.00  0.00    +0.000 OA
ATOM     28  N   UNL     1      -0.698  14.407  21.309  0.00  0.00    +0.000 N 
ATOM     29  H   UNL     1      -1.401  14.266  20.594  0.00  0.00    +0.000 HD
BRANCH  28  30
ATOM     30  C   UNL     1      -1.185  14.496  22.679  0.00  0.00    +0.000 C 
ATOM     31  C   UNL     1      -1.342  13.097  23.293  0.00  0.00    +0.000 C 
ATOM     32  C   UNL     1      -2.431  12.309  22.565  0.00  0.00    +0.000 C 
ATOM     33  C   UNL     1      -3.784  13.013  22.658  0.00  0.00    +0.000 C 
ATOM     34  C   UNL     1      -3.724  14.515  22.513  0.00  0.00    +0.000 A 
ATOM     35  C   UNL     1      -4.916  15.227  22.319  0.00  0.00    +0.000 A 
ATOM     36  C   UNL     1      -4.911  16.619  22.252  0.00  0.00    +0.000 A 
ATOM     37  C   UNL     1      -3.718  17.321  22.403  0.00  0.00    +0.000 A 
ATOM     38  C   UNL     1      -2.524  16.627  22.589  0.00  0.00    +0.000 A 
ATOM     39  C   UNL     1      -2.513  15.224  22.634  0.00  0.00    +0.000 A 
ENDBRANCH  28  30
ENDBRANCH   1  26
TORSDOF 7
ENDMDL
MODEL 5
REMARK VINA RESULT:      -7.9      3.012      5.922
REMARK  Name = 
REMARK  7 active torsions:
REMARK  status: ('A' for Active; 'I' for Inactive)
REMARK    1  A    between atoms: C_2  and  C_24
REMARK    2  A    between atoms: N_3  and  C_4
REMARK    3  A    between atoms: C_4  and  C_5
REMARK    4  A    between atoms: C_4  and  C_18
REMARK    5  A    between atoms: N_7  and  C_8
REMARK    6  A    between atoms: C_27  and  N_28
REMARK    7  A    between atoms: N_29  and  C_30
REMARK                            x       y       z     vdW  Elec       q    Type
REMARK                         _______ _______ _______ _____ _____    ______ ____
ROOT
ATOM      1  C   UNL     1      -1.962  12.391  19.201  0.00  0.00    +0.000 C 
ENDROOT
BRANCH   1   2
ATOM      2  C   UNL     1      -2.232  13.112  20.501  0.00  0.00    +0.000 A 
ATOM      3  C   UNL     1      -1.823  14.442  20.666  0.00  0.00    +0.000 A 
ATOM      4  C   UNL     1      -2.049  15.102  21.869  0.00  0.00    +0.000 A 
ATOM      5  C   UNL     1      -2.684  14.408  22.883  0.00  0.00    +0.000 A 
ATOM      6  N   UNL     1      -3.087  13.123  22.773  0.00  0.00    +0.000 NA
ATOM      7  C   UNL     1      -2.845  12.503  21.595  0.00  0.00    +0.000 A 
ENDBRANCH   1   2
BRANCH   1  10
ATOM      8  O   UNL     1       0.819  12.100  19.121  0.00  0.00    +0.000 OA
ATOM      9  C   UNL     1       0.132  11.102  19.317  0.00  0.00    +0.000 C 
ATOM     10  N   UNL     1      -1.239  11.147  19.426  0.00  0.00    +0.000 N 
ATOM     11  H   UNL     1      -1.793  10.298  19.392  0.00  0.00    +0.000 HD
BRANCH   9  12
ATOM     12  C   UNL     1       0.775   9.764  19.386  0.00  0.00    +0.000 A 
ATOM     13  C   UNL     1       1.322   9.130  18.268  0.00  0.00    +0.000 A 
ATOM     14  C   UNL     1       1.916   7.869  18.403  0.00  0.00    +0.000 A 
ATOM     15  C   UNL     1       1.981   7.223  19.645  0.00  0.00    +0.000 A 
ATOM     16  C   UNL     1       1.402   7.856  20.754  0.00  0.00    +0.000 A 
ATOM     17  C   UNL     1       0.807   9.115  20.627  0.00  0.00    +0.000 A 
BRANCH  15  18
ATOM     18  N   UNL     1       2.598   5.956  19.691  0.00  0.00    +0.000 NA
ATOM     19  N   UNL     1       2.588   5.369  18.589  0.00  0.00    +0.000 NA
BRANCH  19  20
ATOM     20  C   UNL     1       3.105   4.057  18.675  0.00  0.00    +0.000 A 
ATOM     21  C   UNL     1       4.035   3.786  19.686  0.00  0.00    +0.000 A 
ATOM     22  C   UNL     1       4.600   2.515  19.824  0.00  0.00    +0.000 A 
ATOM     23  C   UNL     1       4.234   1.493  18.953  0.00  0.00    +0.000 A 
ATOM     24  C   UNL     1       3.293   1.736  17.954  0.00  0.00    +0.000 A 
ATOM     25  C   UNL     1       2.728   3.008  17.821  0.00  0.00    +0.000 A 
ENDBRANCH  19  20
ENDBRANCH  15  18
ENDBRANCH   9  12
ENDBRANCH   1  10
BRANCH   1  26
ATOM     26  C   UNL     1      -3.230  12.073  18.376  0.00  0.00    +0.000 C 
ATOM     27  O   UNL     1      -3.183  11.678  17.212  0.00  0.00    +0.000 OA
ATOM     28  N   UNL     1      -4.404  12.265  19.064  0.00  0.00    +0.000 N 
ATOM     29  H   UNL     1      -4.366  12.650  20.000  0.00  0.00    +0.000 HD
BRANCH  28  30
ATOM     30  C   UNL     1      -5.725  12.192  18.453  0.00  0.00    +0.000 C 
ATOM     31  C   UNL     1      -6.417  13.562  18.488  0.00  0.00    +0.000 C 
ATOM     32  C   UNL     1      -6.700  13.986  19.929  0.00  0.00    +0.000 C 
ATOM     33  C   UNL     1      -7.614  12.985  20.634  0.00  0.00    +0.000 C 
ATOM     34  C   UNL     1      -7.319  11.536  20.325  0.00  0.00    +0.000 A 
ATOM     35  C   UNL     1      -7.914  10.539  21.111  0.00  0.00    +0.000 A 
ATOM     36  C   UNL     1      -7.725   9.190  20.813  0.00  0.00    +0.000 A 
ATOM     37  C   UNL     1      -6.958   8.820  19.711  0.00  0.00    +0.000 A 
ATOM     38  C   UNL     1      -6.355   9.799  18.925  0.00  0.00    +0.000 A 
ATOM     39  C   UNL     1      -6.519  11.160  19.228  0.00  0.00    +0.000 A 
ENDBRANCH  28  30
ENDBRANCH   1  26
TORSDOF 7
ENDMDL
MODEL 6
REMARK VINA RESULT:      -7.9      2.273      5.414
REMARK  Name = 
REMARK  7 active torsions:
REMARK  status: ('A' for Active; 'I' for Inactive)
REMARK    1  A    between atoms: C_2  and  C_24
REMARK    2  A    between atoms: N_3  and  C_4
REMARK    3  A    between atoms: C_4  and  C_5
REMARK    4  A    between atoms: C_4  and  C_18
REMARK    5  A    between atoms: N_7  and  C_8
REMARK    6  A    between atoms: C_27  and  N_28
REMARK    7  A    between atoms: N_29  and  C_30
REMARK                            x       y       z     vdW  Elec       q    Type
REMARK                         _______ _______ _______ _____ _____    ______ ____
ROOT
ATOM      1  C   UNL     1       1.017  13.897  19.574  0.00  0.00    +0.000 C 
ENDROOT
BRANCH   1   2
ATOM      2  C   UNL     1       1.921  14.945  18.969  0.00  0.00    +0.000 A 
ATOM      3  C   UNL     1       3.009  14.562  18.173  0.00  0.00    +0.000 A 
ATOM      4  C   UNL     1       3.857  15.523  17.632  0.00  0.00    +0.000 A 
ATOM      5  C   UNL     1       3.592  16.853  17.906  0.00  0.00    +0.000 A 
ATOM      6  N   UNL     1       2.562  17.269  18.675  0.00  0.00    +0.000 NA
ATOM      7  C   UNL     1       1.759  16.311  19.195  0.00  0.00    +0.000 A 
ENDBRANCH   1   2
BRANCH   1  10
ATOM      8  O   UNL     1      -0.595  11.611  19.528  0.00  0.00    +0.000 OA
ATOM      9  C   UNL     1       0.604  11.486  19.296  0.00  0.00    +0.000 C 
ATOM     10  N   UNL     1       1.471  12.553  19.243  0.00  0.00    +0.000 N 
ATOM     11  H   UNL     1       2.475  12.410  19.246  0.00  0.00    +0.000 HD
BRANCH   9  12
ATOM     12  C   UNL     1       1.185  10.129  19.118  0.00  0.00    +0.000 A 
ATOM     13  C   UNL     1       1.796   9.719  17.931  0.00  0.00    +0.000 A 
ATOM     14  C   UNL     1       2.325   8.428  17.830  0.00  0.00    +0.000 A 
ATOM     15  C   UNL     1       2.262   7.527  18.902  0.00  0.00    +0.000 A 
ATOM     16  C   UNL     1       1.620   7.940  20.078  0.00  0.00    +0.000 A 
ATOM     17  C   UNL     1       1.088   9.229  20.187  0.00  0.00    +0.000 A 
BRANCH  15  18
ATOM     18  N   UNL     1       2.821   6.247  18.715  0.00  0.00    +0.000 NA
ATOM     19  N   UNL     1       2.027   5.323  18.991  0.00  0.00    +0.000 NA
BRANCH  19  20
ATOM     20  C   UNL     1       2.635   4.051  18.909  0.00  0.00    +0.000 A 
ATOM     21  C   UNL     1       2.286   3.227  17.831  0.00  0.00    +0.000 A 
ATOM     22  C   UNL     1       2.836   1.950  17.692  0.00  0.00    +0.000 A 
ATOM     23  C   UNL     1       3.752   1.482  18.630  0.00  0.00    +0.000 A 
ATOM     24  C   UNL     1       4.130   2.294  19.696  0.00  0.00    +0.000 A 
ATOM     25  C   UNL     1       3.580   3.573  19.831  0.00  0.00    +0.000 A 
ENDBRANCH  19  20
ENDBRANCH  15  18
ENDBRANCH   9  12
ENDBRANCH   1  10
BRANCH   1  26
ATOM     26  C   UNL     1       0.870  13.996  21.110  0.00  0.00    +0.000 C 
ATOM     27  O   UNL     1       1.839  14.027  21.868  0.00  0.00    +0.000 OA
ATOM     28  N   UNL     1      -0.432  14.053  21.542  0.00  0.00    +0.000 N 
ATOM     29  H   UNL     1      -1.178  13.961  20.863  0.00  0.00    +0.000 HD
BRANCH  28  30
ATOM     30  C   UNL     1      -0.828  13.984  22.943  0.00  0.00    +0.000 C 
ATOM     31  C   UNL     1      -1.462  12.622  23.262  0.00  0.00    +0.000 C 
ATOM     32  C   UNL     1      -2.775  12.447  22.500  0.00  0.00    +0.000 C 
ATOM     33  C   UNL     1      -3.785  13.531  22.875  0.00  0.00    +0.000 C 
ATOM     34  C   UNL     1      -3.195  14.911  23.042  0.00  0.00    +0.000 A 
ATOM     35  C   UNL     1      -4.058  16.013  23.123  0.00  0.00    +0.000 A 
ATOM     36  C   UNL     1      -3.557  17.294  23.350  0.00  0.00    +0.000 A 
ATOM     37  C   UNL     1      -2.189  17.489  23.522  0.00  0.00    +0.000 A 
ATOM     38  C   UNL     1      -1.318  16.404  23.437  0.00  0.00    +0.000 A 
ATOM     39  C   UNL     1      -1.808  15.112  23.186  0.00  0.00    +0.000 A 
ENDBRANCH  28  30
ENDBRANCH   1  26
TORSDOF 7
ENDMDL
MODEL 7
REMARK VINA RESULT:      -7.9      2.814      5.556
REMARK  Name = 
REMARK  7 active torsions:
REMARK  status: ('A' for Active; 'I' for Inactive)
REMARK    1  A    between atoms: C_2  and  C_24
REMARK    2  A    between atoms: N_3  and  C_4
REMARK    3  A    between atoms: C_4  and  C_5
REMARK    4  A    between atoms: C_4  and  C_18
REMARK    5  A    between atoms: N_7  and  C_8
REMARK    6  A    between atoms: C_27  and  N_28
REMARK    7  A    between atoms: N_29  and  C_30
REMARK                            x       y       z     vdW  Elec       q    Type
REMARK                         _______ _______ _______ _____ _____    ______ ____
ROOT
ATOM      1  C   UNL     1      -1.687  13.120  20.244  0.00  0.00    +0.000 C 
ENDROOT
BRANCH   1   2
ATOM      2  C   UNL     1      -1.081  14.205  21.103  0.00  0.00    +0.000 A 
ATOM      3  C   UNL     1      -1.091  15.536  20.665  0.00  0.00    +0.000 A 
ATOM      4  C   UNL     1      -0.515  16.535  21.442  0.00  0.00    +0.000 A 
ATOM      5  C   UNL     1       0.061  16.173  22.646  0.00  0.00    +0.000 A 
ATOM      6  N   UNL     1       0.103  14.902  23.105  0.00  0.00    +0.000 NA
ATOM      7  C   UNL     1      -0.457  13.950  22.322  0.00  0.00    +0.000 A 
ENDBRANCH   1   2
BRANCH   1  10
ATOM      8  O   UNL     1       0.507  12.489  18.627  0.00  0.00    +0.000 OA
ATOM      9  C   UNL     1       0.124  11.656  19.444  0.00  0.00    +0.000 C 
ATOM     10  N   UNL     1      -0.911  11.890  20.321  0.00  0.00    +0.000 N 
ATOM     11  H   UNL     1      -1.333  11.130  20.844  0.00  0.00    +0.000 HD
BRANCH   9  12
ATOM     12  C   UNL     1       0.747  10.307  19.474  0.00  0.00    +0.000 A 
ATOM     13  C   UNL     1       0.768   9.509  20.620  0.00  0.00    +0.000 A 
ATOM     14  C   UNL     1       1.370   8.247  20.579  0.00  0.00    +0.000 A 
ATOM     15  C   UNL     1       1.955   7.755  19.404  0.00  0.00    +0.000 A 
ATOM     16  C   UNL     1       1.954   8.577  18.268  0.00  0.00    +0.000 A 
ATOM     17  C   UNL     1       1.355   9.841  18.301  0.00  0.00    +0.000 A 
BRANCH  15  18
ATOM     18  N   UNL     1       2.539   6.473  19.451  0.00  0.00    +0.000 NA
ATOM     19  N   UNL     1       2.353   5.814  18.406  0.00  0.00    +0.000 NA
BRANCH  19  20
ATOM     20  C   UNL     1       2.843   4.493  18.511  0.00  0.00    +0.000 A 
ATOM     21  C   UNL     1       2.226   3.504  17.735  0.00  0.00    +0.000 A 
ATOM     22  C   UNL     1       2.647   2.173  17.796  0.00  0.00    +0.000 A 
ATOM     23  C   UNL     1       3.701   1.815  18.633  0.00  0.00    +0.000 A 
ATOM     24  C   UNL     1       4.342   2.788  19.396  0.00  0.00    +0.000 A 
ATOM     25  C   UNL     1       3.920   4.119  19.330  0.00  0.00    +0.000 A 
ENDBRANCH  19  20
ENDBRANCH  15  18
ENDBRANCH   9  12
ENDBRANCH   1  10
BRANCH   1  26
ATOM     26  C   UNL     1      -3.158  12.788  20.585  0.00  0.00    +0.000 C 
ATOM     27  O   UNL     1      -3.539  12.568  21.734  0.00  0.00    +0.000 OA
ATOM     28  N   UNL     1      -3.993  12.772  19.494  0.00  0.00    +0.000 N 
ATOM     29  H   UNL     1      -3.595  12.903  18.572  0.00  0.00    +0.000 HD
BRANCH  28  30
ATOM     30  C   UNL     1      -5.379  12.326  19.538  0.00  0.00    +0.000 C 
ATOM     31  C   UNL     1      -5.689  11.393  18.358  0.00  0.00    +0.000 C 
ATOM     32  C   UNL     1      -5.586  12.149  17.033  0.00  0.00    +0.000 C 
ATOM     33  C   UNL     1      -6.575  13.313  16.978  0.00  0.00    +0.000 C 
ATOM     34  C   UNL     1      -6.713  14.083  18.270  0.00  0.00    +0.000 A 
ATOM     35  C   UNL     1      -7.382  15.315  18.257  0.00  0.00    +0.000 A 
ATOM     36  C   UNL     1      -7.594  16.022  19.440  0.00  0.00    +0.000 A 
ATOM     37  C   UNL     1      -7.161  15.497  20.655  0.00  0.00    +0.000 A 
ATOM     38  C   UNL     1      -6.487  14.277  20.682  0.00  0.00    +0.000 A 
ATOM     39  C   UNL     1      -6.248  13.567  19.495  0.00  0.00    +0.000 A 
ENDBRANCH  28  30
ENDBRANCH   1  26
TORSDOF 7
ENDMDL
MODEL 8
REMARK VINA RESULT:      -7.9      1.691      2.630
REMARK  Name = 
REMARK  7 active torsions:
REMARK  status: ('A' for Active; 'I' for Inactive)
REMARK    1  A    between atoms: C_2  and  C_24
REMARK    2  A    between atoms: N_3  and  C_4
REMARK    3  A    between atoms: C_4  and  C_5
REMARK    4  A    between atoms: C_4  and  C_18
REMARK    5  A    between atoms: N_7  and  C_8
REMARK    6  A    between atoms: C_27  and  N_28
REMARK    7  A    between atoms: N_29  and  C_30
REMARK                            x       y       z     vdW  Elec       q    Type
REMARK                         _______ _______ _______ _____ _____    ______ ____
ROOT
ATOM      1  C   UNL     1      -0.756  12.307  21.942  0.00  0.00    +0.000 C 
ENDROOT
BRANCH   1   2
ATOM      2  C   UNL     1      -2.233  12.401  21.637  0.00  0.00    +0.000 A 
ATOM      3  C   UNL     1      -2.671  12.524  20.312  0.00  0.00    +0.000 A 
ATOM      4  C   UNL     1      -4.029  12.632  20.028  0.00  0.00    +0.000 A 
ATOM      5  C   UNL     1      -4.918  12.616  21.087  0.00  0.00    +0.000 A 
ATOM      6  N   UNL     1      -4.542  12.509  22.380  0.00  0.00    +0.000 NA
ATOM      7  C   UNL     1      -3.214  12.415  22.627  0.00  0.00    +0.000 A 
ENDBRANCH   1   2
BRANCH   1  10
ATOM      8  O   UNL     1      -0.564   9.540  22.299  0.00  0.00    +0.000 OA
ATOM      9  C   UNL     1      -0.007  10.044  21.328  0.00  0.00    +0.000 C 
ATOM     10  N   UNL     1      -0.086  11.387  21.035  0.00  0.00    +0.000 N 
ATOM     11  H   UNL     1       0.533  11.808  20.351  0.00  0.00    +0.000 HD
BRANCH   9  12
ATOM     12  C   UNL     1       0.843   9.205  20.444  0.00  0.00    +0.000 A 
ATOM     13  C   UNL     1       1.393   7.989  20.857  0.00  0.00    +0.000 A 
ATOM     14  C   UNL     1       2.183   7.246  19.973  0.00  0.00    +0.000 A 
ATOM     15  C   UNL     1       2.435   7.692  18.668  0.00  0.00    +0.000 A 
ATOM     16  C   UNL     1       1.902   8.928  18.275  0.00  0.00    +0.000 A 
ATOM     17  C   UNL     1       1.112   9.677  19.153  0.00  0.00    +0.000 A 
BRANCH  15  18
ATOM     18  N   UNL     1       3.241   6.880  17.844  0.00  0.00    +0.000 NA
ATOM     19  N   UNL     1       4.178   6.334  18.463  0.00  0.00    +0.000 NA
BRANCH  19  20
ATOM     20  C   UNL     1       5.042   5.618  17.606  0.00  0.00    +0.000 A 
ATOM     21  C   UNL     1       6.345   5.366  18.053  0.00  0.00    +0.000 A 
ATOM     22  C   UNL     1       7.261   4.676  17.254  0.00  0.00    +0.000 A 
ATOM     23  C   UNL     1       6.879   4.220  15.995  0.00  0.00    +0.000 A 
ATOM     24  C   UNL     1       5.581   4.440  15.541  0.00  0.00    +0.000 A 
ATOM     25  C   UNL     1       4.667   5.128  16.345  0.00  0.00    +0.000 A 
ENDBRANCH  19  20
ENDBRANCH  15  18
ENDBRANCH   9  12
ENDBRANCH   1  10
BRANCH   1  26
ATOM     26  C   UNL     1      -0.012  13.662  21.897  0.00  0.00    +0.000 C 
ATOM     27  O   UNL     1       1.214  13.747  21.949  0.00  0.00    +0.000 OA
ATOM     28  N   UNL     1      -0.843  14.750  21.786  0.00  0.00    +0.000 N 
ATOM     29  H   UNL     1      -1.845  14.605  21.810  0.00  0.00    +0.000 HD
BRANCH  28  30
ATOM     30  C   UNL     1      -0.391  16.131  21.890  0.00  0.00    +0.000 C 
ATOM     31  C   UNL     1      -1.283  16.925  22.856  0.00  0.00    +0.000 C 
ATOM     32  C   UNL     1      -2.704  17.042  22.304  0.00  0.00    +0.000 C 
ATOM     33  C   UNL     1      -2.719  17.764  20.957  0.00  0.00    +0.000 C 
ATOM     34  C   UNL     1      -1.585  17.394  20.031  0.00  0.00    +0.000 A 
ATOM     35  C   UNL     1      -1.648  17.790  18.688  0.00  0.00    +0.000 A 
ATOM     36  C   UNL     1      -0.588  17.531  17.819  0.00  0.00    +0.000 A 
ATOM     37  C   UNL     1       0.558  16.894  18.286  0.00  0.00    +0.000 A 
ATOM     38  C   UNL     1       0.633  16.488  19.617  0.00  0.00    +0.000 A 
ATOM     39  C   UNL     1      -0.437  16.722  20.496  0.00  0.00    +0.000 A 
ENDBRANCH  28  30
ENDBRANCH   1  26
TORSDOF 7
ENDMDL
MODEL 9
REMARK VINA RESULT:      -7.8      2.267      5.361
REMARK  Name = 
REMARK  7 active torsions:
REMARK  status: ('A' for Active; 'I' for Inactive)
REMARK    1  A    between atoms: C_2  and  C_24
REMARK    2  A    between atoms: N_3  and  C_4
REMARK    3  A    between atoms: C_4  and  C_5
REMARK    4  A    between atoms: C_4  and  C_18
REMARK    5  A    between atoms: N_7  and  C_8
REMARK    6  A    between atoms: C_27  and  N_28
REMARK    7  A    between atoms: N_29  and  C_30
REMARK                            x       y       z     vdW  Elec       q    Type
REMARK                         _______ _______ _______ _____ _____    ______ ____
ROOT
ATOM      1  C   UNL     1       0.944  13.866  19.813  0.00  0.00    +0.000 C 
ENDROOT
BRANCH   1   2
ATOM      2  C   UNL     1       1.898  14.857  19.190  0.00  0.00    +0.000 A 
ATOM      3  C   UNL     1       1.427  16.097  18.736  0.00  0.00    +0.000 A 
ATOM      4  C   UNL     1       2.298  17.004  18.141  0.00  0.00    +0.000 A 
ATOM      5  C   UNL     1       3.627  16.643  18.013  0.00  0.00    +0.000 A 
ATOM      6  N   UNL     1       4.124  15.457  18.427  0.00  0.00    +0.000 NA
ATOM      7  C   UNL     1       3.252  14.590  18.994  0.00  0.00    +0.000 A 
ENDBRANCH   1   2
BRANCH   1  10
ATOM      8  O   UNL     1      -0.667  11.673  19.168  0.00  0.00    +0.000 OA
ATOM      9  C   UNL     1       0.529  11.481  19.368  0.00  0.00    +0.000 C 
ATOM     10  N   UNL     1       1.414  12.499  19.640  0.00  0.00    +0.000 N 
ATOM     11  H   UNL     1       2.344  12.300  19.990  0.00  0.00    +0.000 HD
BRANCH   9  12
ATOM     12  C   UNL     1       1.063  10.094  19.381  0.00  0.00    +0.000 A 
ATOM     13  C   UNL     1       1.589   9.476  18.244  0.00  0.00    +0.000 A 
ATOM     14  C   UNL     1       2.079   8.168  18.326  0.00  0.00    +0.000 A 
ATOM     15  C   UNL     1       2.059   7.456  19.533  0.00  0.00    +0.000 A 
ATOM     16  C   UNL     1       1.502   8.076  20.660  0.00  0.00    +0.000 A 
ATOM     17  C   UNL     1       1.010   9.383  20.587  0.00  0.00    +0.000 A 
BRANCH  15  18
ATOM     18  N   UNL     1       2.574   6.143  19.526  0.00  0.00    +0.000 NA
ATOM     19  N   UNL     1       2.363   5.543  18.452  0.00  0.00    +0.000 NA
BRANCH  19  20
ATOM     20  C   UNL     1       2.781   4.194  18.499  0.00  0.00    +0.000 A 
ATOM     21  C   UNL     1       3.440   3.754  19.654  0.00  0.00    +0.000 A 
ATOM     22  C   UNL     1       3.896   2.438  19.767  0.00  0.00    +0.000 A 
ATOM     23  C   UNL     1       3.689   1.539  18.724  0.00  0.00    +0.000 A 
ATOM     24  C   UNL     1       3.015   1.950  17.577  0.00  0.00    +0.000 A 
ATOM     25  C   UNL     1       2.559   3.267  17.468  0.00  0.00    +0.000 A 
ENDBRANCH  19  20
ENDBRANCH  15  18
ENDBRANCH   9  12
ENDBRANCH   1  10
BRANCH   1  26
ATOM     26  C   UNL     1       0.679  14.102  21.318  0.00  0.00    +0.000 C 
ATOM     27  O   UNL     1       1.564  14.446  22.101  0.00  0.00    +0.000 OA
ATOM     28  N   UNL     1      -0.627  13.899  21.693  0.00  0.00    +0.000 N 
ATOM     29  H   UNL     1      -1.285  13.557  21.004  0.00  0.00    +0.000 HD
BRANCH  28  30
ATOM     30  C   UNL     1      -1.085  13.898  23.076  0.00  0.00    +0.000 C 
ATOM     31  C   UNL     1      -1.821  12.591  23.404  0.00  0.00    +0.000 C 
ATOM     32  C   UNL     1      -3.109  12.479  22.589  0.00  0.00    +0.000 C 
ATOM     33  C   UNL     1      -4.060  13.637  22.889  0.00  0.00    +0.000 C 
ATOM     34  C   UNL     1      -3.388  14.980  23.044  0.00  0.00    +0.000 A 
ATOM     35  C   UNL     1      -4.178  16.138  23.057  0.00  0.00    +0.000 A 
ATOM     36  C   UNL     1      -3.603  17.390  23.270  0.00  0.00    +0.000 A 
ATOM     37  C   UNL     1      -2.234  17.500  23.498  0.00  0.00    +0.000 A 
ATOM     38  C   UNL     1      -1.434  16.359  23.481  0.00  0.00    +0.000 A 
ATOM     39  C   UNL     1      -1.998  15.095  23.244  0.00  0.00    +0.000 A 
ENDBRANCH  28  30
ENDBRANCH   1  26
TORSDOF 7
ENDMDL
