MODEL 1
REMARK VINA RESULT:      -6.5      0.000      0.000
REMARK  Name = 
REMARK  3 active torsions:
REMARK  status: ('A' for Active; 'I' for Inactive)
REMARK    1  A    between atoms: C_1  and  C_2
REMARK    2  A    between atoms: N_4  and  C_5
REMARK    3  A    between atoms: C_8  and  C_9
REMARK                            x       y       z     vdW  Elec       q    Type
REMARK                         _______ _______ _______ _____ _____    ______ ____
ROOT
ATOM      1  C   UNL     1       5.692   4.531  15.189  0.00  0.00    +0.000 A 
ATOM      2  C   UNL     1       5.614   5.921  15.341  0.00  0.00    +0.000 A 
ATOM      3  C   UNL     1       4.845   6.487  16.353  0.00  0.00    +0.000 A 
ATOM      4  C   UNL     1       4.110   5.681  17.242  0.00  0.00    +0.000 A 
ATOM      5  C   UNL     1       4.177   4.282  17.083  0.00  0.00    +0.000 A 
ATOM      6  C   UNL     1       4.959   3.713  16.074  0.00  0.00    +0.000 A 
ENDROOT
BRANCH   4   7
ATOM      7  C   UNL     1       3.271   6.347  18.290  0.00  0.00    +0.000 C 
ATOM      8  O   UNL     1       3.124   5.773  19.358  0.00  0.00    +0.000 OA
ATOM      9  N   UNL     1       2.689   7.571  18.092  0.00  0.00    +0.000 N 
ATOM     10  C   UNL     1       1.942   8.248  19.094  0.00  0.00    +0.000 A 
ATOM     11  N   UNL     1       1.849   7.843  20.380  0.00  0.00    +0.000 NA
ATOM     12  C   UNL     1       1.099   8.695  21.124  0.00  0.00    +0.000 A 
ATOM     13  C   UNL     1       0.585   9.782  20.428  0.00  0.00    +0.000 A 
ATOM     14  S   UNL     1       1.102   9.679  18.829  0.00  0.00    +0.000 S 
ATOM     15  H   UNL     1       2.768   8.044  17.185  0.00  0.00    +0.000 HD
ENDBRANCH   4   7
BRANCH   1  19
ATOM     16  C   UNL     1       7.043   3.129  11.842  0.00  0.00    +0.000 C 
ATOM     17  C   UNL     1       6.027   3.616  12.837  0.00  0.00    +0.000 C 
ATOM     18  N   UNL     1       4.773   3.591  12.556  0.00  0.00    +0.000 NA
ATOM     19  N   UNL     1       6.493   4.019  14.126  0.00  0.00    +0.000 N 
ATOM     20  H   UNL     1       4.417   3.262  11.645  0.00  0.00    +0.000 HD
ATOM     21  H   UNL     1       7.484   3.823  14.332  0.00  0.00    +0.000 HD
ENDBRANCH   1  19
TORSDOF 2
ENDMDL
MODEL 2
REMARK VINA RESULT:      -6.4      2.762      8.258
REMARK  Name = 
REMARK  3 active torsions:
REMARK  status: ('A' for Active; 'I' for Inactive)
REMARK    1  A    between atoms: C_1  and  C_2
REMARK    2  A    between atoms: N_4  and  C_5
REMARK    3  A    between atoms: C_8  and  C_9
REMARK                            x       y       z     vdW  Elec       q    Type
REMARK                         _______ _______ _______ _____ _____    ______ ____
ROOT
ATOM      1  C   UNL     1       0.696   9.700  19.904  0.00  0.00    +0.000 A 
ATOM      2  C   UNL     1       1.195   8.612  20.629  0.00  0.00    +0.000 A 
ATOM      3  C   UNL     1       1.987   7.646  20.015  0.00  0.00    +0.000 A 
ATOM      4  C   UNL     1       2.295   7.726  18.644  0.00  0.00    +0.000 A 
ATOM      5  C   UNL     1       1.783   8.815  17.909  0.00  0.00    +0.000 A 
ATOM      6  C   UNL     1       0.998   9.791  18.530  0.00  0.00    +0.000 A 
ENDROOT
BRANCH   4   7
ATOM      7  C   UNL     1       3.123   6.639  18.029  0.00  0.00    +0.000 C 
ATOM      8  O   UNL     1       2.586   5.564  17.809  0.00  0.00    +0.000 OA
ATOM      9  N   UNL     1       4.438   6.822  17.696  0.00  0.00    +0.000 N 
ATOM     10  C   UNL     1       5.223   5.825  17.054  0.00  0.00    +0.000 A 
ATOM     11  N   UNL     1       4.733   4.662  16.571  0.00  0.00    +0.000 NA
ATOM     12  C   UNL     1       5.699   3.914  15.980  0.00  0.00    +0.000 A 
ATOM     13  C   UNL     1       6.969   4.480  15.998  0.00  0.00    +0.000 A 
ATOM     14  S   UNL     1       6.872   5.975  16.766  0.00  0.00    +0.000 S 
ATOM     15  H   UNL     1       4.913   7.704  17.915  0.00  0.00    +0.000 HD
ENDBRANCH   4   7
BRANCH   1  19
ATOM     16  C   UNL     1      -0.704  12.771  21.802  0.00  0.00    +0.000 C 
ATOM     17  C   UNL     1       0.320  11.898  21.133  0.00  0.00    +0.000 C 
ATOM     18  N   UNL     1       1.561  12.235  21.124  0.00  0.00    +0.000 NA
ATOM     19  N   UNL     1      -0.115  10.649  20.595  0.00  0.00    +0.000 N 
ATOM     20  H   UNL     1       1.897  13.114  21.547  0.00  0.00    +0.000 HD
ATOM     21  H   UNL     1      -1.083  10.370  20.818  0.00  0.00    +0.000 HD
ENDBRANCH   1  19
TORSDOF 2
ENDMDL
MODEL 3
REMARK VINA RESULT:      -6.3      0.190      1.155
REMARK  Name = 
REMARK  3 active torsions:
REMARK  status: ('A' for Active; 'I' for Inactive)
REMARK    1  A    between atoms: C_1  and  C_2
REMARK    2  A    between atoms: N_4  and  C_5
REMARK    3  A    between atoms: C_8  and  C_9
REMARK                            x       y       z     vdW  Elec       q    Type
REMARK                         _______ _______ _______ _____ _____    ______ ____
ROOT
ATOM      1  C   UNL     1       5.667   4.498  15.119  0.00  0.00    +0.000 A 
ATOM      2  C   UNL     1       4.929   3.724  16.022  0.00  0.00    +0.000 A 
ATOM      3  C   UNL     1       4.162   4.322  17.017  0.00  0.00    +0.000 A 
ATOM      4  C   UNL     1       4.119   5.722  17.156  0.00  0.00    +0.000 A 
ATOM      5  C   UNL     1       4.872   6.504  16.256  0.00  0.00    +0.000 A 
ATOM      6  C   UNL     1       5.633   5.902  15.249  0.00  0.00    +0.000 A 
ENDROOT
BRANCH   4   7
ATOM      7  C   UNL     1       3.304   6.310  18.267  0.00  0.00    +0.000 C 
ATOM      8  O   UNL     1       3.209   5.675  19.306  0.00  0.00    +0.000 OA
ATOM      9  N   UNL     1       2.689   7.528  18.157  0.00  0.00    +0.000 N 
ATOM     10  C   UNL     1       1.963   8.132  19.220  0.00  0.00    +0.000 A 
ATOM     11  N   UNL     1       1.926   7.656  20.485  0.00  0.00    +0.000 NA
ATOM     12  C   UNL     1       1.185   8.448  21.300  0.00  0.00    +0.000 A 
ATOM     13  C   UNL     1       0.622   9.559  20.682  0.00  0.00    +0.000 A 
ATOM     14  S   UNL     1       1.083   9.554  19.063  0.00  0.00    +0.000 S 
ATOM     15  H   UNL     1       2.724   8.051  17.275  0.00  0.00    +0.000 HD
ENDBRANCH   4   7
BRANCH   1  19
ATOM     16  C   UNL     1       6.993   2.802  11.901  0.00  0.00    +0.000 C 
ATOM     17  C   UNL     1       6.013   3.498  12.804  0.00  0.00    +0.000 C 
ATOM     18  N   UNL     1       4.809   3.720  12.414  0.00  0.00    +0.000 NA
ATOM     19  N   UNL     1       6.438   3.819  14.129  0.00  0.00    +0.000 N 
ATOM     20  H   UNL     1       4.475   3.455  11.474  0.00  0.00    +0.000 HD
ATOM     21  H   UNL     1       7.348   3.432  14.421  0.00  0.00    +0.000 HD
ENDBRANCH   1  19
TORSDOF 2
ENDMDL
MODEL 4
REMARK VINA RESULT:      -6.3      2.746      8.147
REMARK  Name = 
REMARK  3 active torsions:
REMARK  status: ('A' for Active; 'I' for Inactive)
REMARK    1  A    between atoms: C_1  and  C_2
REMARK    2  A    between atoms: N_4  and  C_5
REMARK    3  A    between atoms: C_8  and  C_9
REMARK                            x       y       z     vdW  Elec       q    Type
REMARK                         _______ _______ _______ _____ _____    ______ ____
ROOT
ATOM      1  C   UNL     1       0.720   9.672  19.868  0.00  0.00    +0.000 A 
ATOM      2  C   UNL     1       1.033   9.684  18.504  0.00  0.00    +0.000 A 
ATOM      3  C   UNL     1       1.791   8.666  17.935  0.00  0.00    +0.000 A 
ATOM      4  C   UNL     1       2.280   7.602  18.717  0.00  0.00    +0.000 A 
ATOM      5  C   UNL     1       1.976   7.594  20.094  0.00  0.00    +0.000 A 
ATOM      6  C   UNL     1       1.204   8.612  20.662  0.00  0.00    +0.000 A 
ENDROOT
BRANCH   4   7
ATOM      7  C   UNL     1       3.121   6.552  18.057  0.00  0.00    +0.000 C 
ATOM      8  O   UNL     1       2.601   5.477  17.803  0.00  0.00    +0.000 OA
ATOM      9  N   UNL     1       4.431   6.770  17.721  0.00  0.00    +0.000 N 
ATOM     10  C   UNL     1       5.227   5.810  17.039  0.00  0.00    +0.000 A 
ATOM     11  N   UNL     1       4.754   4.656  16.519  0.00  0.00    +0.000 NA
ATOM     12  C   UNL     1       5.728   3.946  15.895  0.00  0.00    +0.000 A 
ATOM     13  C   UNL     1       6.987   4.533  15.923  0.00  0.00    +0.000 A 
ATOM     14  S   UNL     1       6.871   5.998  16.744  0.00  0.00    +0.000 S 
ATOM     15  H   UNL     1       4.892   7.652  17.968  0.00  0.00    +0.000 HD
ENDBRANCH   4   7
BRANCH   1  19
ATOM     16  C   UNL     1      -0.539  13.014  21.364  0.00  0.00    +0.000 C 
ATOM     17  C   UNL     1       0.452  11.989  20.889  0.00  0.00    +0.000 C 
ATOM     18  N   UNL     1       1.714  12.196  21.009  0.00  0.00    +0.000 NA
ATOM     19  N   UNL     1      -0.055  10.751  20.387  0.00  0.00    +0.000 N 
ATOM     20  H   UNL     1       2.096  13.067  21.410  0.00  0.00    +0.000 HD
ATOM     21  H   UNL     1      -1.067  10.592  20.507  0.00  0.00    +0.000 HD
ENDBRANCH   1  19
TORSDOF 2
ENDMDL
MODEL 5
REMARK VINA RESULT:      -6.2      2.739      8.320
REMARK  Name = 
REMARK  3 active torsions:
REMARK  status: ('A' for Active; 'I' for Inactive)
REMARK    1  A    between atoms: C_1  and  C_2
REMARK    2  A    between atoms: N_4  and  C_5
REMARK    3  A    between atoms: C_8  and  C_9
REMARK                            x       y       z     vdW  Elec       q    Type
REMARK                         _______ _______ _______ _____ _____    ______ ____
ROOT
ATOM      1  C   UNL     1       0.683   9.197  20.263  0.00  0.00    +0.000 A 
ATOM      2  C   UNL     1       1.054   7.973  20.831  0.00  0.00    +0.000 A 
ATOM      3  C   UNL     1       1.882   7.089  20.146  0.00  0.00    +0.000 A 
ATOM      4  C   UNL     1       2.358   7.392  18.856  0.00  0.00    +0.000 A 
ATOM      5  C   UNL     1       1.975   8.619  18.277  0.00  0.00    +0.000 A 
ATOM      6  C   UNL     1       1.152   9.512  18.971  0.00  0.00    +0.000 A 
ENDROOT
BRANCH   4   7
ATOM      7  C   UNL     1       3.218   6.387  18.152  0.00  0.00    +0.000 C 
ATOM      8  O   UNL     1       2.719   5.312  17.856  0.00  0.00    +0.000 OA
ATOM      9  N   UNL     1       4.521   6.645  17.822  0.00  0.00    +0.000 N 
ATOM     10  C   UNL     1       5.335   5.730  17.099  0.00  0.00    +0.000 A 
ATOM     11  N   UNL     1       4.884   4.589  16.533  0.00  0.00    +0.000 NA
ATOM     12  C   UNL     1       5.870   3.925  15.879  0.00  0.00    +0.000 A 
ATOM     13  C   UNL     1       7.117   4.536  15.927  0.00  0.00    +0.000 A 
ATOM     14  S   UNL     1       6.974   5.964  16.808  0.00  0.00    +0.000 S 
ATOM     15  H   UNL     1       4.965   7.525  18.103  0.00  0.00    +0.000 HD
ENDBRANCH   4   7
BRANCH   1  19
ATOM     16  C   UNL     1      -1.057  11.295  23.013  0.00  0.00    +0.000 C 
ATOM     17  C   UNL     1      -0.065  10.339  22.411  0.00  0.00    +0.000 C 
ATOM     18  N   UNL     1       0.799   9.742  23.152  0.00  0.00    +0.000 NA
ATOM     19  N   UNL     1      -0.175  10.051  21.017  0.00  0.00    +0.000 N 
ATOM     20  H   UNL     1       0.863   9.907  24.169  0.00  0.00    +0.000 HD
ATOM     21  H   UNL     1      -1.013  10.420  20.541  0.00  0.00    +0.000 HD
ENDBRANCH   1  19
TORSDOF 2
ENDMDL
MODEL 6
REMARK VINA RESULT:      -6.2      1.925      2.761
REMARK  Name = 
REMARK  3 active torsions:
REMARK  status: ('A' for Active; 'I' for Inactive)
REMARK    1  A    between atoms: C_1  and  C_2
REMARK    2  A    between atoms: N_4  and  C_5
REMARK    3  A    between atoms: C_8  and  C_9
REMARK                            x       y       z     vdW  Elec       q    Type
REMARK                         _______ _______ _______ _____ _____    ______ ____
ROOT
ATOM      1  C   UNL     1       4.379   5.547  16.945  0.00  0.00    +0.000 A 
ATOM      2  C   UNL     1       4.146   6.927  16.998  0.00  0.00    +0.000 A 
ATOM      3  C   UNL     1       3.359   7.481  18.003  0.00  0.00    +0.000 A 
ATOM      4  C   UNL     1       2.761   6.670  18.986  0.00  0.00    +0.000 A 
ATOM      5  C   UNL     1       2.984   5.279  18.927  0.00  0.00    +0.000 A 
ATOM      6  C   UNL     1       3.784   4.724  17.923  0.00  0.00    +0.000 A 
ENDROOT
BRANCH   4   7
ATOM      7  C   UNL     1       1.896   7.318  20.023  0.00  0.00    +0.000 C 
ATOM      8  O   UNL     1       1.514   6.634  20.960  0.00  0.00    +0.000 OA
ATOM      9  N   UNL     1       1.543   8.639  19.959  0.00  0.00    +0.000 N 
ATOM     10  C   UNL     1       0.775   9.288  20.965  0.00  0.00    +0.000 A 
ATOM     11  N   UNL     1       0.441   8.729  22.149  0.00  0.00    +0.000 NA
ATOM     12  C   UNL     1      -0.267   9.585  22.929  0.00  0.00    +0.000 A 
ATOM     13  C   UNL     1      -0.504  10.832  22.362  0.00  0.00    +0.000 A 
ATOM     14  S   UNL     1       0.211  10.866  20.838  0.00  0.00    +0.000 S 
ATOM     15  H   UNL     1       1.820   9.214  19.156  0.00  0.00    +0.000 HD
ENDBRANCH   4   7
BRANCH   1  19
ATOM     16  C   UNL     1       7.266   4.618  14.539  0.00  0.00    +0.000 C 
ATOM     17  C   UNL     1       6.590   5.262  15.716  0.00  0.00    +0.000 C 
ATOM     18  N   UNL     1       7.244   6.047  16.496  0.00  0.00    +0.000 NA
ATOM     19  N   UNL     1       5.188   5.046  15.883  0.00  0.00    +0.000 N 
ATOM     20  H   UNL     1       8.247   6.248  16.363  0.00  0.00    +0.000 HD
ATOM     21  H   UNL     1       4.707   4.567  15.107  0.00  0.00    +0.000 HD
ENDBRANCH   1  19
TORSDOF 2
ENDMDL
MODEL 7
REMARK VINA RESULT:      -6.2      4.318      7.721
REMARK  Name = 
REMARK  3 active torsions:
REMARK  status: ('A' for Active; 'I' for Inactive)
REMARK    1  A    between atoms: C_1  and  C_2
REMARK    2  A    between atoms: N_4  and  C_5
REMARK    3  A    between atoms: C_8  and  C_9
REMARK                            x       y       z     vdW  Elec       q    Type
REMARK                         _______ _______ _______ _____ _____    ______ ____
ROOT
ATOM      1  C   UNL     1       1.112   9.889  19.047  0.00  0.00    +0.000 A 
ATOM      2  C   UNL     1       1.101   9.097  20.201  0.00  0.00    +0.000 A 
ATOM      3  C   UNL     1       1.739   7.861  20.227  0.00  0.00    +0.000 A 
ATOM      4  C   UNL     1       2.399   7.362  19.089  0.00  0.00    +0.000 A 
ATOM      5  C   UNL     1       2.401   8.152  17.921  0.00  0.00    +0.000 A 
ATOM      6  C   UNL     1       1.770   9.399  17.899  0.00  0.00    +0.000 A 
ENDROOT
BRANCH   4   7
ATOM      7  C   UNL     1       3.039   6.009  19.164  0.00  0.00    +0.000 C 
ATOM      8  O   UNL     1       4.073   5.898  19.803  0.00  0.00    +0.000 OA
ATOM      9  N   UNL     1       2.493   4.908  18.559  0.00  0.00    +0.000 N 
ATOM     10  C   UNL     1       3.049   3.605  18.670  0.00  0.00    +0.000 A 
ATOM     11  N   UNL     1       4.072   3.279  19.491  0.00  0.00    +0.000 NA
ATOM     12  C   UNL     1       4.377   1.959  19.417  0.00  0.00    +0.000 A 
ATOM     13  C   UNL     1       3.598   1.227  18.528  0.00  0.00    +0.000 A 
ATOM     14  S   UNL     1       2.480   2.270  17.823  0.00  0.00    +0.000 S 
ATOM     15  H   UNL     1       1.648   4.996  17.983  0.00  0.00    +0.000 HD
ENDBRANCH   4   7
BRANCH   1  19
ATOM     16  C   UNL     1      -1.476  12.765  18.903  0.00  0.00    +0.000 C 
ATOM     17  C   UNL     1      -0.941  11.367  18.766  0.00  0.00    +0.000 C 
ATOM     18  N   UNL     1      -1.682  10.427  18.296  0.00  0.00    +0.000 NA
ATOM     19  N   UNL     1       0.432  11.142  19.087  0.00  0.00    +0.000 N 
ATOM     20  H   UNL     1      -2.663  10.584  18.018  0.00  0.00    +0.000 HD
ATOM     21  H   UNL     1       1.000  11.983  19.268  0.00  0.00    +0.000 HD
ENDBRANCH   1  19
TORSDOF 2
ENDMDL
MODEL 8
REMARK VINA RESULT:      -6.2      5.406      6.495
REMARK  Name = 
REMARK  3 active torsions:
REMARK  status: ('A' for Active; 'I' for Inactive)
REMARK    1  A    between atoms: C_1  and  C_2
REMARK    2  A    between atoms: N_4  and  C_5
REMARK    3  A    between atoms: C_8  and  C_9
REMARK                            x       y       z     vdW  Elec       q    Type
REMARK                         _______ _______ _______ _____ _____    ______ ____
ROOT
ATOM      1  C   UNL     1       6.172   4.788  17.978  0.00  0.00    +0.000 A 
ATOM      2  C   UNL     1       5.763   5.829  17.137  0.00  0.00    +0.000 A 
ATOM      3  C   UNL     1       6.430   7.051  17.136  0.00  0.00    +0.000 A 
ATOM      4  C   UNL     1       7.524   7.281  17.991  0.00  0.00    +0.000 A 
ATOM      5  C   UNL     1       7.930   6.237  18.849  0.00  0.00    +0.000 A 
ATOM      6  C   UNL     1       7.267   5.006  18.841  0.00  0.00    +0.000 A 
ENDROOT
BRANCH   4   7
ATOM      7  C   UNL     1       8.181   8.627  17.972  0.00  0.00    +0.000 C 
ATOM      8  O   UNL     1       8.215   9.234  16.913  0.00  0.00    +0.000 OA
ATOM      9  N   UNL     1       8.720   9.193  19.097  0.00  0.00    +0.000 N 
ATOM     10  C   UNL     1       9.292  10.495  19.114  0.00  0.00    +0.000 A 
ATOM     11  N   UNL     1       9.236  11.366  18.083  0.00  0.00    +0.000 NA
ATOM     12  C   UNL     1       9.836  12.545  18.385  0.00  0.00    +0.000 A 
ATOM     13  C   UNL     1      10.380  12.613  19.663  0.00  0.00    +0.000 A 
ATOM     14  S   UNL     1      10.084  11.151  20.442  0.00  0.00    +0.000 S 
ATOM     15  H   UNL     1       8.737   8.676  19.983  0.00  0.00    +0.000 HD
ENDBRANCH   4   7
BRANCH   1  19
ATOM     16  C   UNL     1       3.621   1.917  18.470  0.00  0.00    +0.000 C 
ATOM     17  C   UNL     1       4.264   3.258  18.685  0.00  0.00    +0.000 C 
ATOM     18  N   UNL     1       3.810   4.064  19.578  0.00  0.00    +0.000 NA
ATOM     19  N   UNL     1       5.439   3.565  17.934  0.00  0.00    +0.000 N 
ATOM     20  H   UNL     1       2.988   3.839  20.160  0.00  0.00    +0.000 HD
ATOM     21  H   UNL     1       5.844   2.790  17.387  0.00  0.00    +0.000 HD
ENDBRANCH   1  19
TORSDOF 2
ENDMDL
MODEL 9
REMARK VINA RESULT:      -6.1      7.093      8.828
REMARK  Name = 
REMARK  3 active torsions:
REMARK  status: ('A' for Active; 'I' for Inactive)
REMARK    1  A    between atoms: C_1  and  C_2
REMARK    2  A    between atoms: N_4  and  C_5
REMARK    3  A    between atoms: C_8  and  C_9
REMARK                            x       y       z     vdW  Elec       q    Type
REMARK                         _______ _______ _______ _____ _____    ______ ____
ROOT
ATOM      1  C   UNL     1       9.543  12.846  18.199  0.00  0.00    +0.000 A 
ATOM      2  C   UNL     1      10.242  11.834  18.867  0.00  0.00    +0.000 A 
ATOM      3  C   UNL     1       9.806  10.513  18.819  0.00  0.00    +0.000 A 
ATOM      4  C   UNL     1       8.641  10.159  18.113  0.00  0.00    +0.000 A 
ATOM      5  C   UNL     1       7.929  11.179  17.449  0.00  0.00    +0.000 A 
ATOM      6  C   UNL     1       8.374  12.504  17.488  0.00  0.00    +0.000 A 
ENDROOT
BRANCH   4   7
ATOM      7  C   UNL     1       8.200   8.727  18.125  0.00  0.00    +0.000 C 
ATOM      8  O   UNL     1       8.742   7.966  18.912  0.00  0.00    +0.000 OA
ATOM      9  N   UNL     1       7.209   8.260  17.303  0.00  0.00    +0.000 N 
ATOM     10  C   UNL     1       6.733   6.921  17.343  0.00  0.00    +0.000 A 
ATOM     11  N   UNL     1       7.087   6.013  18.278  0.00  0.00    +0.000 NA
ATOM     12  C   UNL     1       6.456   4.826  18.093  0.00  0.00    +0.000 A 
ATOM     13  C   UNL     1       5.599   4.783  17.000  0.00  0.00    +0.000 A 
ATOM     14  S   UNL     1       5.622   6.291  16.251  0.00  0.00    +0.000 S 
ATOM     15  H   UNL     1       6.776   8.877  16.607  0.00  0.00    +0.000 HD
ENDBRANCH   4   7
BRANCH   1  19
ATOM     16  C   UNL     1      11.224  16.282  17.598  0.00  0.00    +0.000 C 
ATOM     17  C   UNL     1      10.822  14.861  17.314  0.00  0.00    +0.000 C 
ATOM     18  N   UNL     1      11.241  14.262  16.257  0.00  0.00    +0.000 NA
ATOM     19  N   UNL     1      10.041  14.179  18.296  0.00  0.00    +0.000 N 
ATOM     20  H   UNL     1      11.843  14.728  15.560  0.00  0.00    +0.000 HD
ATOM     21  H   UNL     1       9.915  14.667  19.196  0.00  0.00    +0.000 HD
ENDBRANCH   1  19
TORSDOF 2
ENDMDL
