MODEL 1
REMARK VINA RESULT:      -6.0      0.000      0.000
REMARK  Name = 
REMARK  10 active torsions:
REMARK  status: ('A' for Active; 'I' for Inactive)
REMARK    1  A    between atoms: C_1  and  C_2
REMARK    2  A    between atoms: C_2  and  C_3
REMARK    3  A    between atoms: C_3  and  C_4
REMARK    4  A    between atoms: C_3  and  N_5
REMARK    5  A    between atoms: N_5  and  C_6
REMARK    6  A    between atoms: N_5  and  C_7
REMARK    7  A    between atoms: C_7  and  C_8
REMARK    8  A    between atoms: C_8  and  C_9
REMARK    9  A    between atoms: N_11  and  C_12
REMARK   10  A    between atoms: C_15  and  C_16
REMARK                            x       y       z     vdW  Elec       q    Type
REMARK                         _______ _______ _______ _____ _____    ______ ____
ROOT
ATOM      1  C   UNL     1       2.736   6.156  18.794  0.00  0.00    +0.000 C 
ATOM      2  O   UNL     1       2.211   6.843  17.921  0.00  0.00    +0.000 OA
ATOM      3  N   UNL     1       3.891   5.412  18.656  0.00  0.00    +0.000 N 
ATOM      4  H   UNL     1       4.160   4.847  19.464  0.00  0.00    +0.000 HD
ENDROOT
BRANCH   3   5
ATOM      5  C   UNL     1       4.677   5.273  17.503  0.00  0.00    +0.000 A 
ATOM      6  C   UNL     1       4.410   4.323  16.521  0.00  0.00    +0.000 A 
ATOM      7  C   UNL     1       5.226   4.213  15.395  0.00  0.00    +0.000 A 
ATOM      8  C   UNL     1       6.328   5.058  15.238  0.00  0.00    +0.000 A 
ATOM      9  C   UNL     1       6.596   6.019  16.223  0.00  0.00    +0.000 A 
ATOM     10  C   UNL     1       5.764   6.137  17.342  0.00  0.00    +0.000 A 
BRANCH   8  11
ATOM     11  C   UNL     1       7.235   4.985  14.058  0.00  0.00    +0.000 C 
ATOM     12  N   UNL     1       6.930   4.104  13.057  0.00  0.00    +0.000 N 
ATOM     13  O   UNL     1       8.236   5.687  13.973  0.00  0.00    +0.000 OA
ATOM     14  H   UNL     1       6.107   3.523  13.022  0.00  0.00    +0.000 HD
ATOM     15  H   UNL     1       7.548   4.092  12.256  0.00  0.00    +0.000 HD
ENDBRANCH   8  11
ENDBRANCH   3   5
BRANCH   1  16
ATOM     16  C   UNL     1       2.118   6.124  20.181  0.00  0.00    +0.000 C 
BRANCH  16  17
ATOM     17  C   UNL     1       1.398   4.822  20.535  0.00  0.00    +0.000 C 
BRANCH  17  18
ATOM     18  N   UNL     1       1.713   3.688  19.628  0.00  0.00    +0.000 NA
ATOM     19  C   UNL     1       0.497   3.284  18.912  0.00  0.00    +0.000 C 
BRANCH  18  20
ATOM     20  C   UNL     1       2.414   2.557  20.302  0.00  0.00    +0.000 C 
ATOM     21  C   UNL     1       2.462   2.766  21.825  0.00  0.00    +0.000 C 
BRANCH  20  23
ATOM     22  C   UNL     1       3.762   1.361  18.464  0.00  0.00    +0.000 C 
ATOM     23  C   UNL     1       3.803   2.239  19.706  0.00  0.00    +0.000 C 
ENDBRANCH  20  23
ENDBRANCH  18  20
ENDBRANCH  17  18
ENDBRANCH  16  17
ENDBRANCH   1  16
TORSDOF 7
ENDMDL
MODEL 2
REMARK VINA RESULT:      -6.0      0.591      1.623
REMARK  Name = 
REMARK  10 active torsions:
REMARK  status: ('A' for Active; 'I' for Inactive)
REMARK    1  A    between atoms: C_1  and  C_2
REMARK    2  A    between atoms: C_2  and  C_3
REMARK    3  A    between atoms: C_3  and  C_4
REMARK    4  A    between atoms: C_3  and  N_5
REMARK    5  A    between atoms: N_5  and  C_6
REMARK    6  A    between atoms: N_5  and  C_7
REMARK    7  A    between atoms: C_7  and  C_8
REMARK    8  A    between atoms: C_8  and  C_9
REMARK    9  A    between atoms: N_11  and  C_12
REMARK   10  A    between atoms: C_15  and  C_16
REMARK                            x       y       z     vdW  Elec       q    Type
REMARK                         _______ _______ _______ _____ _____    ______ ____
ROOT
ATOM      1  C   UNL     1       3.086   6.113  19.118  0.00  0.00    +0.000 C 
ATOM      2  O   UNL     1       2.666   6.974  18.349  0.00  0.00    +0.000 OA
ATOM      3  N   UNL     1       4.143   5.258  18.879  0.00  0.00    +0.000 N 
ATOM      4  H   UNL     1       4.325   4.556  19.600  0.00  0.00    +0.000 HD
ENDROOT
BRANCH   3   5
ATOM      5  C   UNL     1       4.929   5.185  17.720  0.00  0.00    +0.000 A 
ATOM      6  C   UNL     1       6.132   5.873  17.583  0.00  0.00    +0.000 A 
ATOM      7  C   UNL     1       6.876   5.779  16.406  0.00  0.00    +0.000 A 
ATOM      8  C   UNL     1       6.420   4.994  15.344  0.00  0.00    +0.000 A 
ATOM      9  C   UNL     1       5.211   4.297  15.482  0.00  0.00    +0.000 A 
ATOM     10  C   UNL     1       4.478   4.379  16.671  0.00  0.00    +0.000 A 
BRANCH   8  11
ATOM     11  C   UNL     1       7.171   4.858  14.065  0.00  0.00    +0.000 C 
ATOM     12  N   UNL     1       6.806   3.863  13.200  0.00  0.00    +0.000 N 
ATOM     13  O   UNL     1       8.100   5.606  13.782  0.00  0.00    +0.000 OA
ATOM     14  H   UNL     1       6.031   3.233  13.329  0.00  0.00    +0.000 HD
ATOM     15  H   UNL     1       7.317   3.807  12.328  0.00  0.00    +0.000 HD
ENDBRANCH   8  11
ENDBRANCH   3   5
BRANCH   1  16
ATOM     16  C   UNL     1       2.440   5.964  20.485  0.00  0.00    +0.000 C 
BRANCH  16  17
ATOM     17  C   UNL     1       1.141   5.158  20.499  0.00  0.00    +0.000 C 
BRANCH  17  18
ATOM     18  N   UNL     1       1.336   3.696  20.672  0.00  0.00    +0.000 NA
ATOM     19  C   UNL     1       2.223   3.453  21.817  0.00  0.00    +0.000 C 
BRANCH  18  20
ATOM     20  C   UNL     1       1.763   2.995  19.426  0.00  0.00    +0.000 C 
ATOM     21  C   UNL     1       0.583   2.244  18.784  0.00  0.00    +0.000 C 
BRANCH  20  23
ATOM     22  C   UNL     1       3.501   1.450  18.323  0.00  0.00    +0.000 C 
ATOM     23  C   UNL     1       3.005   2.096  19.608  0.00  0.00    +0.000 C 
ENDBRANCH  20  23
ENDBRANCH  18  20
ENDBRANCH  17  18
ENDBRANCH  16  17
ENDBRANCH   1  16
TORSDOF 7
ENDMDL
MODEL 3
REMARK VINA RESULT:      -5.9      4.958      7.866
REMARK  Name = 
REMARK  10 active torsions:
REMARK  status: ('A' for Active; 'I' for Inactive)
REMARK    1  A    between atoms: C_1  and  C_2
REMARK    2  A    between atoms: C_2  and  C_3
REMARK    3  A    between atoms: C_3  and  C_4
REMARK    4  A    between atoms: C_3  and  N_5
REMARK    5  A    between atoms: N_5  and  C_6
REMARK    6  A    between atoms: N_5  and  C_7
REMARK    7  A    between atoms: C_7  and  C_8
REMARK    8  A    between atoms: C_8  and  C_9
REMARK    9  A    between atoms: N_11  and  C_12
REMARK   10  A    between atoms: C_15  and  C_16
REMARK                            x       y       z     vdW  Elec       q    Type
REMARK                         _______ _______ _______ _____ _____    ______ ____
ROOT
ATOM      1  C   UNL     1       7.754   7.834  17.916  0.00  0.00    +0.000 C 
ATOM      2  O   UNL     1       8.289   7.077  18.722  0.00  0.00    +0.000 OA
ATOM      3  N   UNL     1       6.613   7.566  17.186  0.00  0.00    +0.000 N 
ATOM      4  H   UNL     1       6.333   8.282  16.511  0.00  0.00    +0.000 HD
ENDROOT
BRANCH   3   5
ATOM      5  C   UNL     1       5.855   6.387  17.200  0.00  0.00    +0.000 A 
ATOM      6  C   UNL     1       5.773   5.533  16.103  0.00  0.00    +0.000 A 
ATOM      7  C   UNL     1       4.997   4.375  16.159  0.00  0.00    +0.000 A 
ATOM      8  C   UNL     1       4.287   4.056  17.320  0.00  0.00    +0.000 A 
ATOM      9  C   UNL     1       4.372   4.912  18.427  0.00  0.00    +0.000 A 
ATOM     10  C   UNL     1       5.166   6.063  18.373  0.00  0.00    +0.000 A 
BRANCH   8  11
ATOM     11  C   UNL     1       3.443   2.834  17.436  0.00  0.00    +0.000 C 
ATOM     12  N   UNL     1       4.003   1.704  17.963  0.00  0.00    +0.000 N 
ATOM     13  O   UNL     1       2.274   2.824  17.067  0.00  0.00    +0.000 OA
ATOM     14  H   UNL     1       4.939   1.634  18.331  0.00  0.00    +0.000 HD
ATOM     15  H   UNL     1       3.402   0.895  18.053  0.00  0.00    +0.000 HD
ENDBRANCH   8  11
ENDBRANCH   3   5
BRANCH   1  16
ATOM     16  C   UNL     1       8.342   9.217  17.698  0.00  0.00    +0.000 C 
BRANCH  16  17
ATOM     17  C   UNL     1       9.052   9.814  18.913  0.00  0.00    +0.000 C 
BRANCH  17  18
ATOM     18  N   UNL     1       9.418  11.246  18.760  0.00  0.00    +0.000 NA
ATOM     19  C   UNL     1      10.421  11.382  17.697  0.00  0.00    +0.000 C 
BRANCH  18  20
ATOM     20  C   UNL     1       9.807  11.907  20.039  0.00  0.00    +0.000 C 
ATOM     21  C   UNL     1      11.337  11.951  20.194  0.00  0.00    +0.000 C 
BRANCH  20  23
ATOM     22  C   UNL     1       8.805  12.346  22.369  0.00  0.00    +0.000 C 
ATOM     23  C   UNL     1       9.105  11.322  21.284  0.00  0.00    +0.000 C 
ENDBRANCH  20  23
ENDBRANCH  18  20
ENDBRANCH  17  18
ENDBRANCH  16  17
ENDBRANCH   1  16
TORSDOF 7
ENDMDL
MODEL 4
REMARK VINA RESULT:      -5.9      3.133      6.580
REMARK  Name = 
REMARK  10 active torsions:
REMARK  status: ('A' for Active; 'I' for Inactive)
REMARK    1  A    between atoms: C_1  and  C_2
REMARK    2  A    between atoms: C_2  and  C_3
REMARK    3  A    between atoms: C_3  and  C_4
REMARK    4  A    between atoms: C_3  and  N_5
REMARK    5  A    between atoms: N_5  and  C_6
REMARK    6  A    between atoms: N_5  and  C_7
REMARK    7  A    between atoms: C_7  and  C_8
REMARK    8  A    between atoms: C_8  and  C_9
REMARK    9  A    between atoms: N_11  and  C_12
REMARK   10  A    between atoms: C_15  and  C_16
REMARK                            x       y       z     vdW  Elec       q    Type
REMARK                         _______ _______ _______ _____ _____    ______ ____
ROOT
ATOM      1  C   UNL     1       2.621   4.924  18.181  0.00  0.00    +0.000 C 
ATOM      2  O   UNL     1       1.513   4.797  17.665  0.00  0.00    +0.000 OA
ATOM      3  N   UNL     1       3.109   6.066  18.784  0.00  0.00    +0.000 N 
ATOM      4  H   UNL     1       4.077   6.024  19.109  0.00  0.00    +0.000 HD
ENDROOT
BRANCH   3   5
ATOM      5  C   UNL     1       2.458   7.301  18.911  0.00  0.00    +0.000 A 
ATOM      6  C   UNL     1       1.798   7.686  20.076  0.00  0.00    +0.000 A 
ATOM      7  C   UNL     1       1.154   8.922  20.154  0.00  0.00    +0.000 A 
ATOM      8  C   UNL     1       1.159   9.791  19.060  0.00  0.00    +0.000 A 
ATOM      9  C   UNL     1       1.826   9.406  17.888  0.00  0.00    +0.000 A 
ATOM     10  C   UNL     1       2.487   8.174  17.820  0.00  0.00    +0.000 A 
BRANCH   8  11
ATOM     11  C   UNL     1       0.487  11.120  19.085  0.00  0.00    +0.000 C 
ATOM     12  N   UNL     1      -0.459  11.389  18.135  0.00  0.00    +0.000 N 
ATOM     13  O   UNL     1       0.769  11.966  19.927  0.00  0.00    +0.000 OA
ATOM     14  H   UNL     1      -0.784  10.740  17.436  0.00  0.00    +0.000 HD
ATOM     15  H   UNL     1      -0.917  12.289  18.189  0.00  0.00    +0.000 HD
ENDBRANCH   8  11
ENDBRANCH   3   5
BRANCH   1  16
ATOM     16  C   UNL     1       3.560   3.731  18.218  0.00  0.00    +0.000 C 
BRANCH  16  17
ATOM     17  C   UNL     1       5.048   4.081  18.179  0.00  0.00    +0.000 C 
BRANCH  17  18
ATOM     18  N   UNL     1       5.444   4.923  17.021  0.00  0.00    +0.000 NA
ATOM     19  C   UNL     1       5.267   4.161  15.779  0.00  0.00    +0.000 C 
BRANCH  18  20
ATOM     20  C   UNL     1       6.797   5.537  17.159  0.00  0.00    +0.000 C 
ATOM     21  C   UNL     1       7.821   4.507  17.663  0.00  0.00    +0.000 C 
BRANCH  20  23
ATOM     22  C   UNL     1       7.751   7.909  17.454  0.00  0.00    +0.000 C 
ATOM     23  C   UNL     1       6.811   6.839  17.989  0.00  0.00    +0.000 C 
ENDBRANCH  20  23
ENDBRANCH  18  20
ENDBRANCH  17  18
ENDBRANCH  16  17
ENDBRANCH   1  16
TORSDOF 7
ENDMDL
MODEL 5
REMARK VINA RESULT:      -5.9      2.882      5.926
REMARK  Name = 
REMARK  10 active torsions:
REMARK  status: ('A' for Active; 'I' for Inactive)
REMARK    1  A    between atoms: C_1  and  C_2
REMARK    2  A    between atoms: C_2  and  C_3
REMARK    3  A    between atoms: C_3  and  C_4
REMARK    4  A    between atoms: C_3  and  N_5
REMARK    5  A    between atoms: N_5  and  C_6
REMARK    6  A    between atoms: N_5  and  C_7
REMARK    7  A    between atoms: C_7  and  C_8
REMARK    8  A    between atoms: C_8  and  C_9
REMARK    9  A    between atoms: N_11  and  C_12
REMARK   10  A    between atoms: C_15  and  C_16
REMARK                            x       y       z     vdW  Elec       q    Type
REMARK                         _______ _______ _______ _____ _____    ______ ____
ROOT
ATOM      1  C   UNL     1       4.247   5.644  17.814  0.00  0.00    +0.000 C 
ATOM      2  O   UNL     1       5.003   6.547  17.460  0.00  0.00    +0.000 OA
ATOM      3  N   UNL     1       3.027   5.808  18.439  0.00  0.00    +0.000 N 
ATOM      4  H   UNL     1       2.550   4.949  18.724  0.00  0.00    +0.000 HD
ENDROOT
BRANCH   3   5
ATOM      5  C   UNL     1       2.418   7.015  18.808  0.00  0.00    +0.000 A 
ATOM      6  C   UNL     1       2.036   7.295  20.117  0.00  0.00    +0.000 A 
ATOM      7  C   UNL     1       1.423   8.507  20.437  0.00  0.00    +0.000 A 
ATOM      8  C   UNL     1       1.182   9.459  19.444  0.00  0.00    +0.000 A 
ATOM      9  C   UNL     1       1.570   9.181  18.125  0.00  0.00    +0.000 A 
ATOM     10  C   UNL     1       2.201   7.972  17.812  0.00  0.00    +0.000 A 
BRANCH   8  11
ATOM     11  C   UNL     1       0.530  10.769  19.727  0.00  0.00    +0.000 C 
ATOM     12  N   UNL     1      -0.806  10.899  19.468  0.00  0.00    +0.000 N 
ATOM     13  O   UNL     1       1.164  11.718  20.174  0.00  0.00    +0.000 OA
ATOM     14  H   UNL     1      -1.412  10.162  19.143  0.00  0.00    +0.000 HD
ATOM     15  H   UNL     1      -1.229  11.791  19.691  0.00  0.00    +0.000 HD
ENDBRANCH   8  11
ENDBRANCH   3   5
BRANCH   1  16
ATOM     16  C   UNL     1       4.629   4.203  17.525  0.00  0.00    +0.000 C 
BRANCH  16  17
ATOM     17  C   UNL     1       3.536   3.176  17.817  0.00  0.00    +0.000 C 
BRANCH  17  18
ATOM     18  N   UNL     1       3.358   2.871  19.259  0.00  0.00    +0.000 NA
ATOM     19  C   UNL     1       4.479   2.046  19.726  0.00  0.00    +0.000 C 
BRANCH  18  20
ATOM     20  C   UNL     1       2.019   2.304  19.594  0.00  0.00    +0.000 C 
ATOM     21  C   UNL     1       0.982   2.668  18.518  0.00  0.00    +0.000 C 
BRANCH  20  23
ATOM     22  C   UNL     1       2.172   3.893  21.613  0.00  0.00    +0.000 C 
ATOM     23  C   UNL     1       1.535   2.645  21.020  0.00  0.00    +0.000 C 
ENDBRANCH  20  23
ENDBRANCH  18  20
ENDBRANCH  17  18
ENDBRANCH  16  17
ENDBRANCH   1  16
TORSDOF 7
ENDMDL
MODEL 6
REMARK VINA RESULT:      -5.8      3.127      6.857
REMARK  Name = 
REMARK  10 active torsions:
REMARK  status: ('A' for Active; 'I' for Inactive)
REMARK    1  A    between atoms: C_1  and  C_2
REMARK    2  A    between atoms: C_2  and  C_3
REMARK    3  A    between atoms: C_3  and  C_4
REMARK    4  A    between atoms: C_3  and  N_5
REMARK    5  A    between atoms: N_5  and  C_6
REMARK    6  A    between atoms: N_5  and  C_7
REMARK    7  A    between atoms: C_7  and  C_8
REMARK    8  A    between atoms: C_8  and  C_9
REMARK    9  A    between atoms: N_11  and  C_12
REMARK   10  A    between atoms: C_15  and  C_16
REMARK                            x       y       z     vdW  Elec       q    Type
REMARK                         _______ _______ _______ _____ _____    ______ ____
ROOT
ATOM      1  C   UNL     1       2.757   5.064  17.727  0.00  0.00    +0.000 C 
ATOM      2  O   UNL     1       1.640   4.610  17.967  0.00  0.00    +0.000 OA
ATOM      3  N   UNL     1       3.192   6.342  18.014  0.00  0.00    +0.000 N 
ATOM      4  H   UNL     1       4.132   6.579  17.691  0.00  0.00    +0.000 HD
ENDROOT
BRANCH   3   5
ATOM      5  C   UNL     1       2.454   7.374  18.610  0.00  0.00    +0.000 A 
ATOM      6  C   UNL     1       2.004   8.484  17.898  0.00  0.00    +0.000 A 
ATOM      7  C   UNL     1       1.281   9.494  18.536  0.00  0.00    +0.000 A 
ATOM      8  C   UNL     1       1.002   9.406  19.902  0.00  0.00    +0.000 A 
ATOM      9  C   UNL     1       1.451   8.288  20.619  0.00  0.00    +0.000 A 
ATOM     10  C   UNL     1       2.159   7.269  19.972  0.00  0.00    +0.000 A 
BRANCH   8  11
ATOM     11  C   UNL     1       0.237  10.454  20.634  0.00  0.00    +0.000 C 
ATOM     12  N   UNL     1      -0.911  10.936  20.068  0.00  0.00    +0.000 N 
ATOM     13  O   UNL     1       0.616  10.888  21.716  0.00  0.00    +0.000 OA
ATOM     14  H   UNL     1      -1.319  10.608  19.207  0.00  0.00    +0.000 HD
ATOM     15  H   UNL     1      -1.424  11.630  20.597  0.00  0.00    +0.000 HD
ENDBRANCH   8  11
ENDBRANCH   3   5
BRANCH   1  16
ATOM     16  C   UNL     1       3.801   4.160  17.094  0.00  0.00    +0.000 C 
BRANCH  16  17
ATOM     17  C   UNL     1       5.144   4.832  16.805  0.00  0.00    +0.000 C 
BRANCH  17  18
ATOM     18  N   UNL     1       6.200   4.532  17.805  0.00  0.00    +0.000 NA
ATOM     19  C   UNL     1       5.576   4.238  19.101  0.00  0.00    +0.000 C 
BRANCH  18  20
ATOM     20  C   UNL     1       7.270   5.569  17.878  0.00  0.00    +0.000 C 
ATOM     21  C   UNL     1       7.803   5.712  19.314  0.00  0.00    +0.000 C 
BRANCH  20  23
ATOM     22  C   UNL     1       7.792   8.077  17.631  0.00  0.00    +0.000 C 
ATOM     23  C   UNL     1       6.870   6.926  17.259  0.00  0.00    +0.000 C 
ENDBRANCH  20  23
ENDBRANCH  18  20
ENDBRANCH  17  18
ENDBRANCH  16  17
ENDBRANCH   1  16
TORSDOF 7
ENDMDL
MODEL 7
REMARK VINA RESULT:      -5.8      3.078      6.280
REMARK  Name = 
REMARK  10 active torsions:
REMARK  status: ('A' for Active; 'I' for Inactive)
REMARK    1  A    between atoms: C_1  and  C_2
REMARK    2  A    between atoms: C_2  and  C_3
REMARK    3  A    between atoms: C_3  and  C_4
REMARK    4  A    between atoms: C_3  and  N_5
REMARK    5  A    between atoms: N_5  and  C_6
REMARK    6  A    between atoms: N_5  and  C_7
REMARK    7  A    between atoms: C_7  and  C_8
REMARK    8  A    between atoms: C_8  and  C_9
REMARK    9  A    between atoms: N_11  and  C_12
REMARK   10  A    between atoms: C_15  and  C_16
REMARK                            x       y       z     vdW  Elec       q    Type
REMARK                         _______ _______ _______ _____ _____    ______ ____
ROOT
ATOM      1  C   UNL     1       4.350   6.452  17.338  0.00  0.00    +0.000 C 
ATOM      2  O   UNL     1       5.228   7.241  17.681  0.00  0.00    +0.000 OA
ATOM      3  N   UNL     1       3.007   6.550  17.643  0.00  0.00    +0.000 N 
ATOM      4  H   UNL     1       2.418   5.775  17.331  0.00  0.00    +0.000 HD
ENDROOT
BRANCH   3   5
ATOM      5  C   UNL     1       2.384   7.542  18.413  0.00  0.00    +0.000 A 
ATOM      6  C   UNL     1       2.136   7.392  19.775  0.00  0.00    +0.000 A 
ATOM      7  C   UNL     1       1.501   8.403  20.499  0.00  0.00    +0.000 A 
ATOM      8  C   UNL     1       1.103   9.582  19.864  0.00  0.00    +0.000 A 
ATOM      9  C   UNL     1       1.355   9.736  18.493  0.00  0.00    +0.000 A 
ATOM     10  C   UNL     1       2.008   8.728  17.775  0.00  0.00    +0.000 A 
BRANCH   8  11
ATOM     11  C   UNL     1       0.422  10.693  20.586  0.00  0.00    +0.000 C 
ATOM     12  N   UNL     1      -0.679  11.264  20.009  0.00  0.00    +0.000 N 
ATOM     13  O   UNL     1       0.828  11.100  21.668  0.00  0.00    +0.000 OA
ATOM     14  H   UNL     1      -1.107  10.965  19.147  0.00  0.00    +0.000 HD
ATOM     15  H   UNL     1      -1.137  12.000  20.530  0.00  0.00    +0.000 HD
ENDBRANCH   8  11
ENDBRANCH   3   5
BRANCH   1  16
ATOM     16  C   UNL     1       4.721   5.268  16.462  0.00  0.00    +0.000 C 
BRANCH  16  17
ATOM     17  C   UNL     1       4.411   3.898  17.067  0.00  0.00    +0.000 C 
BRANCH  17  18
ATOM     18  N   UNL     1       3.920   3.949  18.467  0.00  0.00    +0.000 NA
ATOM     19  C   UNL     1       5.040   3.715  19.386  0.00  0.00    +0.000 C 
BRANCH  18  20
ATOM     20  C   UNL     1       2.742   3.070  18.723  0.00  0.00    +0.000 C 
ATOM     21  C   UNL     1       2.585   2.020  17.610  0.00  0.00    +0.000 C 
BRANCH  20  23
ATOM     22  C   UNL     1       1.053   3.927  20.466  0.00  0.00    +0.000 C 
ATOM     23  C   UNL     1       1.433   3.842  18.996  0.00  0.00    +0.000 C 
ENDBRANCH  20  23
ENDBRANCH  18  20
ENDBRANCH  17  18
ENDBRANCH  16  17
ENDBRANCH   1  16
TORSDOF 7
ENDMDL
MODEL 8
REMARK VINA RESULT:      -5.8      3.232      6.825
REMARK  Name = 
REMARK  10 active torsions:
REMARK  status: ('A' for Active; 'I' for Inactive)
REMARK    1  A    between atoms: C_1  and  C_2
REMARK    2  A    between atoms: C_2  and  C_3
REMARK    3  A    between atoms: C_3  and  C_4
REMARK    4  A    between atoms: C_3  and  N_5
REMARK    5  A    between atoms: N_5  and  C_6
REMARK    6  A    between atoms: N_5  and  C_7
REMARK    7  A    between atoms: C_7  and  C_8
REMARK    8  A    between atoms: C_8  and  C_9
REMARK    9  A    between atoms: N_11  and  C_12
REMARK   10  A    between atoms: C_15  and  C_16
REMARK                            x       y       z     vdW  Elec       q    Type
REMARK                         _______ _______ _______ _____ _____    ______ ____
ROOT
ATOM      1  C   UNL     1       2.847   5.258  18.526  0.00  0.00    +0.000 C 
ATOM      2  O   UNL     1       1.794   4.921  17.990  0.00  0.00    +0.000 OA
ATOM      3  N   UNL     1       3.128   6.505  19.048  0.00  0.00    +0.000 N 
ATOM      4  H   UNL     1       4.077   6.639  19.404  0.00  0.00    +0.000 HD
ENDROOT
BRANCH   3   5
ATOM      5  C   UNL     1       2.290   7.628  19.056  0.00  0.00    +0.000 A 
ATOM      6  C   UNL     1       2.037   8.386  17.915  0.00  0.00    +0.000 A 
ATOM      7  C   UNL     1       1.204   9.504  17.973  0.00  0.00    +0.000 A 
ATOM      8  C   UNL     1       0.613   9.882  19.181  0.00  0.00    +0.000 A 
ATOM      9  C   UNL     1       0.864   9.118  20.330  0.00  0.00    +0.000 A 
ATOM     10  C   UNL     1       1.685   7.987  20.264  0.00  0.00    +0.000 A 
BRANCH   8  11
ATOM     11  C   UNL     1      -0.283  11.066  19.302  0.00  0.00    +0.000 C 
ATOM     12  N   UNL     1      -0.451  11.869  18.207  0.00  0.00    +0.000 N 
ATOM     13  O   UNL     1      -0.857  11.332  20.351  0.00  0.00    +0.000 OA
ATOM     14  H   UNL     1      -0.054  11.702  17.296  0.00  0.00    +0.000 HD
ATOM     15  H   UNL     1      -1.082  12.652  18.309  0.00  0.00    +0.000 HD
ENDBRANCH   8  11
ENDBRANCH   3   5
BRANCH   1  16
ATOM     16  C   UNL     1       3.956   4.233  18.687  0.00  0.00    +0.000 C 
BRANCH  16  17
ATOM     17  C   UNL     1       4.746   3.933  17.413  0.00  0.00    +0.000 C 
BRANCH  17  18
ATOM     18  N   UNL     1       6.129   4.475  17.413  0.00  0.00    +0.000 NA
ATOM     19  C   UNL     1       6.411   5.090  18.716  0.00  0.00    +0.000 C 
BRANCH  18  20
ATOM     20  C   UNL     1       6.425   5.367  16.254  0.00  0.00    +0.000 C 
ATOM     21  C   UNL     1       5.199   6.221  15.887  0.00  0.00    +0.000 C 
BRANCH  20  23
ATOM     22  C   UNL     1       5.978   4.133  14.041  0.00  0.00    +0.000 C 
ATOM     23  C   UNL     1       7.018   4.629  15.034  0.00  0.00    +0.000 C 
ENDBRANCH  20  23
ENDBRANCH  18  20
ENDBRANCH  17  18
ENDBRANCH  16  17
ENDBRANCH   1  16
TORSDOF 7
ENDMDL
MODEL 9
REMARK VINA RESULT:      -5.8      3.271      6.765
REMARK  Name = 
REMARK  10 active torsions:
REMARK  status: ('A' for Active; 'I' for Inactive)
REMARK    1  A    between atoms: C_1  and  C_2
REMARK    2  A    between atoms: C_2  and  C_3
REMARK    3  A    between atoms: C_3  and  C_4
REMARK    4  A    between atoms: C_3  and  N_5
REMARK    5  A    between atoms: N_5  and  C_6
REMARK    6  A    between atoms: N_5  and  C_7
REMARK    7  A    between atoms: C_7  and  C_8
REMARK    8  A    between atoms: C_8  and  C_9
REMARK    9  A    between atoms: N_11  and  C_12
REMARK   10  A    between atoms: C_15  and  C_16
REMARK                            x       y       z     vdW  Elec       q    Type
REMARK                         _______ _______ _______ _____ _____    ______ ____
ROOT
ATOM      1  C   UNL     1       2.804   5.259  19.701  0.00  0.00    +0.000 C 
ATOM      2  O   UNL     1       1.743   4.933  20.231  0.00  0.00    +0.000 OA
ATOM      3  N   UNL     1       3.112   6.510  19.206  0.00  0.00    +0.000 N 
ATOM      4  H   UNL     1       4.018   6.597  18.740  0.00  0.00    +0.000 HD
ENDROOT
BRANCH   3   5
ATOM      5  C   UNL     1       2.286   7.642  19.189  0.00  0.00    +0.000 A 
ATOM      6  C   UNL     1       1.667   8.139  20.333  0.00  0.00    +0.000 A 
ATOM      7  C   UNL     1       0.843   9.264  20.266  0.00  0.00    +0.000 A 
ATOM      8  C   UNL     1       0.624   9.906  19.045  0.00  0.00    +0.000 A 
ATOM      9  C   UNL     1       1.250   9.409  17.892  0.00  0.00    +0.000 A 
ATOM     10  C   UNL     1       2.090   8.292  17.967  0.00  0.00    +0.000 A 
BRANCH   8  11
ATOM     11  C   UNL     1      -0.246  11.108  18.913  0.00  0.00    +0.000 C 
ATOM     12  N   UNL     1      -1.006  11.240  17.783  0.00  0.00    +0.000 N 
ATOM     13  O   UNL     1      -0.286  11.970  19.783  0.00  0.00    +0.000 OA
ATOM     14  H   UNL     1      -1.068  10.562  17.040  0.00  0.00    +0.000 HD
ATOM     15  H   UNL     1      -1.605  12.053  17.729  0.00  0.00    +0.000 HD
ENDBRANCH   8  11
ENDBRANCH   3   5
BRANCH   1  16
ATOM     16  C   UNL     1       3.921   4.236  19.595  0.00  0.00    +0.000 C 
BRANCH  16  17
ATOM     17  C   UNL     1       5.189   4.736  18.901  0.00  0.00    +0.000 C 
BRANCH  17  18
ATOM     18  N   UNL     1       5.000   5.084  17.470  0.00  0.00    +0.000 NA
ATOM     19  C   UNL     1       4.731   3.863  16.701  0.00  0.00    +0.000 C 
BRANCH  18  20
ATOM     20  C   UNL     1       6.102   5.917  16.904  0.00  0.00    +0.000 C 
ATOM     21  C   UNL     1       6.781   5.203  15.723  0.00  0.00    +0.000 C 
BRANCH  20  23
ATOM     22  C   UNL     1       7.771   7.741  17.617  0.00  0.00    +0.000 C 
ATOM     23  C   UNL     1       7.117   6.411  17.958  0.00  0.00    +0.000 C 
ENDBRANCH  20  23
ENDBRANCH  18  20
ENDBRANCH  17  18
ENDBRANCH  16  17
ENDBRANCH   1  16
TORSDOF 7
ENDMDL
