MODEL 1
REMARK VINA RESULT:      -8.1      0.000      0.000
REMARK  Name = 
REMARK  5 active torsions:
REMARK  status: ('A' for Active; 'I' for Inactive)
REMARK    1  A    between atoms: C_1  and  C_2
REMARK    2  A    between atoms: N_11  and  N_12
REMARK    3  A    between atoms: C_13  and  C_14
REMARK    4  A    between atoms: N_23  and  C_24
REMARK    5  A    between atoms: C_24  and  C_25
REMARK                            x       y       z     vdW  Elec       q    Type
REMARK                         _______ _______ _______ _____ _____    ______ ____
ROOT
ATOM      1  C   UNL     1       2.103   6.002  20.751  0.00  0.00    +0.000 C 
ATOM      2  C   UNL     1       1.653   7.374  20.309  0.00  0.00    +0.000 A 
ATOM      3  N   UNL     1       1.076   8.076  21.242  0.00  0.00    +0.000 NA
ATOM      4  C   UNL     1       0.708   9.327  20.889  0.00  0.00    +0.000 A 
ATOM      5  S   UNL     1       0.004  10.383  22.029  0.00  0.00    +0.000 S 
ATOM      6  C   UNL     1      -0.104  11.629  20.882  0.00  0.00    +0.000 A 
ATOM      7  C   UNL     1       0.349  11.248  19.630  0.00  0.00    +0.000 A 
ATOM      8  C   UNL     1       0.866   9.914  19.658  0.00  0.00    +0.000 A 
ATOM      9  C   UNL     1       1.520   9.142  18.614  0.00  0.00    +0.000 A 
ATOM     10  O   UNL     1       1.731   9.631  17.503  0.00  0.00    +0.000 OA
ATOM     11  N   UNL     1       1.870   7.818  19.000  0.00  0.00    +0.000 N 
ATOM     12  C   UNL     1       0.340  12.225  18.486  0.00  0.00    +0.000 C 
ATOM     13  C   UNL     1      -0.382  13.546  18.882  0.00  0.00    +0.000 C 
ATOM     14  N   UNL     1      -0.123  14.016  20.273  0.00  0.00    +0.000 NA
ATOM     15  C   UNL     1      -0.628  12.992  21.219  0.00  0.00    +0.000 C 
ENDROOT
BRANCH  11  16
ATOM     16  N   UNL     1       2.563   7.137  18.009  0.00  0.00    +0.000 NA
ATOM     17  C   UNL     1       3.836   6.920  18.065  0.00  0.00    +0.000 C 
BRANCH  17  18
ATOM     18  C   UNL     1       4.500   6.063  17.054  0.00  0.00    +0.000 A 
ATOM     19  C   UNL     1       5.146   6.634  15.951  0.00  0.00    +0.000 A 
ATOM     20  C   UNL     1       5.674   5.813  14.950  0.00  0.00    +0.000 A 
ATOM     21  C   UNL     1       5.559   4.428  15.059  0.00  0.00    +0.000 A 
ATOM     22 CL   UNL     1       6.187   3.419  13.815  0.00  0.00    +0.000 Cl
ATOM     23  C   UNL     1       4.930   3.854  16.165  0.00  0.00    +0.000 A 
ATOM     24  C   UNL     1       4.396   4.672  17.164  0.00  0.00    +0.000 A 
ENDBRANCH  17  18
ENDBRANCH  11  16
BRANCH  14  25
ATOM     25  C   UNL     1       1.317  14.299  20.450  0.00  0.00    +0.000 C 
BRANCH  25  26
ATOM     26  C   UNL     1       1.941  15.193  19.401  0.00  0.00    +0.000 A 
ATOM     27  C   UNL     1       3.039  14.736  18.650  0.00  0.00    +0.000 A 
ATOM     28  C   UNL     1       3.568  15.515  17.622  0.00  0.00    +0.000 A 
ATOM     29  C   UNL     1       3.009  16.759  17.334  0.00  0.00    +0.000 A 
ATOM     30  C   UNL     1       1.937  17.232  18.088  0.00  0.00    +0.000 A 
ATOM     31  C   UNL     1       1.408  16.455  19.121  0.00  0.00    +0.000 A 
ENDBRANCH  25  26
ENDBRANCH  14  25
TORSDOF 4
ENDMDL
MODEL 2
REMARK VINA RESULT:      -7.8      0.218      1.248
REMARK  Name = 
REMARK  5 active torsions:
REMARK  status: ('A' for Active; 'I' for Inactive)
REMARK    1  A    between atoms: C_1  and  C_2
REMARK    2  A    between atoms: N_11  and  N_12
REMARK    3  A    between atoms: C_13  and  C_14
REMARK    4  A    between atoms: N_23  and  C_24
REMARK    5  A    between atoms: C_24  and  C_25
REMARK                            x       y       z     vdW  Elec       q    Type
REMARK                         _______ _______ _______ _____ _____    ______ ____
ROOT
ATOM      1  C   UNL     1       2.063   6.209  20.838  0.00  0.00    +0.000 C 
ATOM      2  C   UNL     1       1.591   7.572  20.390  0.00  0.00    +0.000 A 
ATOM      3  N   UNL     1       1.060   8.293  21.336  0.00  0.00    +0.000 NA
ATOM      4  C   UNL     1       0.675   9.536  20.976  0.00  0.00    +0.000 A 
ATOM      5  S   UNL     1       0.027  10.616  22.127  0.00  0.00    +0.000 S 
ATOM      6  C   UNL     1      -0.139  11.838  20.962  0.00  0.00    +0.000 A 
ATOM      7  C   UNL     1       0.252  11.431  19.697  0.00  0.00    +0.000 A 
ATOM      8  C   UNL     1       0.770  10.098  19.727  0.00  0.00    +0.000 A 
ATOM      9  C   UNL     1       1.372   9.305  18.667  0.00  0.00    +0.000 A 
ATOM     10  O   UNL     1       1.528   9.771  17.538  0.00  0.00    +0.000 OA
ATOM     11  N   UNL     1       1.742   7.988  19.063  0.00  0.00    +0.000 N 
ATOM     12  C   UNL     1       0.185  12.385  18.535  0.00  0.00    +0.000 C 
ATOM     13  C   UNL     1      -0.518  13.713  18.939  0.00  0.00    +0.000 C 
ATOM     14  N   UNL     1      -0.190  14.212  20.305  0.00  0.00    +0.000 NA
ATOM     15  C   UNL     1      -0.646  13.207  21.297  0.00  0.00    +0.000 C 
ENDROOT
BRANCH  11  16
ATOM     16  N   UNL     1       2.386   7.287  18.054  0.00  0.00    +0.000 NA
ATOM     17  C   UNL     1       3.644   6.994  18.093  0.00  0.00    +0.000 C 
BRANCH  17  18
ATOM     18  C   UNL     1       4.248   6.119  17.061  0.00  0.00    +0.000 A 
ATOM     19  C   UNL     1       4.179   4.726  17.178  0.00  0.00    +0.000 A 
ATOM     20  C   UNL     1       4.845   3.914  16.256  0.00  0.00    +0.000 A 
ATOM     21  C   UNL     1       5.571   4.496  15.219  0.00  0.00    +0.000 A 
ATOM     22 CL   UNL     1       6.411   3.497  14.099  0.00  0.00    +0.000 Cl
ATOM     23  C   UNL     1       5.630   5.885  15.089  0.00  0.00    +0.000 A 
ATOM     24  C   UNL     1       4.971   6.699  16.012  0.00  0.00    +0.000 A 
ENDBRANCH  17  18
ENDBRANCH  11  16
BRANCH  14  25
ATOM     25  C   UNL     1       1.257  14.499  20.405  0.00  0.00    +0.000 C 
BRANCH  25  26
ATOM     26  C   UNL     1       1.846  15.295  19.261  0.00  0.00    +0.000 A 
ATOM     27  C   UNL     1       1.329  16.564  18.948  0.00  0.00    +0.000 A 
ATOM     28  C   UNL     1       1.918  17.343  17.953  0.00  0.00    +0.000 A 
ATOM     29  C   UNL     1       3.027  16.863  17.258  0.00  0.00    +0.000 A 
ATOM     30  C   UNL     1       3.532  15.595  17.544  0.00  0.00    +0.000 A 
ATOM     31  C   UNL     1       2.940  14.811  18.537  0.00  0.00    +0.000 A 
ENDBRANCH  25  26
ENDBRANCH  14  25
TORSDOF 4
ENDMDL
MODEL 3
REMARK VINA RESULT:      -7.6      2.705      4.085
REMARK  Name = 
REMARK  5 active torsions:
REMARK  status: ('A' for Active; 'I' for Inactive)
REMARK    1  A    between atoms: C_1  and  C_2
REMARK    2  A    between atoms: N_11  and  N_12
REMARK    3  A    between atoms: C_13  and  C_14
REMARK    4  A    between atoms: N_23  and  C_24
REMARK    5  A    between atoms: C_24  and  C_25
REMARK                            x       y       z     vdW  Elec       q    Type
REMARK                         _______ _______ _______ _____ _____    ______ ____
ROOT
ATOM      1  C   UNL     1      -0.383   9.318  22.170  0.00  0.00    +0.000 C 
ATOM      2  C   UNL     1       0.263  10.377  21.310  0.00  0.00    +0.000 A 
ATOM      3  N   UNL     1       0.163  11.586  21.782  0.00  0.00    +0.000 NA
ATOM      4  C   UNL     1       0.776  12.549  21.058  0.00  0.00    +0.000 A 
ATOM      5  S   UNL     1       0.787  14.169  21.595  0.00  0.00    +0.000 S 
ATOM      6  C   UNL     1       1.705  14.658  20.254  0.00  0.00    +0.000 A 
ATOM      7  C   UNL     1       1.974  13.619  19.379  0.00  0.00    +0.000 A 
ATOM      8  C   UNL     1       1.465  12.381  19.884  0.00  0.00    +0.000 A 
ATOM      9  C   UNL     1       1.591  11.033  19.354  0.00  0.00    +0.000 A 
ATOM     10  O   UNL     1       2.238  10.813  18.329  0.00  0.00    +0.000 OA
ATOM     11  N   UNL     1       0.913  10.041  20.117  0.00  0.00    +0.000 N 
ATOM     12  C   UNL     1       2.787  13.861  18.136  0.00  0.00    +0.000 C 
ATOM     13  C   UNL     1       3.072  15.379  17.938  0.00  0.00    +0.000 C 
ATOM     14  N   UNL     1       3.364  16.135  19.189  0.00  0.00    +0.000 NA
ATOM     15  C   UNL     1       2.173  16.070  20.070  0.00  0.00    +0.000 C 
ENDROOT
BRANCH  11  16
ATOM     16  N   UNL     1       1.119   8.758  19.631  0.00  0.00    +0.000 NA
ATOM     17  C   UNL     1       1.933   7.919  20.184  0.00  0.00    +0.000 C 
BRANCH  17  18
ATOM     18  C   UNL     1       2.007   6.517  19.712  0.00  0.00    +0.000 A 
ATOM     19  C   UNL     1       2.271   6.231  18.367  0.00  0.00    +0.000 A 
ATOM     20  C   UNL     1       2.230   4.909  17.914  0.00  0.00    +0.000 A 
ATOM     21  C   UNL     1       1.934   3.880  18.806  0.00  0.00    +0.000 A 
ATOM     22 CL   UNL     1       1.859   2.257  18.243  0.00  0.00    +0.000 Cl
ATOM     23  C   UNL     1       1.685   4.159  20.151  0.00  0.00    +0.000 A 
ATOM     24  C   UNL     1       1.718   5.480  20.606  0.00  0.00    +0.000 A 
ENDBRANCH  17  18
ENDBRANCH  11  16
BRANCH  14  25
ATOM     25  C   UNL     1       4.582  15.598  19.832  0.00  0.00    +0.000 C 
BRANCH  25  26
ATOM     26  C   UNL     1       5.879  15.865  19.101  0.00  0.00    +0.000 A 
ATOM     27  C   UNL     1       6.458  17.145  19.140  0.00  0.00    +0.000 A 
ATOM     28  C   UNL     1       7.696  17.382  18.542  0.00  0.00    +0.000 A 
ATOM     29  C   UNL     1       8.367  16.345  17.898  0.00  0.00    +0.000 A 
ATOM     30  C   UNL     1       7.790  15.077  17.832  0.00  0.00    +0.000 A 
ATOM     31  C   UNL     1       6.549  14.839  18.425  0.00  0.00    +0.000 A 
ENDBRANCH  25  26
ENDBRANCH  14  25
TORSDOF 4
ENDMDL
MODEL 4
REMARK VINA RESULT:      -7.6      1.079      1.575
REMARK  Name = 
REMARK  5 active torsions:
REMARK  status: ('A' for Active; 'I' for Inactive)
REMARK    1  A    between atoms: C_1  and  C_2
REMARK    2  A    between atoms: N_11  and  N_12
REMARK    3  A    between atoms: C_13  and  C_14
REMARK    4  A    between atoms: N_23  and  C_24
REMARK    5  A    between atoms: C_24  and  C_25
REMARK                            x       y       z     vdW  Elec       q    Type
REMARK                         _______ _______ _______ _____ _____    ______ ____
ROOT
ATOM      1  C   UNL     1       3.105   4.922  20.100  0.00  0.00    +0.000 C 
ATOM      2  C   UNL     1       2.533   6.289  19.815  0.00  0.00    +0.000 A 
ATOM      3  N   UNL     1       1.956   6.853  20.836  0.00  0.00    +0.000 NA
ATOM      4  C   UNL     1       1.480   8.100  20.624  0.00  0.00    +0.000 A 
ATOM      5  S   UNL     1       0.762   8.986  21.893  0.00  0.00    +0.000 S 
ATOM      6  C   UNL     1       0.502  10.322  20.878  0.00  0.00    +0.000 A 
ATOM      7  C   UNL     1       0.914  10.096  19.576  0.00  0.00    +0.000 A 
ATOM      8  C   UNL     1       1.528   8.809  19.450  0.00  0.00    +0.000 A 
ATOM      9  C   UNL     1       2.180   8.192  18.307  0.00  0.00    +0.000 A 
ATOM     10  O   UNL     1       2.295   8.798  17.240  0.00  0.00    +0.000 OA
ATOM     11  N   UNL     1       2.646   6.869  18.546  0.00  0.00    +0.000 N 
ATOM     12  C   UNL     1       0.772  11.172  18.534  0.00  0.00    +0.000 C 
ATOM     13  C   UNL     1      -0.023  12.389  19.090  0.00  0.00    +0.000 C 
ATOM     14  N   UNL     1       0.275  12.746  20.506  0.00  0.00    +0.000 NA
ATOM     15  C   UNL     1      -0.102  11.602  21.371  0.00  0.00    +0.000 C 
ENDROOT
BRANCH  11  16
ATOM     16  N   UNL     1       3.334   6.340  17.463  0.00  0.00    +0.000 NA
ATOM     17  C   UNL     1       4.613   6.158  17.463  0.00  0.00    +0.000 C 
BRANCH  17  18
ATOM     18  C   UNL     1       5.276   5.456  16.339  0.00  0.00    +0.000 A 
ATOM     19  C   UNL     1       6.548   5.849  15.905  0.00  0.00    +0.000 A 
ATOM     20  C   UNL     1       7.115   5.251  14.776  0.00  0.00    +0.000 A 
ATOM     21  C   UNL     1       6.413   4.261  14.091  0.00  0.00    +0.000 A 
ATOM     22 CL   UNL     1       7.101   3.543  12.686  0.00  0.00    +0.000 Cl
ATOM     23  C   UNL     1       5.151   3.856  14.528  0.00  0.00    +0.000 A 
ATOM     24  C   UNL     1       4.579   4.455  15.653  0.00  0.00    +0.000 A 
ENDBRANCH  17  18
ENDBRANCH  11  16
BRANCH  14  25
ATOM     25  C   UNL     1       1.698  13.124  20.644  0.00  0.00    +0.000 C 
BRANCH  25  26
ATOM     26  C   UNL     1       2.178  14.215  19.712  0.00  0.00    +0.000 A 
ATOM     27  C   UNL     1       1.638  15.509  19.808  0.00  0.00    +0.000 A 
ATOM     28  C   UNL     1       2.132  16.544  19.014  0.00  0.00    +0.000 A 
ATOM     29  C   UNL     1       3.168  16.296  18.115  0.00  0.00    +0.000 A 
ATOM     30  C   UNL     1       3.693  15.010  17.994  0.00  0.00    +0.000 A 
ATOM     31  C   UNL     1       3.196  13.973  18.785  0.00  0.00    +0.000 A 
ENDBRANCH  25  26
ENDBRANCH  14  25
TORSDOF 4
ENDMDL
MODEL 5
REMARK VINA RESULT:      -7.5      4.722     10.003
REMARK  Name = 
REMARK  5 active torsions:
REMARK  status: ('A' for Active; 'I' for Inactive)
REMARK    1  A    between atoms: C_1  and  C_2
REMARK    2  A    between atoms: N_11  and  N_12
REMARK    3  A    between atoms: C_13  and  C_14
REMARK    4  A    between atoms: N_23  and  C_24
REMARK    5  A    between atoms: C_24  and  C_25
REMARK                            x       y       z     vdW  Elec       q    Type
REMARK                         _______ _______ _______ _____ _____    ______ ____
ROOT
ATOM      1  C   UNL     1       0.815   4.220  20.604  0.00  0.00    +0.000 C 
ATOM      2  C   UNL     1       1.974   4.718  19.775  0.00  0.00    +0.000 A 
ATOM      3  N   UNL     1       2.752   3.778  19.320  0.00  0.00    +0.000 NA
ATOM      4  C   UNL     1       3.768   4.191  18.532  0.00  0.00    +0.000 A 
ATOM      5  S   UNL     1       4.825   3.062  17.810  0.00  0.00    +0.000 S 
ATOM      6  C   UNL     1       5.694   4.297  17.036  0.00  0.00    +0.000 A 
ATOM      7  C   UNL     1       5.223   5.562  17.346  0.00  0.00    +0.000 A 
ATOM      8  C   UNL     1       4.067   5.484  18.185  0.00  0.00    +0.000 A 
ATOM      9  C   UNL     1       3.198   6.540  18.678  0.00  0.00    +0.000 A 
ATOM     10  O   UNL     1       3.387   7.716  18.363  0.00  0.00    +0.000 OA
ATOM     11  N   UNL     1       2.153   6.084  19.530  0.00  0.00    +0.000 N 
ATOM     12  C   UNL     1       5.864   6.783  16.744  0.00  0.00    +0.000 C 
ATOM     13  C   UNL     1       7.147   6.407  15.946  0.00  0.00    +0.000 C 
ATOM     14  N   UNL     1       7.058   5.140  15.165  0.00  0.00    +0.000 NA
ATOM     15  C   UNL     1       6.839   4.018  16.110  0.00  0.00    +0.000 C 
ENDROOT
BRANCH  11  16
ATOM     16  N   UNL     1       1.295   7.104  19.918  0.00  0.00    +0.000 NA
ATOM     17  C   UNL     1       1.374   7.690  21.068  0.00  0.00    +0.000 C 
BRANCH  17  18
ATOM     18  C   UNL     1       0.529   8.867  21.374  0.00  0.00    +0.000 A 
ATOM     19  C   UNL     1       0.159   9.762  20.362  0.00  0.00    +0.000 A 
ATOM     20  C   UNL     1      -0.546  10.925  20.682  0.00  0.00    +0.000 A 
ATOM     21  C   UNL     1      -0.885  11.186  22.008  0.00  0.00    +0.000 A 
ATOM     22 CL   UNL     1      -1.731  12.631  22.405  0.00  0.00    +0.000 Cl
ATOM     23  C   UNL     1      -0.531  10.291  23.019  0.00  0.00    +0.000 A 
ATOM     24  C   UNL     1       0.179   9.130  22.703  0.00  0.00    +0.000 A 
ENDBRANCH  17  18
ENDBRANCH  11  16
BRANCH  14  25
ATOM     25  C   UNL     1       5.992   5.248  14.147  0.00  0.00    +0.000 C 
BRANCH  25  26
ATOM     26  C   UNL     1       6.017   4.195  13.061  0.00  0.00    +0.000 A 
ATOM     27  C   UNL     1       7.245   3.750  12.541  0.00  0.00    +0.000 A 
ATOM     28  C   UNL     1       7.286   2.720  11.602  0.00  0.00    +0.000 A 
ATOM     29  C   UNL     1       6.102   2.124  11.171  0.00  0.00    +0.000 A 
ATOM     30  C   UNL     1       4.877   2.575  11.662  0.00  0.00    +0.000 A 
ATOM     31  C   UNL     1       4.834   3.609  12.599  0.00  0.00    +0.000 A 
ENDBRANCH  25  26
ENDBRANCH  14  25
TORSDOF 4
ENDMDL
MODEL 6
REMARK VINA RESULT:      -7.3      0.975      1.231
REMARK  Name = 
REMARK  5 active torsions:
REMARK  status: ('A' for Active; 'I' for Inactive)
REMARK    1  A    between atoms: C_1  and  C_2
REMARK    2  A    between atoms: N_11  and  N_12
REMARK    3  A    between atoms: C_13  and  C_14
REMARK    4  A    between atoms: N_23  and  C_24
REMARK    5  A    between atoms: C_24  and  C_25
REMARK                            x       y       z     vdW  Elec       q    Type
REMARK                         _______ _______ _______ _____ _____    ______ ____
ROOT
ATOM      1  C   UNL     1       2.153   5.572  20.689  0.00  0.00    +0.000 C 
ATOM      2  C   UNL     1       1.716   6.984  20.383  0.00  0.00    +0.000 A 
ATOM      3  N   UNL     1       1.134   7.593  21.376  0.00  0.00    +0.000 NA
ATOM      4  C   UNL     1       0.777   8.875  21.147  0.00  0.00    +0.000 A 
ATOM      5  S   UNL     1       0.069   9.817  22.382  0.00  0.00    +0.000 S 
ATOM      6  C   UNL     1      -0.021  11.172  21.365  0.00  0.00    +0.000 A 
ATOM      7  C   UNL     1       0.441  10.915  20.085  0.00  0.00    +0.000 A 
ATOM      8  C   UNL     1       0.949   9.582  19.983  0.00  0.00    +0.000 A 
ATOM      9  C   UNL     1       1.608   8.914  18.872  0.00  0.00    +0.000 A 
ATOM     10  O   UNL     1       1.832   9.511  17.818  0.00  0.00    +0.000 OA
ATOM     11  N   UNL     1       1.947   7.556  19.126  0.00  0.00    +0.000 N 
ATOM     12  C   UNL     1       0.448  12.003  19.045  0.00  0.00    +0.000 C 
ATOM     13  C   UNL     1      -0.270  13.282  19.565  0.00  0.00    +0.000 C 
ATOM     14  N   UNL     1      -0.020  13.608  20.998  0.00  0.00    +0.000 NA
ATOM     15  C   UNL     1      -0.540  12.498  21.833  0.00  0.00    +0.000 C 
ENDROOT
BRANCH  11  16
ATOM     16  N   UNL     1       2.644   6.972  18.078  0.00  0.00    +0.000 NA
ATOM     17  C   UNL     1       3.905   6.692  18.142  0.00  0.00    +0.000 C 
BRANCH  17  18
ATOM     18  C   UNL     1       4.566   5.939  17.051  0.00  0.00    +0.000 A 
ATOM     19  C   UNL     1       5.127   6.613  15.959  0.00  0.00    +0.000 A 
ATOM     20  C   UNL     1       5.651   5.886  14.886  0.00  0.00    +0.000 A 
ATOM     21  C   UNL     1       5.619   4.493  14.912  0.00  0.00    +0.000 A 
ATOM     22 CL   UNL     1       6.242   3.601  13.580  0.00  0.00    +0.000 Cl
ATOM     23  C   UNL     1       5.075   3.818  16.005  0.00  0.00    +0.000 A 
ATOM     24  C   UNL     1       4.545   4.540  17.077  0.00  0.00    +0.000 A 
ENDBRANCH  17  18
ENDBRANCH  11  16
BRANCH  14  25
ATOM     25  C   UNL     1       1.420  13.863  21.215  0.00  0.00    +0.000 C 
BRANCH  25  26
ATOM     26  C   UNL     1       1.881  15.278  20.944  0.00  0.00    +0.000 A 
ATOM     27  C   UNL     1       2.489  15.597  19.717  0.00  0.00    +0.000 A 
ATOM     28  C   UNL     1       2.840  16.914  19.422  0.00  0.00    +0.000 A 
ATOM     29  C   UNL     1       2.590  17.925  20.348  0.00  0.00    +0.000 A 
ATOM     30  C   UNL     1       2.011  17.615  21.578  0.00  0.00    +0.000 A 
ATOM     31  C   UNL     1       1.663  16.296  21.877  0.00  0.00    +0.000 A 
ENDBRANCH  25  26
ENDBRANCH  14  25
TORSDOF 4
ENDMDL
MODEL 7
REMARK VINA RESULT:      -7.2      3.715      6.167
REMARK  Name = 
REMARK  5 active torsions:
REMARK  status: ('A' for Active; 'I' for Inactive)
REMARK    1  A    between atoms: C_1  and  C_2
REMARK    2  A    between atoms: N_11  and  N_12
REMARK    3  A    between atoms: C_13  and  C_14
REMARK    4  A    between atoms: N_23  and  C_24
REMARK    5  A    between atoms: C_24  and  C_25
REMARK                            x       y       z     vdW  Elec       q    Type
REMARK                         _______ _______ _______ _____ _____    ______ ____
ROOT
ATOM      1  C   UNL     1       2.614  11.023  17.821  0.00  0.00    +0.000 C 
ATOM      2  C   UNL     1       1.638  11.262  18.947  0.00  0.00    +0.000 A 
ATOM      3  N   UNL     1       1.430  12.518  19.220  0.00  0.00    +0.000 NA
ATOM      4  C   UNL     1       0.522  12.763  20.190  0.00  0.00    +0.000 A 
ATOM      5  S   UNL     1       0.099  14.363  20.604  0.00  0.00    +0.000 S 
ATOM      6  C   UNL     1      -1.016  13.821  21.763  0.00  0.00    +0.000 A 
ATOM      7  C   UNL     1      -1.048  12.441  21.875  0.00  0.00    +0.000 A 
ATOM      8  C   UNL     1      -0.177  11.831  20.916  0.00  0.00    +0.000 A 
ATOM      9  C   UNL     1       0.039  10.426  20.611  0.00  0.00    +0.000 A 
ATOM     10  O   UNL     1      -0.594   9.546  21.195  0.00  0.00    +0.000 OA
ATOM     11  N   UNL     1       1.022  10.193  19.607  0.00  0.00    +0.000 N 
ATOM     12  C   UNL     1      -1.985  11.776  22.846  0.00  0.00    +0.000 C 
ATOM     13  C   UNL     1      -2.695  12.826  23.748  0.00  0.00    +0.000 C 
ATOM     14  N   UNL     1      -3.095  14.086  23.058  0.00  0.00    +0.000 NA
ATOM     15  C   UNL     1      -1.871  14.759  22.559  0.00  0.00    +0.000 C 
ENDROOT
BRANCH  11  16
ATOM     16  N   UNL     1       1.146   8.850  19.283  0.00  0.00    +0.000 NA
ATOM     17  C   UNL     1       1.953   8.049  19.899  0.00  0.00    +0.000 C 
BRANCH  17  18
ATOM     18  C   UNL     1       1.942   6.596  19.610  0.00  0.00    +0.000 A 
ATOM     19  C   UNL     1       1.622   5.673  20.613  0.00  0.00    +0.000 A 
ATOM     20  C   UNL     1       1.720   4.302  20.356  0.00  0.00    +0.000 A 
ATOM     21  C   UNL     1       2.130   3.861  19.100  0.00  0.00    +0.000 A 
ATOM     22 CL   UNL     1       2.275   2.175  18.792  0.00  0.00    +0.000 Cl
ATOM     23  C   UNL     1       2.436   4.778  18.092  0.00  0.00    +0.000 A 
ATOM     24  C   UNL     1       2.344   6.148  18.347  0.00  0.00    +0.000 A 
ENDBRANCH  17  18
ENDBRANCH  11  16
BRANCH  14  25
ATOM     25  C   UNL     1      -4.064  13.787  21.982  0.00  0.00    +0.000 C 
BRANCH  25  26
ATOM     26  C   UNL     1      -5.439  13.356  22.442  0.00  0.00    +0.000 A 
ATOM     27  C   UNL     1      -6.174  12.427  21.687  0.00  0.00    +0.000 A 
ATOM     28  C   UNL     1      -7.405  11.957  22.144  0.00  0.00    +0.000 A 
ATOM     29  C   UNL     1      -7.915  12.411  23.359  0.00  0.00    +0.000 A 
ATOM     30  C   UNL     1      -7.205  13.352  24.104  0.00  0.00    +0.000 A 
ATOM     31  C   UNL     1      -5.975  13.827  23.645  0.00  0.00    +0.000 A 
ENDBRANCH  25  26
ENDBRANCH  14  25
TORSDOF 4
ENDMDL
MODEL 8
REMARK VINA RESULT:      -7.1      1.703      2.233
REMARK  Name = 
REMARK  5 active torsions:
REMARK  status: ('A' for Active; 'I' for Inactive)
REMARK    1  A    between atoms: C_1  and  C_2
REMARK    2  A    between atoms: N_11  and  N_12
REMARK    3  A    between atoms: C_13  and  C_14
REMARK    4  A    between atoms: N_23  and  C_24
REMARK    5  A    between atoms: C_24  and  C_25
REMARK                            x       y       z     vdW  Elec       q    Type
REMARK                         _______ _______ _______ _____ _____    ______ ____
ROOT
ATOM      1  C   UNL     1       1.969   5.728  20.639  0.00  0.00    +0.000 C 
ATOM      2  C   UNL     1       1.593   7.156  20.324  0.00  0.00    +0.000 A 
ATOM      3  N   UNL     1       0.993   7.780  21.297  0.00  0.00    +0.000 NA
ATOM      4  C   UNL     1       0.689   9.075  21.061  0.00  0.00    +0.000 A 
ATOM      5  S   UNL     1      -0.035  10.035  22.272  0.00  0.00    +0.000 S 
ATOM      6  C   UNL     1      -0.038  11.397  21.260  0.00  0.00    +0.000 A 
ATOM      7  C   UNL     1       0.466  11.130  19.998  0.00  0.00    +0.000 A 
ATOM      8  C   UNL     1       0.932   9.780  19.909  0.00  0.00    +0.000 A 
ATOM      9  C   UNL     1       1.612   9.095  18.821  0.00  0.00    +0.000 A 
ATOM     10  O   UNL     1       1.899   9.688  17.780  0.00  0.00    +0.000 OA
ATOM     11  N   UNL     1       1.894   7.725  19.081  0.00  0.00    +0.000 N 
ATOM     12  C   UNL     1       0.552  12.221  18.965  0.00  0.00    +0.000 C 
ATOM     13  C   UNL     1      -0.143  13.521  19.464  0.00  0.00    +0.000 C 
ATOM     14  N   UNL     1       0.061  13.833  20.907  0.00  0.00    +0.000 NA
ATOM     15  C   UNL     1      -0.530  12.737  21.715  0.00  0.00    +0.000 C 
ENDROOT
BRANCH  11  16
ATOM     16  N   UNL     1       2.613   7.122  18.059  0.00  0.00    +0.000 NA
ATOM     17  C   UNL     1       3.835   6.725  18.198  0.00  0.00    +0.000 C 
BRANCH  17  18
ATOM     18  C   UNL     1       4.506   5.959  17.123  0.00  0.00    +0.000 A 
ATOM     19  C   UNL     1       5.064   6.618  16.020  0.00  0.00    +0.000 A 
ATOM     20  C   UNL     1       5.598   5.878  14.962  0.00  0.00    +0.000 A 
ATOM     21  C   UNL     1       5.578   4.485  15.011  0.00  0.00    +0.000 A 
ATOM     22 CL   UNL     1       6.212   3.575  13.697  0.00  0.00    +0.000 Cl
ATOM     23  C   UNL     1       5.036   3.824  16.114  0.00  0.00    +0.000 A 
ATOM     24  C   UNL     1       4.496   4.560  17.172  0.00  0.00    +0.000 A 
ENDBRANCH  17  18
ENDBRANCH  11  16
BRANCH  14  25
ATOM     25  C   UNL     1       1.499  14.037  21.183  0.00  0.00    +0.000 C 
BRANCH  25  26
ATOM     26  C   UNL     1       1.841  15.274  21.984  0.00  0.00    +0.000 A 
ATOM     27  C   UNL     1       0.815  16.081  22.505  0.00  0.00    +0.000 A 
ATOM     28  C   UNL     1       1.116  17.174  23.317  0.00  0.00    +0.000 A 
ATOM     29  C   UNL     1       2.444  17.474  23.615  0.00  0.00    +0.000 A 
ATOM     30  C   UNL     1       3.470  16.695  23.083  0.00  0.00    +0.000 A 
ATOM     31  C   UNL     1       3.170  15.603  22.266  0.00  0.00    +0.000 A 
ENDBRANCH  25  26
ENDBRANCH  14  25
TORSDOF 4
ENDMDL
MODEL 9
REMARK VINA RESULT:      -7.1      5.532      8.769
REMARK  Name = 
REMARK  5 active torsions:
REMARK  status: ('A' for Active; 'I' for Inactive)
REMARK    1  A    between atoms: C_1  and  C_2
REMARK    2  A    between atoms: N_11  and  N_12
REMARK    3  A    between atoms: C_13  and  C_14
REMARK    4  A    between atoms: N_23  and  C_24
REMARK    5  A    between atoms: C_24  and  C_25
REMARK                            x       y       z     vdW  Elec       q    Type
REMARK                         _______ _______ _______ _____ _____    ______ ____
ROOT
ATOM      1  C   UNL     1       0.821  16.502  20.468  0.00  0.00    +0.000 C 
ATOM      2  C   UNL     1       2.202  16.263  19.908  0.00  0.00    +0.000 A 
ATOM      3  N   UNL     1       3.102  17.109  20.321  0.00  0.00    +0.000 NA
ATOM      4  C   UNL     1       4.359  16.889  19.875  0.00  0.00    +0.000 A 
ATOM      5  S   UNL     1       5.651  17.877  20.390  0.00  0.00    +0.000 S 
ATOM      6  C   UNL     1       6.766  16.978  19.479  0.00  0.00    +0.000 A 
ATOM      7  C   UNL     1       6.171  15.960  18.754  0.00  0.00    +0.000 A 
ATOM      8  C   UNL     1       4.768  15.888  19.031  0.00  0.00    +0.000 A 
ATOM      9  C   UNL     1       3.773  14.932  18.574  0.00  0.00    +0.000 A 
ATOM     10  O   UNL     1       4.089  13.985  17.852  0.00  0.00    +0.000 OA
ATOM     11  N   UNL     1       2.453  15.202  19.031  0.00  0.00    +0.000 N 
ATOM     12  C   UNL     1       7.004  15.049  17.894  0.00  0.00    +0.000 C 
ATOM     13  C   UNL     1       8.480  15.538  17.824  0.00  0.00    +0.000 C 
ATOM     14  N   UNL     1       9.028  16.078  19.101  0.00  0.00    +0.000 NA
ATOM     15  C   UNL     1       8.235  17.271  19.488  0.00  0.00    +0.000 C 
ENDROOT
BRANCH  11  16
ATOM     16  N   UNL     1       1.543  14.228  18.645  0.00  0.00    +0.000 NA
ATOM     17  C   UNL     1       1.308  13.168  19.346  0.00  0.00    +0.000 C 
BRANCH  17  18
ATOM     18  C   UNL     1       0.224  12.234  18.961  0.00  0.00    +0.000 A 
ATOM     19  C   UNL     1       0.508  10.895  18.667  0.00  0.00    +0.000 A 
ATOM     20  C   UNL     1      -0.506  10.053  18.201  0.00  0.00    +0.000 A 
ATOM     21  C   UNL     1      -1.798  10.549  18.038  0.00  0.00    +0.000 A 
ATOM     22 CL   UNL     1      -3.039   9.519  17.441  0.00  0.00    +0.000 Cl
ATOM     23  C   UNL     1      -2.089  11.879  18.344  0.00  0.00    +0.000 A 
ATOM     24  C   UNL     1      -1.077  12.726  18.804  0.00  0.00    +0.000 A 
ENDBRANCH  17  18
ENDBRANCH  11  16
BRANCH  14  25
ATOM     25  C   UNL     1       9.022  15.026  20.139  0.00  0.00    +0.000 C 
BRANCH  25  26
ATOM     26  C   UNL     1      10.032  13.915  19.948  0.00  0.00    +0.000 A 
ATOM     27  C   UNL     1      11.378  14.225  19.688  0.00  0.00    +0.000 A 
ATOM     28  C   UNL     1      12.333  13.213  19.596  0.00  0.00    +0.000 A 
ATOM     29  C   UNL     1      11.954  11.882  19.759  0.00  0.00    +0.000 A 
ATOM     30  C   UNL     1      10.617  11.562  19.992  0.00  0.00    +0.000 A 
ATOM     31  C   UNL     1       9.659  12.574  20.080  0.00  0.00    +0.000 A 
ENDBRANCH  25  26
ENDBRANCH  14  25
TORSDOF 4
ENDMDL
