MODEL 1
REMARK VINA RESULT:      -8.7      0.000      0.000
REMARK  Name = 
REMARK  10 active torsions:
REMARK  status: ('A' for Active; 'I' for Inactive)
REMARK    1  A    between atoms: C_1  and  C_2
REMARK    2  A    between atoms: N_4  and  C_5
REMARK    3  A    between atoms: C_7  and  N_8
REMARK    4  A    between atoms: N_8  and  C_9
REMARK    5  A    between atoms: C_14  and  O_15
REMARK    6  A    between atoms: O_15  and  C_16
REMARK    7  A    between atoms: C_16  and  C_17
REMARK    8  A    between atoms: C_16  and  C_18
REMARK    9  A    between atoms: CA_22  and  C_23
REMARK   10  A    between atoms: C_23  and  OXT_25
REMARK                            x       y       z     vdW  Elec       q    Type
REMARK                         _______ _______ _______ _____ _____    ______ ____
ROOT
ATOM      1  C   UNL     1       7.660   6.658  17.965  0.00  0.00    +0.000 A 
ATOM      2  C   UNL     1       7.036   5.623  18.654  0.00  0.00    +0.000 A 
ATOM      3  C   UNL     1       6.362   4.561  18.022  0.00  0.00    +0.000 A 
ATOM      4  C   UNL     1       6.350   4.563  16.613  0.00  0.00    +0.000 A 
ATOM      5  C   UNL     1       5.827   3.663  15.643  0.00  0.00    +0.000 A 
ATOM      6  CA  UNL     1       6.101   4.166  14.384  0.00  0.00    +0.000 A 
ATOM      7  N   UNL     1       6.782   5.349  14.577  0.00  0.00    +0.000 N 
ATOM      8  C   UNL     1       6.932   5.625  15.920  0.00  0.00    +0.000 A 
ATOM      9  C   UNL     1       7.563   6.705  16.568  0.00  0.00    +0.000 A 
ATOM     10  H   UNL     1       7.134   5.925  13.820  0.00  0.00    +0.000 HD
ENDROOT
BRANCH   1  14
ATOM     11  C   UNL     1       9.271   9.831  19.243  0.00  0.00    +0.000 C 
ATOM     12  C   UNL     1       8.331   9.022  18.392  0.00  0.00    +0.000 C 
ATOM     13  O   UNL     1       7.598   9.588  17.590  0.00  0.00    +0.000 OA
ATOM     14  N   UNL     1       8.405   7.654  18.644  0.00  0.00    +0.000 N 
ATOM     15  H   UNL     1       8.920   7.360  19.464  0.00  0.00    +0.000 HD
ENDBRANCH   1  14
BRANCH   3  16
ATOM     16  N   UNL     1       5.776   3.537  18.789  0.00  0.00    +0.000 N 
ATOM     17  H   UNL     1       6.163   2.612  18.662  0.00  0.00    +0.000 HD
BRANCH  16  18
ATOM     18  C   UNL     1       4.563   3.572  19.502  0.00  0.00    +0.000 A 
ATOM     19  C   UNL     1       4.175   2.526  20.352  0.00  0.00    +0.000 A 
ATOM     20  C   UNL     1       2.906   2.503  20.922  0.00  0.00    +0.000 A 
ATOM     21  C   UNL     1       2.025   3.546  20.673  0.00  0.00    +0.000 A 
ATOM     22  F   UNL     1       0.802   3.465  21.215  0.00  0.00    +0.000 F 
ATOM     23  C   UNL     1       2.413   4.640  19.895  0.00  0.00    +0.000 A 
ATOM     24  C   UNL     1       3.675   4.631  19.292  0.00  0.00    +0.000 A 
BRANCH  23  25
ATOM     25  O   UNL     1       1.674   5.761  19.635  0.00  0.00    +0.000 OA
BRANCH  25  26
ATOM     26  C   UNL     1       2.322   7.034  19.759  0.00  0.00    +0.000 C 
ATOM     27  C   UNL     1       2.308   7.807  18.439  0.00  0.00    +0.000 C 
ATOM     28  C   UNL     1       1.528   7.817  20.804  0.00  0.00    +0.000 C 
ENDBRANCH  25  26
ENDBRANCH  23  25
ENDBRANCH  16  18
ENDBRANCH   3  16
BRANCH   6  29
ATOM     29  C   UNL     1       5.837   3.635  13.071  0.00  0.00    +0.000 C 
ATOM     30  O   UNL     1       4.754   3.684  12.509  0.00  0.00    +0.000 OA
BRANCH  29  31
ATOM     31  OXT UNL     1       6.918   3.026  12.528  0.00  0.00    +0.000 OA
ATOM     32  HXT UNL     1       7.116   2.165  12.927  0.00  0.00    +0.000 HD
ENDBRANCH  29  31
ENDBRANCH   6  29
TORSDOF 7
ENDMDL
MODEL 2
REMARK VINA RESULT:      -8.2      3.074      5.652
REMARK  Name = 
REMARK  10 active torsions:
REMARK  status: ('A' for Active; 'I' for Inactive)
REMARK    1  A    between atoms: C_1  and  C_2
REMARK    2  A    between atoms: N_4  and  C_5
REMARK    3  A    between atoms: C_7  and  N_8
REMARK    4  A    between atoms: N_8  and  C_9
REMARK    5  A    between atoms: C_14  and  O_15
REMARK    6  A    between atoms: O_15  and  C_16
REMARK    7  A    between atoms: C_16  and  C_17
REMARK    8  A    between atoms: C_16  and  C_18
REMARK    9  A    between atoms: CA_22  and  C_23
REMARK   10  A    between atoms: C_23  and  OXT_25
REMARK                            x       y       z     vdW  Elec       q    Type
REMARK                         _______ _______ _______ _____ _____    ______ ____
ROOT
ATOM      1  C   UNL     1       3.464   4.068  19.527  0.00  0.00    +0.000 A 
ATOM      2  C   UNL     1       3.029   5.353  19.221  0.00  0.00    +0.000 A 
ATOM      3  C   UNL     1       3.488   6.089  18.112  0.00  0.00    +0.000 A 
ATOM      4  C   UNL     1       4.425   5.456  17.272  0.00  0.00    +0.000 A 
ATOM      5  C   UNL     1       5.070   5.845  16.064  0.00  0.00    +0.000 A 
ATOM      6  CA  UNL     1       5.911   4.823  15.664  0.00  0.00    +0.000 A 
ATOM      7  N   UNL     1       5.782   3.823  16.605  0.00  0.00    +0.000 N 
ATOM      8  C   UNL     1       4.901   4.186  17.602  0.00  0.00    +0.000 A 
ATOM      9  C   UNL     1       4.467   3.481  18.741  0.00  0.00    +0.000 A 
ATOM     10  H   UNL     1       6.267   2.934  16.550  0.00  0.00    +0.000 HD
ENDROOT
BRANCH   1  14
ATOM     11  C   UNL     1       1.248   2.353  22.065  0.00  0.00    +0.000 C 
ATOM     12  C   UNL     1       1.543   3.143  20.819  0.00  0.00    +0.000 C 
ATOM     13  O   UNL     1       0.619   3.534  20.115  0.00  0.00    +0.000 OA
ATOM     14  N   UNL     1       2.904   3.333  20.601  0.00  0.00    +0.000 N 
ATOM     15  H   UNL     1       3.546   2.791  21.166  0.00  0.00    +0.000 HD
ENDBRANCH   1  14
BRANCH   3  16
ATOM     16  N   UNL     1       2.981   7.376  17.856  0.00  0.00    +0.000 N 
ATOM     17  H   UNL     1       3.414   7.879  17.094  0.00  0.00    +0.000 HD
BRANCH  16  18
ATOM     18  C   UNL     1       2.144   8.158  18.674  0.00  0.00    +0.000 A 
ATOM     19  C   UNL     1       2.108   7.994  20.066  0.00  0.00    +0.000 A 
ATOM     20  C   UNL     1       1.164   8.660  20.839  0.00  0.00    +0.000 A 
ATOM     21  C   UNL     1       0.266   9.525  20.229  0.00  0.00    +0.000 A 
ATOM     22  F   UNL     1      -0.649  10.118  21.009  0.00  0.00    +0.000 F 
ATOM     23  C   UNL     1       0.329   9.768  18.854  0.00  0.00    +0.000 A 
ATOM     24  C   UNL     1       1.256   9.060  18.082  0.00  0.00    +0.000 A 
BRANCH  23  25
ATOM     25  O   UNL     1      -0.440  10.647  18.144  0.00  0.00    +0.000 OA
BRANCH  25  26
ATOM     26  C   UNL     1      -1.851  10.402  18.077  0.00  0.00    +0.000 C 
ATOM     27  C   UNL     1      -2.660  11.667  18.372  0.00  0.00    +0.000 C 
ATOM     28  C   UNL     1      -2.138   9.947  16.647  0.00  0.00    +0.000 C 
ENDBRANCH  25  26
ENDBRANCH  23  25
ENDBRANCH  16  18
ENDBRANCH   3  16
BRANCH   6  29
ATOM     29  C   UNL     1       6.749   4.683  14.502  0.00  0.00    +0.000 C 
ATOM     30  O   UNL     1       7.647   5.454  14.198  0.00  0.00    +0.000 OA
BRANCH  29  31
ATOM     31  OXT UNL     1       6.413   3.615  13.741  0.00  0.00    +0.000 OA
ATOM     32  HXT UNL     1       5.757   3.822  13.056  0.00  0.00    +0.000 HD
ENDBRANCH  29  31
ENDBRANCH   6  29
TORSDOF 7
ENDMDL
MODEL 3
REMARK VINA RESULT:      -8.1      1.163      4.631
REMARK  Name = 
REMARK  10 active torsions:
REMARK  status: ('A' for Active; 'I' for Inactive)
REMARK    1  A    between atoms: C_1  and  C_2
REMARK    2  A    between atoms: N_4  and  C_5
REMARK    3  A    between atoms: C_7  and  N_8
REMARK    4  A    between atoms: N_8  and  C_9
REMARK    5  A    between atoms: C_14  and  O_15
REMARK    6  A    between atoms: O_15  and  C_16
REMARK    7  A    between atoms: C_16  and  C_17
REMARK    8  A    between atoms: C_16  and  C_18
REMARK    9  A    between atoms: CA_22  and  C_23
REMARK   10  A    between atoms: C_23  and  OXT_25
REMARK                            x       y       z     vdW  Elec       q    Type
REMARK                         _______ _______ _______ _____ _____    ______ ____
ROOT
ATOM      1  C   UNL     1       6.139   3.936  15.106  0.00  0.00    +0.000 A 
ATOM      2  C   UNL     1       5.743   3.484  16.360  0.00  0.00    +0.000 A 
ATOM      3  C   UNL     1       5.991   4.185  17.556  0.00  0.00    +0.000 A 
ATOM      4  C   UNL     1       6.661   5.419  17.443  0.00  0.00    +0.000 A 
ATOM      5  C   UNL     1       7.039   6.412  18.390  0.00  0.00    +0.000 A 
ATOM      6  CA  UNL     1       7.687   7.435  17.721  0.00  0.00    +0.000 A 
ATOM      7  N   UNL     1       7.702   7.079  16.389  0.00  0.00    +0.000 N 
ATOM      8  C   UNL     1       7.103   5.853  16.192  0.00  0.00    +0.000 A 
ATOM      9  C   UNL     1       6.889   5.117  15.011  0.00  0.00    +0.000 A 
ATOM     10  H   UNL     1       8.094   7.661  15.657  0.00  0.00    +0.000 HD
ENDROOT
BRANCH   1  14
ATOM     11  C   UNL     1       5.721   2.613  11.589  0.00  0.00    +0.000 C 
ATOM     12  C   UNL     1       6.319   3.483  12.661  0.00  0.00    +0.000 C 
ATOM     13  O   UNL     1       7.192   4.291  12.368  0.00  0.00    +0.000 OA
ATOM     14  N   UNL     1       5.786   3.241  13.924  0.00  0.00    +0.000 N 
ATOM     15  H   UNL     1       5.211   2.415  14.035  0.00  0.00    +0.000 HD
ENDBRANCH   1  14
BRANCH   3  16
ATOM     16  N   UNL     1       5.536   3.673  18.785  0.00  0.00    +0.000 N 
ATOM     17  H   UNL     1       6.213   3.151  19.324  0.00  0.00    +0.000 HD
BRANCH  16  18
ATOM     18  C   UNL     1       4.210   3.560  19.241  0.00  0.00    +0.000 A 
ATOM     19  C   UNL     1       3.521   2.339  19.216  0.00  0.00    +0.000 A 
ATOM     20  C   UNL     1       2.165   2.278  19.519  0.00  0.00    +0.000 A 
ATOM     21  C   UNL     1       1.492   3.436  19.884  0.00  0.00    +0.000 A 
ATOM     22  F   UNL     1       0.179   3.336  20.134  0.00  0.00    +0.000 F 
ATOM     23  C   UNL     1       2.171   4.653  19.995  0.00  0.00    +0.000 A 
ATOM     24  C   UNL     1       3.525   4.709  19.646  0.00  0.00    +0.000 A 
BRANCH  23  25
ATOM     25  O   UNL     1       1.649   5.845  20.414  0.00  0.00    +0.000 OA
BRANCH  25  26
ATOM     26  C   UNL     1       2.283   7.050  19.966  0.00  0.00    +0.000 C 
ATOM     27  C   UNL     1       2.156   7.226  18.451  0.00  0.00    +0.000 C 
ATOM     28  C   UNL     1       1.558   8.199  20.665  0.00  0.00    +0.000 C 
ENDBRANCH  25  26
ENDBRANCH  23  25
ENDBRANCH  16  18
ENDBRANCH   3  16
BRANCH   6  29
ATOM     29  C   UNL     1       8.225   8.685  18.191  0.00  0.00    +0.000 C 
ATOM     30  O   UNL     1       8.041   9.765  17.649  0.00  0.00    +0.000 OA
BRANCH  29  31
ATOM     31  OXT UNL     1       9.003   8.540  19.289  0.00  0.00    +0.000 OA
ATOM     32  HXT UNL     1       8.704   9.068  20.045  0.00  0.00    +0.000 HD
ENDBRANCH  29  31
ENDBRANCH   6  29
TORSDOF 7
ENDMDL
MODEL 4
REMARK VINA RESULT:      -8.1      3.278      6.201
REMARK  Name = 
REMARK  10 active torsions:
REMARK  status: ('A' for Active; 'I' for Inactive)
REMARK    1  A    between atoms: C_1  and  C_2
REMARK    2  A    between atoms: N_4  and  C_5
REMARK    3  A    between atoms: C_7  and  N_8
REMARK    4  A    between atoms: N_8  and  C_9
REMARK    5  A    between atoms: C_14  and  O_15
REMARK    6  A    between atoms: O_15  and  C_16
REMARK    7  A    between atoms: C_16  and  C_17
REMARK    8  A    between atoms: C_16  and  C_18
REMARK    9  A    between atoms: CA_22  and  C_23
REMARK   10  A    between atoms: C_23  and  OXT_25
REMARK                            x       y       z     vdW  Elec       q    Type
REMARK                         _______ _______ _______ _____ _____    ______ ____
ROOT
ATOM      1  C   UNL     1       4.646   5.078  16.397  0.00  0.00    +0.000 A 
ATOM      2  C   UNL     1       4.318   6.311  16.951  0.00  0.00    +0.000 A 
ATOM      3  C   UNL     1       3.627   6.460  18.168  0.00  0.00    +0.000 A 
ATOM      4  C   UNL     1       3.280   5.278  18.852  0.00  0.00    +0.000 A 
ATOM      5  C   UNL     1       2.638   5.026  20.097  0.00  0.00    +0.000 A 
ATOM      6  CA  UNL     1       2.548   3.658  20.277  0.00  0.00    +0.000 A 
ATOM      7  N   UNL     1       3.127   3.081  19.166  0.00  0.00    +0.000 N 
ATOM      8  C   UNL     1       3.564   4.038  18.276  0.00  0.00    +0.000 A 
ATOM      9  C   UNL     1       4.214   3.906  17.034  0.00  0.00    +0.000 A 
ATOM     10  H   UNL     1       3.226   2.079  19.041  0.00  0.00    +0.000 HD
ENDROOT
BRANCH   1  14
ATOM     11  C   UNL     1       7.358   4.839  13.773  0.00  0.00    +0.000 C 
ATOM     12  C   UNL     1       6.811   4.887  15.174  0.00  0.00    +0.000 C 
ATOM     13  O   UNL     1       7.578   4.834  16.127  0.00  0.00    +0.000 OA
ATOM     14  N   UNL     1       5.422   4.981  15.216  0.00  0.00    +0.000 N 
ATOM     15  H   UNL     1       4.919   4.825  14.351  0.00  0.00    +0.000 HD
ENDBRANCH   1  14
BRANCH   3  16
ATOM     16  N   UNL     1       3.353   7.744  18.675  0.00  0.00    +0.000 N 
ATOM     17  H   UNL     1       4.088   8.170  19.222  0.00  0.00    +0.000 HD
BRANCH  16  18
ATOM     18  C   UNL     1       2.110   8.399  18.752  0.00  0.00    +0.000 A 
ATOM     19  C   UNL     1       1.562   9.074  17.652  0.00  0.00    +0.000 A 
ATOM     20  C   UNL     1       0.414   9.848  17.789  0.00  0.00    +0.000 A 
ATOM     21  C   UNL     1      -0.215   9.927  19.023  0.00  0.00    +0.000 A 
ATOM     22  F   UNL     1      -1.298  10.712  19.117  0.00  0.00    +0.000 F 
ATOM     23  C   UNL     1       0.263   9.201  20.117  0.00  0.00    +0.000 A 
ATOM     24  C   UNL     1       1.442   8.461  19.978  0.00  0.00    +0.000 A 
BRANCH  23  25
ATOM     25  O   UNL     1      -0.301   9.130  21.361  0.00  0.00    +0.000 OA
BRANCH  25  26
ATOM     26  C   UNL     1       0.064  10.130  22.321  0.00  0.00    +0.000 C 
ATOM     27  C   UNL     1      -1.026  11.194  22.472  0.00  0.00    +0.000 C 
ATOM     28  C   UNL     1       0.237   9.399  23.652  0.00  0.00    +0.000 C 
ENDBRANCH  25  26
ENDBRANCH  23  25
ENDBRANCH  16  18
ENDBRANCH   3  16
BRANCH   6  29
ATOM     29  C   UNL     1       2.036   2.875  21.372  0.00  0.00    +0.000 C 
ATOM     30  O   UNL     1       2.729   2.341  22.225  0.00  0.00    +0.000 OA
BRANCH  29  31
ATOM     31  OXT UNL     1       0.688   2.752  21.341  0.00  0.00    +0.000 OA
ATOM     32  HXT UNL     1       0.385   1.949  20.890  0.00  0.00    +0.000 HD
ENDBRANCH  29  31
ENDBRANCH   6  29
TORSDOF 7
ENDMDL
MODEL 5
REMARK VINA RESULT:      -8.1      3.145      5.676
REMARK  Name = 
REMARK  10 active torsions:
REMARK  status: ('A' for Active; 'I' for Inactive)
REMARK    1  A    between atoms: C_1  and  C_2
REMARK    2  A    between atoms: N_4  and  C_5
REMARK    3  A    between atoms: C_7  and  N_8
REMARK    4  A    between atoms: N_8  and  C_9
REMARK    5  A    between atoms: C_14  and  O_15
REMARK    6  A    between atoms: O_15  and  C_16
REMARK    7  A    between atoms: C_16  and  C_17
REMARK    8  A    between atoms: C_16  and  C_18
REMARK    9  A    between atoms: CA_22  and  C_23
REMARK   10  A    between atoms: C_23  and  OXT_25
REMARK                            x       y       z     vdW  Elec       q    Type
REMARK                         _______ _______ _______ _____ _____    ______ ____
ROOT
ATOM      1  C   UNL     1       3.518   4.127  19.532  0.00  0.00    +0.000 A 
ATOM      2  C   UNL     1       3.083   5.408  19.207  0.00  0.00    +0.000 A 
ATOM      3  C   UNL     1       3.540   6.126  18.085  0.00  0.00    +0.000 A 
ATOM      4  C   UNL     1       4.474   5.479  17.252  0.00  0.00    +0.000 A 
ATOM      5  C   UNL     1       5.116   5.848  16.037  0.00  0.00    +0.000 A 
ATOM      6  CA  UNL     1       5.954   4.818  15.651  0.00  0.00    +0.000 A 
ATOM      7  N   UNL     1       5.826   3.833  16.608  0.00  0.00    +0.000 N 
ATOM      8  C   UNL     1       4.949   4.213  17.601  0.00  0.00    +0.000 A 
ATOM      9  C   UNL     1       4.517   3.527  18.753  0.00  0.00    +0.000 A 
ATOM     10  H   UNL     1       6.310   2.943  16.566  0.00  0.00    +0.000 HD
ENDROOT
BRANCH   1  14
ATOM     11  C   UNL     1       1.320   2.306  22.011  0.00  0.00    +0.000 C 
ATOM     12  C   UNL     1       1.629   3.017  20.721  0.00  0.00    +0.000 C 
ATOM     13  O   UNL     1       0.742   3.182  19.892  0.00  0.00    +0.000 OA
ATOM     14  N   UNL     1       2.960   3.411  20.619  0.00  0.00    +0.000 N 
ATOM     15  H   UNL     1       3.609   3.038  21.301  0.00  0.00    +0.000 HD
ENDBRANCH   1  14
BRANCH   3  16
ATOM     16  N   UNL     1       3.034   7.410  17.810  0.00  0.00    +0.000 N 
ATOM     17  H   UNL     1       3.422   7.874  17.001  0.00  0.00    +0.000 HD
BRANCH  16  18
ATOM     18  C   UNL     1       2.265   8.237  18.649  0.00  0.00    +0.000 A 
ATOM     19  C   UNL     1       1.952   7.869  19.965  0.00  0.00    +0.000 A 
ATOM     20  C   UNL     1       1.061   8.621  20.724  0.00  0.00    +0.000 A 
ATOM     21  C   UNL     1       0.500   9.770  20.183  0.00  0.00    +0.000 A 
ATOM     22  F   UNL     1      -0.379  10.443  20.938  0.00  0.00    +0.000 F 
ATOM     23  C   UNL     1       0.855  10.204  18.903  0.00  0.00    +0.000 A 
ATOM     24  C   UNL     1       1.719   9.416  18.134  0.00  0.00    +0.000 A 
BRANCH  23  25
ATOM     25  O   UNL     1       0.438  11.349  18.284  0.00  0.00    +0.000 OA
BRANCH  25  26
ATOM     26  C   UNL     1       0.854  12.603  18.841  0.00  0.00    +0.000 C 
ATOM     27  C   UNL     1       2.152  13.103  18.202  0.00  0.00    +0.000 C 
ATOM     28  C   UNL     1      -0.267  13.597  18.540  0.00  0.00    +0.000 C 
ENDBRANCH  25  26
ENDBRANCH  23  25
ENDBRANCH  16  18
ENDBRANCH   3  16
BRANCH   6  29
ATOM     29  C   UNL     1       6.789   4.658  14.488  0.00  0.00    +0.000 C 
ATOM     30  O   UNL     1       7.666   5.440  14.153  0.00  0.00    +0.000 OA
BRANCH  29  31
ATOM     31  OXT UNL     1       6.473   3.558  13.766  0.00  0.00    +0.000 OA
ATOM     32  HXT UNL     1       5.522   3.464  13.602  0.00  0.00    +0.000 HD
ENDBRANCH  29  31
ENDBRANCH   6  29
TORSDOF 7
ENDMDL
MODEL 6
REMARK VINA RESULT:      -8.1      5.559      8.263
REMARK  Name = 
REMARK  10 active torsions:
REMARK  status: ('A' for Active; 'I' for Inactive)
REMARK    1  A    between atoms: C_1  and  C_2
REMARK    2  A    between atoms: N_4  and  C_5
REMARK    3  A    between atoms: C_7  and  N_8
REMARK    4  A    between atoms: N_8  and  C_9
REMARK    5  A    between atoms: C_14  and  O_15
REMARK    6  A    between atoms: O_15  and  C_16
REMARK    7  A    between atoms: C_16  and  C_17
REMARK    8  A    between atoms: C_16  and  C_18
REMARK    9  A    between atoms: CA_22  and  C_23
REMARK   10  A    between atoms: C_23  and  OXT_25
REMARK                            x       y       z     vdW  Elec       q    Type
REMARK                         _______ _______ _______ _____ _____    ______ ____
ROOT
ATOM      1  C   UNL     1       0.835  13.194  19.550  0.00  0.00    +0.000 A 
ATOM      2  C   UNL     1       1.054  11.888  19.977  0.00  0.00    +0.000 A 
ATOM      3  C   UNL     1       0.351  10.776  19.476  0.00  0.00    +0.000 A 
ATOM      4  C   UNL     1      -0.607  11.026  18.474  0.00  0.00    +0.000 A 
ATOM      5  C   UNL     1      -1.461  10.182  17.710  0.00  0.00    +0.000 A 
ATOM      6  CA  UNL     1      -2.211  10.970  16.857  0.00  0.00    +0.000 A 
ATOM      7  N   UNL     1      -1.823  12.273  17.089  0.00  0.00    +0.000 N 
ATOM      8  C   UNL     1      -0.864  12.340  18.078  0.00  0.00    +0.000 A 
ATOM      9  C   UNL     1      -0.185  13.447  18.622  0.00  0.00    +0.000 A 
ATOM     10  H   UNL     1      -2.192  13.069  16.581  0.00  0.00    +0.000 HD
ENDROOT
BRANCH   1  14
ATOM     11  C   UNL     1       3.487  15.807  20.208  0.00  0.00    +0.000 C 
ATOM     12  C   UNL     1       2.852  14.658  19.473  0.00  0.00    +0.000 C 
ATOM     13  O   UNL     1       3.414  14.177  18.497  0.00  0.00    +0.000 OA
ATOM     14  N   UNL     1       1.631  14.268  20.018  0.00  0.00    +0.000 N 
ATOM     15  H   UNL     1       1.212  14.881  20.706  0.00  0.00    +0.000 HD
ENDBRANCH   1  14
BRANCH   3  16
ATOM     16  N   UNL     1       0.647   9.481  19.942  0.00  0.00    +0.000 N 
ATOM     17  H   UNL     1       0.311   9.257  20.869  0.00  0.00    +0.000 HD
BRANCH  16  18
ATOM     18  C   UNL     1       1.565   8.557  19.412  0.00  0.00    +0.000 A 
ATOM     19  C   UNL     1       2.180   8.757  18.167  0.00  0.00    +0.000 A 
ATOM     20  C   UNL     1       2.959   7.761  17.587  0.00  0.00    +0.000 A 
ATOM     21  C   UNL     1       3.158   6.566  18.265  0.00  0.00    +0.000 A 
ATOM     22  F   UNL     1       3.887   5.622  17.653  0.00  0.00    +0.000 F 
ATOM     23  C   UNL     1       2.624   6.370  19.541  0.00  0.00    +0.000 A 
ATOM     24  C   UNL     1       1.807   7.362  20.095  0.00  0.00    +0.000 A 
BRANCH  23  25
ATOM     25  O   UNL     1       2.805   5.278  20.345  0.00  0.00    +0.000 OA
BRANCH  25  26
ATOM     26  C   UNL     1       1.662   4.466  20.641  0.00  0.00    +0.000 C 
ATOM     27  C   UNL     1       1.155   3.728  19.400  0.00  0.00    +0.000 C 
ATOM     28  C   UNL     1       2.124   3.442  21.677  0.00  0.00    +0.000 C 
ENDBRANCH  25  26
ENDBRANCH  23  25
ENDBRANCH  16  18
ENDBRANCH   3  16
BRANCH   6  29
ATOM     29  C   UNL     1      -3.181  10.624  15.851  0.00  0.00    +0.000 C 
ATOM     30  O   UNL     1      -2.908  10.136  14.764  0.00  0.00    +0.000 OA
BRANCH  29  31
ATOM     31  OXT UNL     1      -4.447  10.937  16.216  0.00  0.00    +0.000 OA
ATOM     32  HXT UNL     1      -5.057  11.010  15.465  0.00  0.00    +0.000 HD
ENDBRANCH  29  31
ENDBRANCH   6  29
TORSDOF 7
ENDMDL
MODEL 7
REMARK VINA RESULT:      -7.7      3.185      5.977
REMARK  Name = 
REMARK  10 active torsions:
REMARK  status: ('A' for Active; 'I' for Inactive)
REMARK    1  A    between atoms: C_1  and  C_2
REMARK    2  A    between atoms: N_4  and  C_5
REMARK    3  A    between atoms: C_7  and  N_8
REMARK    4  A    between atoms: N_8  and  C_9
REMARK    5  A    between atoms: C_14  and  O_15
REMARK    6  A    between atoms: O_15  and  C_16
REMARK    7  A    between atoms: C_16  and  C_17
REMARK    8  A    between atoms: C_16  and  C_18
REMARK    9  A    between atoms: CA_22  and  C_23
REMARK   10  A    between atoms: C_23  and  OXT_25
REMARK                            x       y       z     vdW  Elec       q    Type
REMARK                         _______ _______ _______ _____ _____    ______ ____
ROOT
ATOM      1  C   UNL     1       2.554   4.354  19.417  0.00  0.00    +0.000 A 
ATOM      2  C   UNL     1       2.441   5.724  19.202  0.00  0.00    +0.000 A 
ATOM      3  C   UNL     1       3.201   6.430  18.251  0.00  0.00    +0.000 A 
ATOM      4  C   UNL     1       4.104   5.679  17.473  0.00  0.00    +0.000 A 
ATOM      5  C   UNL     1       4.988   6.016  16.409  0.00  0.00    +0.000 A 
ATOM      6  CA  UNL     1       5.652   4.871  16.010  0.00  0.00    +0.000 A 
ATOM      7  N   UNL     1       5.183   3.849  16.809  0.00  0.00    +0.000 N 
ATOM      8  C   UNL     1       4.256   4.313  17.719  0.00  0.00    +0.000 A 
ATOM      9  C   UNL     1       3.522   3.630  18.707  0.00  0.00    +0.000 A 
ATOM     10  H   UNL     1       5.479   2.884  16.719  0.00  0.00    +0.000 HD
ENDROOT
BRANCH   1  14
ATOM     11  C   UNL     1       0.993   2.274  22.162  0.00  0.00    +0.000 C 
ATOM     12  C   UNL     1       2.127   2.910  21.404  0.00  0.00    +0.000 C 
ATOM     13  O   UNL     1       3.281   2.731  21.776  0.00  0.00    +0.000 OA
ATOM     14  N   UNL     1       1.702   3.674  20.321  0.00  0.00    +0.000 N 
ATOM     15  H   UNL     1       0.712   3.878  20.256  0.00  0.00    +0.000 HD
ENDBRANCH   1  14
BRANCH   3  16
ATOM     16  N   UNL     1       3.011   7.813  18.076  0.00  0.00    +0.000 N 
ATOM     17  H   UNL     1       3.840   8.349  17.856  0.00  0.00    +0.000 HD
BRANCH  16  18
ATOM     18  C   UNL     1       1.888   8.586  18.425  0.00  0.00    +0.000 A 
ATOM     19  C   UNL     1       0.884   8.891  17.495  0.00  0.00    +0.000 A 
ATOM     20  C   UNL     1      -0.134   9.785  17.811  0.00  0.00    +0.000 A 
ATOM     21  C   UNL     1      -0.174  10.358  19.075  0.00  0.00    +0.000 A 
ATOM     22  F   UNL     1      -1.153  11.240  19.323  0.00  0.00    +0.000 F 
ATOM     23  C   UNL     1       0.768  10.011  20.047  0.00  0.00    +0.000 A 
ATOM     24  C   UNL     1       1.810   9.144  19.704  0.00  0.00    +0.000 A 
BRANCH  23  25
ATOM     25  O   UNL     1       0.798  10.440  21.345  0.00  0.00    +0.000 OA
BRANCH  25  26
ATOM     26  C   UNL     1      -0.358  10.199  22.158  0.00  0.00    +0.000 C 
ATOM     27  C   UNL     1      -0.018   9.349  23.385  0.00  0.00    +0.000 C 
ATOM     28  C   UNL     1      -0.848  11.570  22.621  0.00  0.00    +0.000 C 
ENDBRANCH  25  26
ENDBRANCH  23  25
ENDBRANCH  16  18
ENDBRANCH   3  16
BRANCH   6  29
ATOM     29  C   UNL     1       6.609   4.646  14.957  0.00  0.00    +0.000 C 
ATOM     30  O   UNL     1       7.525   5.406  14.680  0.00  0.00    +0.000 OA
BRANCH  29  31
ATOM     31  OXT UNL     1       6.365   3.510  14.263  0.00  0.00    +0.000 OA
ATOM     32  HXT UNL     1       5.761   3.638  13.514  0.00  0.00    +0.000 HD
ENDBRANCH  29  31
ENDBRANCH   6  29
TORSDOF 7
ENDMDL
MODEL 8
REMARK VINA RESULT:      -7.7      3.032      5.741
REMARK  Name = 
REMARK  10 active torsions:
REMARK  status: ('A' for Active; 'I' for Inactive)
REMARK    1  A    between atoms: C_1  and  C_2
REMARK    2  A    between atoms: N_4  and  C_5
REMARK    3  A    between atoms: C_7  and  N_8
REMARK    4  A    between atoms: N_8  and  C_9
REMARK    5  A    between atoms: C_14  and  O_15
REMARK    6  A    between atoms: O_15  and  C_16
REMARK    7  A    between atoms: C_16  and  C_17
REMARK    8  A    between atoms: C_16  and  C_18
REMARK    9  A    between atoms: CA_22  and  C_23
REMARK   10  A    between atoms: C_23  and  OXT_25
REMARK                            x       y       z     vdW  Elec       q    Type
REMARK                         _______ _______ _______ _____ _____    ______ ____
ROOT
ATOM      1  C   UNL     1       3.331   4.620  19.617  0.00  0.00    +0.000 A 
ATOM      2  C   UNL     1       2.986   5.920  19.262  0.00  0.00    +0.000 A 
ATOM      3  C   UNL     1       3.496   6.580  18.128  0.00  0.00    +0.000 A 
ATOM      4  C   UNL     1       4.388   5.852  17.315  0.00  0.00    +0.000 A 
ATOM      5  C   UNL     1       5.059   6.149  16.095  0.00  0.00    +0.000 A 
ATOM      6  CA  UNL     1       5.826   5.056  15.737  0.00  0.00    +0.000 A 
ATOM      7  N   UNL     1       5.627   4.104  16.714  0.00  0.00    +0.000 N 
ATOM      8  C   UNL     1       4.774   4.565  17.694  0.00  0.00    +0.000 A 
ATOM      9  C   UNL     1       4.290   3.936  18.858  0.00  0.00    +0.000 A 
ATOM     10  H   UNL     1       6.049   3.183  16.695  0.00  0.00    +0.000 HD
ENDROOT
BRANCH   1  14
ATOM     11  C   UNL     1       1.208   2.554  21.967  0.00  0.00    +0.000 C 
ATOM     12  C   UNL     1       1.678   3.049  20.626  0.00  0.00    +0.000 C 
ATOM     13  O   UNL     1       1.150   2.627  19.605  0.00  0.00    +0.000 OA
ATOM     14  N   UNL     1       2.720   3.968  20.716  0.00  0.00    +0.000 N 
ATOM     15  H   UNL     1       3.171   4.072  21.617  0.00  0.00    +0.000 HD
ENDBRANCH   1  14
BRANCH   3  16
ATOM     16  N   UNL     1       3.080   7.889  17.821  0.00  0.00    +0.000 N 
ATOM     17  H   UNL     1       3.746   8.458  17.317  0.00  0.00    +0.000 HD
BRANCH  16  18
ATOM     18  C   UNL     1       1.984   8.596  18.347  0.00  0.00    +0.000 A 
ATOM     19  C   UNL     1       0.900   8.983  17.545  0.00  0.00    +0.000 A 
ATOM     20  C   UNL     1      -0.095   9.817  18.043  0.00  0.00    +0.000 A 
ATOM     21  C   UNL     1      -0.034  10.244  19.362  0.00  0.00    +0.000 A 
ATOM     22  F   UNL     1      -0.996  11.074  19.789  0.00  0.00    +0.000 F 
ATOM     23  C   UNL     1       0.991   9.810  20.207  0.00  0.00    +0.000 A 
ATOM     24  C   UNL     1       2.009   9.007  19.683  0.00  0.00    +0.000 A 
BRANCH  23  25
ATOM     25  O   UNL     1       1.128  10.093  21.538  0.00  0.00    +0.000 OA
BRANCH  25  26
ATOM     26  C   UNL     1       0.296   9.381  22.464  0.00  0.00    +0.000 C 
ATOM     27  C   UNL     1      -0.779  10.286  23.070  0.00  0.00    +0.000 C 
ATOM     28  C   UNL     1      -0.381   8.270  21.662  0.00  0.00    +0.000 C 
ENDBRANCH  25  26
ENDBRANCH  23  25
ENDBRANCH  16  18
ENDBRANCH   3  16
BRANCH   6  29
ATOM     29  C   UNL     1       6.653   4.814  14.583  0.00  0.00    +0.000 C 
ATOM     30  O   UNL     1       6.404   3.995  13.712  0.00  0.00    +0.000 OA
BRANCH  29  31
ATOM     31  OXT UNL     1       7.778   5.568  14.580  0.00  0.00    +0.000 OA
ATOM     32  HXT UNL     1       7.889   6.089  13.769  0.00  0.00    +0.000 HD
ENDBRANCH  29  31
ENDBRANCH   6  29
TORSDOF 7
ENDMDL
MODEL 9
REMARK VINA RESULT:      -7.6      3.083      5.637
REMARK  Name = 
REMARK  10 active torsions:
REMARK  status: ('A' for Active; 'I' for Inactive)
REMARK    1  A    between atoms: C_1  and  C_2
REMARK    2  A    between atoms: N_4  and  C_5
REMARK    3  A    between atoms: C_7  and  N_8
REMARK    4  A    between atoms: N_8  and  C_9
REMARK    5  A    between atoms: C_14  and  O_15
REMARK    6  A    between atoms: O_15  and  C_16
REMARK    7  A    between atoms: C_16  and  C_17
REMARK    8  A    between atoms: C_16  and  C_18
REMARK    9  A    between atoms: CA_22  and  C_23
REMARK   10  A    between atoms: C_23  and  OXT_25
REMARK                            x       y       z     vdW  Elec       q    Type
REMARK                         _______ _______ _______ _____ _____    ______ ____
ROOT
ATOM      1  C   UNL     1       3.480   4.130  19.545  0.00  0.00    +0.000 A 
ATOM      2  C   UNL     1       3.019   5.408  19.244  0.00  0.00    +0.000 A 
ATOM      3  C   UNL     1       3.453   6.151  18.130  0.00  0.00    +0.000 A 
ATOM      4  C   UNL     1       4.391   5.533  17.279  0.00  0.00    +0.000 A 
ATOM      5  C   UNL     1       5.014   5.933  16.063  0.00  0.00    +0.000 A 
ATOM      6  CA  UNL     1       5.867   4.924  15.654  0.00  0.00    +0.000 A 
ATOM      7  N   UNL     1       5.766   3.922  16.596  0.00  0.00    +0.000 N 
ATOM      8  C   UNL     1       4.892   4.271  17.604  0.00  0.00    +0.000 A 
ATOM      9  C   UNL     1       4.482   3.560  18.748  0.00  0.00    +0.000 A 
ATOM     10  H   UNL     1       6.265   3.042  16.536  0.00  0.00    +0.000 HD
ENDROOT
BRANCH   1  14
ATOM     11  C   UNL     1       1.334   2.246  22.024  0.00  0.00    +0.000 C 
ATOM     12  C   UNL     1       1.616   2.988  20.746  0.00  0.00    +0.000 C 
ATOM     13  O   UNL     1       0.713   3.172  19.939  0.00  0.00    +0.000 OA
ATOM     14  N   UNL     1       2.945   3.387  20.626  0.00  0.00    +0.000 N 
ATOM     15  H   UNL     1       3.608   2.998  21.285  0.00  0.00    +0.000 HD
ENDBRANCH   1  14
BRANCH   3  16
ATOM     16  N   UNL     1       2.922   7.429  17.880  0.00  0.00    +0.000 N 
ATOM     17  H   UNL     1       3.274   7.902  17.059  0.00  0.00    +0.000 HD
BRANCH  16  18
ATOM     18  C   UNL     1       2.173   8.243  18.750  0.00  0.00    +0.000 A 
ATOM     19  C   UNL     1       1.922   7.871  20.078  0.00  0.00    +0.000 A 
ATOM     20  C   UNL     1       1.050   8.607  20.874  0.00  0.00    +0.000 A 
ATOM     21  C   UNL     1       0.446   9.745  20.356  0.00  0.00    +0.000 A 
ATOM     22  F   UNL     1      -0.413  10.403  21.146  0.00  0.00    +0.000 F 
ATOM     23  C   UNL     1       0.739  10.184  19.062  0.00  0.00    +0.000 A 
ATOM     24  C   UNL     1       1.584   9.411  18.258  0.00  0.00    +0.000 A 
BRANCH  23  25
ATOM     25  O   UNL     1       0.275  11.321  18.460  0.00  0.00    +0.000 OA
BRANCH  25  26
ATOM     26  C   UNL     1      -1.075  11.322  17.979  0.00  0.00    +0.000 C 
ATOM     27  C   UNL     1      -1.666   9.911  17.947  0.00  0.00    +0.000 C 
ATOM     28  C   UNL     1      -1.877  12.177  18.961  0.00  0.00    +0.000 C 
ENDBRANCH  25  26
ENDBRANCH  23  25
ENDBRANCH  16  18
ENDBRANCH   3  16
BRANCH   6  29
ATOM     29  C   UNL     1       6.694   4.797  14.481  0.00  0.00    +0.000 C 
ATOM     30  O   UNL     1       6.447   4.064  13.536  0.00  0.00    +0.000 OA
BRANCH  29  31
ATOM     31  OXT UNL     1       7.814   5.554  14.549  0.00  0.00    +0.000 OA
ATOM     32  HXT UNL     1       8.543   5.212  14.007  0.00  0.00    +0.000 HD
ENDBRANCH  29  31
ENDBRANCH   6  29
TORSDOF 7
ENDMDL
