MODEL 1
REMARK VINA RESULT:      -7.8      0.000      0.000
REMARK  Name = 
REMARK  10 active torsions:
REMARK  status: ('A' for Active; 'I' for Inactive)
REMARK    1  A    between atoms: C_1  and  C_2
REMARK    2  A    between atoms: C_2  and  C_3
REMARK    3  A    between atoms: C_2  and  N_6
REMARK    4  A    between atoms: C_3  and  O_5
REMARK    5  A    between atoms: N_6  and  C_7
REMARK    6  A    between atoms: N_6  and  S_17
REMARK    7  A    between atoms: C_7  and  C_8
REMARK    8  A    between atoms: C_13  and  N_14
REMARK    9  A    between atoms: S_17  and  C_18
REMARK   10  A    between atoms: C_21  and  N_22
REMARK                            x       y       z     vdW  Elec       q    Type
REMARK                         _______ _______ _______ _____ _____    ______ ____
ROOT
ATOM      1  N   UNL     1       2.944   5.160  19.434  0.00  0.00    +0.000 NA
ENDROOT
BRANCH   1   3
ATOM      2  C   UNL     1       0.843   3.820  20.187  0.00  0.00    +0.000 C 
ATOM      3  C   UNL     1       2.186   3.851  19.444  0.00  0.00    +0.000 C 
BRANCH   3   4
ATOM      4  C   UNL     1       1.849   3.408  18.011  0.00  0.00    +0.000 C 
ATOM      5  O   UNL     1       2.080   2.293  17.563  0.00  0.00    +0.000 OA
BRANCH   4   6
ATOM      6  O   UNL     1       1.182   4.352  17.296  0.00  0.00    +0.000 OA
ATOM      7  H   UNL     1       0.232   4.104  17.254  0.00  0.00    +0.000 HD
ENDBRANCH   4   6
ENDBRANCH   3   4
ENDBRANCH   1   3
BRANCH   1   8
ATOM      8  C   UNL     1       2.191   6.245  20.143  0.00  0.00    +0.000 C 
BRANCH   8   9
ATOM      9  C   UNL     1       1.992   7.600  19.461  0.00  0.00    +0.000 A 
ATOM     10  C   UNL     1       2.473   7.885  18.171  0.00  0.00    +0.000 A 
ATOM     11  C   UNL     1       2.221   9.106  17.535  0.00  0.00    +0.000 A 
ATOM     12  C   UNL     1       1.467  10.089  18.164  0.00  0.00    +0.000 A 
ATOM     13  C   UNL     1       1.001   9.869  19.455  0.00  0.00    +0.000 A 
ATOM     14  C   UNL     1       1.277   8.647  20.095  0.00  0.00    +0.000 A 
BRANCH  14  15
ATOM     15  N   UNL     1       0.813   8.524  21.471  0.00  0.00    +0.000 N 
ATOM     16  O   UNL     1       1.601   8.849  22.372  0.00  0.00    +0.000 OA
ATOM     17  O   UNL     1      -0.334   8.097  21.643  0.00  0.00    +0.000 OA
ENDBRANCH  14  15
ENDBRANCH   8   9
ENDBRANCH   1   8
BRANCH   1  18
ATOM     18  S   UNL     1       4.634   5.063  19.643  0.00  0.00    +0.000 S 
BRANCH  18  19
ATOM     19  C   UNL     1       5.326   5.076  18.002  0.00  0.00    +0.000 A 
ATOM     20  C   UNL     1       6.668   4.705  17.838  0.00  0.00    +0.000 A 
ATOM     21  C   UNL     1       7.241   4.636  16.565  0.00  0.00    +0.000 A 
ATOM     22  C   UNL     1       6.459   4.934  15.446  0.00  0.00    +0.000 A 
ATOM     23  C   UNL     1       5.113   5.297  15.593  0.00  0.00    +0.000 A 
ATOM     24  C   UNL     1       4.550   5.362  16.874  0.00  0.00    +0.000 A 
BRANCH  22  25
ATOM     25  N   UNL     1       7.053   4.862  14.103  0.00  0.00    +0.000 N 
ATOM     26  O   UNL     1       8.014   5.606  13.859  0.00  0.00    +0.000 OA
ATOM     27  O   UNL     1       6.561   4.062  13.298  0.00  0.00    +0.000 OA
ENDBRANCH  22  25
ENDBRANCH  18  19
ENDBRANCH   1  18
TORSDOF 9
ENDMDL
MODEL 2
REMARK VINA RESULT:      -7.6      0.717      1.135
REMARK  Name = 
REMARK  10 active torsions:
REMARK  status: ('A' for Active; 'I' for Inactive)
REMARK    1  A    between atoms: C_1  and  C_2
REMARK    2  A    between atoms: C_2  and  C_3
REMARK    3  A    between atoms: C_2  and  N_6
REMARK    4  A    between atoms: C_3  and  O_5
REMARK    5  A    between atoms: N_6  and  C_7
REMARK    6  A    between atoms: N_6  and  S_17
REMARK    7  A    between atoms: C_7  and  C_8
REMARK    8  A    between atoms: C_13  and  N_14
REMARK    9  A    between atoms: S_17  and  C_18
REMARK   10  A    between atoms: C_21  and  N_22
REMARK                            x       y       z     vdW  Elec       q    Type
REMARK                         _______ _______ _______ _____ _____    ______ ____
ROOT
ATOM      1  N   UNL     1       3.074   4.477  19.577  0.00  0.00    +0.000 NA
ENDROOT
BRANCH   1   3
ATOM      2  C   UNL     1       0.910   3.438  20.582  0.00  0.00    +0.000 C 
ATOM      3  C   UNL     1       2.218   3.250  19.802  0.00  0.00    +0.000 C 
BRANCH   3   4
ATOM      4  C   UNL     1       1.788   2.636  18.460  0.00  0.00    +0.000 C 
ATOM      5  O   UNL     1       0.984   3.150  17.695  0.00  0.00    +0.000 OA
BRANCH   4   6
ATOM      6  O   UNL     1       2.454   1.493  18.150  0.00  0.00    +0.000 OA
ATOM      7  H   UNL     1       2.040   1.091  17.354  0.00  0.00    +0.000 HD
ENDBRANCH   4   6
ENDBRANCH   3   4
ENDBRANCH   1   3
BRANCH   1   8
ATOM      8  C   UNL     1       2.468   5.700  20.194  0.00  0.00    +0.000 C 
BRANCH   8   9
ATOM      9  C   UNL     1       2.365   6.990  19.378  0.00  0.00    +0.000 A 
ATOM     10  C   UNL     1       2.962   7.145  18.114  0.00  0.00    +0.000 A 
ATOM     11  C   UNL     1       2.798   8.307  17.351  0.00  0.00    +0.000 A 
ATOM     12  C   UNL     1       2.022   9.359  17.820  0.00  0.00    +0.000 A 
ATOM     13  C   UNL     1       1.442   9.269  19.080  0.00  0.00    +0.000 A 
ATOM     14  C   UNL     1       1.629   8.106  19.849  0.00  0.00    +0.000 A 
BRANCH  14  15
ATOM     15  N   UNL     1       1.046   8.120  21.185  0.00  0.00    +0.000 N 
ATOM     16  O   UNL     1       1.691   8.677  22.086  0.00  0.00    +0.000 OA
ATOM     17  O   UNL     1      -0.051   7.567  21.328  0.00  0.00    +0.000 OA
ENDBRANCH  14  15
ENDBRANCH   8   9
ENDBRANCH   1   8
BRANCH   1  18
ATOM     18  S   UNL     1       4.762   4.257  19.681  0.00  0.00    +0.000 S 
BRANCH  18  19
ATOM     19  C   UNL     1       5.380   4.463  18.024  0.00  0.00    +0.000 A 
ATOM     20  C   UNL     1       6.724   4.828  17.850  0.00  0.00    +0.000 A 
ATOM     21  C   UNL     1       7.275   4.940  16.570  0.00  0.00    +0.000 A 
ATOM     22  C   UNL     1       6.475   4.675  15.455  0.00  0.00    +0.000 A 
ATOM     23  C   UNL     1       5.134   4.299  15.613  0.00  0.00    +0.000 A 
ATOM     24  C   UNL     1       4.593   4.190  16.900  0.00  0.00    +0.000 A 
BRANCH  22  25
ATOM     25  N   UNL     1       7.048   4.789  14.106  0.00  0.00    +0.000 N 
ATOM     26  O   UNL     1       6.592   4.049  13.223  0.00  0.00    +0.000 OA
ATOM     27  O   UNL     1       7.948   5.619  13.931  0.00  0.00    +0.000 OA
ENDBRANCH  22  25
ENDBRANCH  18  19
ENDBRANCH   1  18
TORSDOF 9
ENDMDL
MODEL 3
REMARK VINA RESULT:      -7.5      0.501      1.157
REMARK  Name = 
REMARK  10 active torsions:
REMARK  status: ('A' for Active; 'I' for Inactive)
REMARK    1  A    between atoms: C_1  and  C_2
REMARK    2  A    between atoms: C_2  and  C_3
REMARK    3  A    between atoms: C_2  and  N_6
REMARK    4  A    between atoms: C_3  and  O_5
REMARK    5  A    between atoms: N_6  and  C_7
REMARK    6  A    between atoms: N_6  and  S_17
REMARK    7  A    between atoms: C_7  and  C_8
REMARK    8  A    between atoms: C_13  and  N_14
REMARK    9  A    between atoms: S_17  and  C_18
REMARK   10  A    between atoms: C_21  and  N_22
REMARK                            x       y       z     vdW  Elec       q    Type
REMARK                         _______ _______ _______ _____ _____    ______ ____
ROOT
ATOM      1  N   UNL     1       3.100   4.796  19.505  0.00  0.00    +0.000 NA
ENDROOT
BRANCH   1   3
ATOM      2  C   UNL     1       0.784   3.863  20.241  0.00  0.00    +0.000 C 
ATOM      3  C   UNL     1       2.118   3.645  19.513  0.00  0.00    +0.000 C 
BRANCH   3   4
ATOM      4  C   UNL     1       1.721   3.261  18.078  0.00  0.00    +0.000 C 
ATOM      5  O   UNL     1       1.857   2.141  17.604  0.00  0.00    +0.000 OA
BRANCH   4   6
ATOM      6  O   UNL     1       1.116   4.268  17.397  0.00  0.00    +0.000 OA
ATOM      7  H   UNL     1       0.160   4.057  17.303  0.00  0.00    +0.000 HD
ENDBRANCH   4   6
ENDBRANCH   3   4
ENDBRANCH   1   3
BRANCH   1   8
ATOM      8  C   UNL     1       2.551   6.003  20.203  0.00  0.00    +0.000 C 
BRANCH   8   9
ATOM      9  C   UNL     1       2.302   7.289  19.413  0.00  0.00    +0.000 A 
ATOM     10  C   UNL     1       2.828   7.510  18.128  0.00  0.00    +0.000 A 
ATOM     11  C   UNL     1       2.532   8.664  17.391  0.00  0.00    +0.000 A 
ATOM     12  C   UNL     1       1.691   9.639  17.910  0.00  0.00    +0.000 A 
ATOM     13  C   UNL     1       1.176   9.483  19.193  0.00  0.00    +0.000 A 
ATOM     14  C   UNL     1       1.495   8.331  19.934  0.00  0.00    +0.000 A 
BRANCH  14  15
ATOM     15  N   UNL     1       0.974   8.279  21.294  0.00  0.00    +0.000 N 
ATOM     16  O   UNL     1      -0.139   7.758  21.461  0.00  0.00    +0.000 OA
ATOM     17  O   UNL     1       1.678   8.765  22.187  0.00  0.00    +0.000 OA
ENDBRANCH  14  15
ENDBRANCH   8   9
ENDBRANCH   1   8
BRANCH   1  18
ATOM     18  S   UNL     1       4.743   4.396  19.728  0.00  0.00    +0.000 S 
BRANCH  18  19
ATOM     19  C   UNL     1       5.487   4.483  18.112  0.00  0.00    +0.000 A 
ATOM     20  C   UNL     1       4.721   4.101  17.001  0.00  0.00    +0.000 A 
ATOM     21  C   UNL     1       5.235   4.212  15.706  0.00  0.00    +0.000 A 
ATOM     22  C   UNL     1       6.524   4.719  15.523  0.00  0.00    +0.000 A 
ATOM     23  C   UNL     1       7.298   5.115  16.622  0.00  0.00    +0.000 A 
ATOM     24  C   UNL     1       6.772   5.000  17.916  0.00  0.00    +0.000 A 
BRANCH  22  25
ATOM     25  N   UNL     1       7.072   4.840  14.164  0.00  0.00    +0.000 N 
ATOM     26  O   UNL     1       8.004   5.637  13.988  0.00  0.00    +0.000 OA
ATOM     27  O   UNL     1       6.571   4.138  13.277  0.00  0.00    +0.000 OA
ENDBRANCH  22  25
ENDBRANCH  18  19
ENDBRANCH   1  18
TORSDOF 9
ENDMDL
MODEL 4
REMARK VINA RESULT:      -7.5      1.230      1.593
REMARK  Name = 
REMARK  10 active torsions:
REMARK  status: ('A' for Active; 'I' for Inactive)
REMARK    1  A    between atoms: C_1  and  C_2
REMARK    2  A    between atoms: C_2  and  C_3
REMARK    3  A    between atoms: C_2  and  N_6
REMARK    4  A    between atoms: C_3  and  O_5
REMARK    5  A    between atoms: N_6  and  C_7
REMARK    6  A    between atoms: N_6  and  S_17
REMARK    7  A    between atoms: C_7  and  C_8
REMARK    8  A    between atoms: C_13  and  N_14
REMARK    9  A    between atoms: S_17  and  C_18
REMARK   10  A    between atoms: C_21  and  N_22
REMARK                            x       y       z     vdW  Elec       q    Type
REMARK                         _______ _______ _______ _____ _____    ______ ____
ROOT
ATOM      1  N   UNL     1       2.432   5.014  19.837  0.00  0.00    +0.000 NA
ENDROOT
BRANCH   1   3
ATOM      2  C   UNL     1       0.845   3.392  18.560  0.00  0.00    +0.000 C 
ATOM      3  C   UNL     1       1.291   4.022  19.888  0.00  0.00    +0.000 C 
BRANCH   3   4
ATOM      4  C   UNL     1       1.651   2.827  20.785  0.00  0.00    +0.000 C 
ATOM      5  O   UNL     1       1.570   2.834  22.006  0.00  0.00    +0.000 OA
BRANCH   4   6
ATOM      6  O   UNL     1       1.990   1.711  20.088  0.00  0.00    +0.000 OA
ATOM      7  H   UNL     1       2.050   1.939  19.134  0.00  0.00    +0.000 HD
ENDBRANCH   4   6
ENDBRANCH   3   4
ENDBRANCH   1   3
BRANCH   1   8
ATOM      8  C   UNL     1       2.081   6.303  20.514  0.00  0.00    +0.000 C 
BRANCH   8   9
ATOM      9  C   UNL     1       1.952   7.584  19.686  0.00  0.00    +0.000 A 
ATOM     10  C   UNL     1       2.454   7.702  18.378  0.00  0.00    +0.000 A 
ATOM     11  C   UNL     1       2.266   8.858  17.610  0.00  0.00    +0.000 A 
ATOM     12  C   UNL     1       1.560   9.939  18.120  0.00  0.00    +0.000 A 
ATOM     13  C   UNL     1       1.076   9.885  19.423  0.00  0.00    +0.000 A 
ATOM     14  C   UNL     1       1.288   8.728  20.195  0.00  0.00    +0.000 A 
BRANCH  14  15
ATOM     15  N   UNL     1       0.811   8.779  21.571  0.00  0.00    +0.000 N 
ATOM     16  O   UNL     1       1.591   9.214  22.432  0.00  0.00    +0.000 OA
ATOM     17  O   UNL     1      -0.339   8.377  21.784  0.00  0.00    +0.000 OA
ENDBRANCH  14  15
ENDBRANCH   8   9
ENDBRANCH   1   8
BRANCH   1  18
ATOM     18  S   UNL     1       4.001   4.379  20.046  0.00  0.00    +0.000 S 
BRANCH  18  19
ATOM     19  C   UNL     1       4.792   4.509  18.455  0.00  0.00    +0.000 A 
ATOM     20  C   UNL     1       6.176   4.735  18.411  0.00  0.00    +0.000 A 
ATOM     21  C   UNL     1       6.855   4.780  17.190  0.00  0.00    +0.000 A 
ATOM     22  C   UNL     1       6.141   4.589  16.004  0.00  0.00    +0.000 A 
ATOM     23  C   UNL     1       4.761   4.352  16.032  0.00  0.00    +0.000 A 
ATOM     24  C   UNL     1       4.091   4.308  17.261  0.00  0.00    +0.000 A 
BRANCH  22  25
ATOM     25  N   UNL     1       6.848   4.634  14.716  0.00  0.00    +0.000 N 
ATOM     26  O   UNL     1       6.467   3.863  13.823  0.00  0.00    +0.000 OA
ATOM     27  O   UNL     1       7.779   5.440  14.597  0.00  0.00    +0.000 OA
ENDBRANCH  22  25
ENDBRANCH  18  19
ENDBRANCH   1  18
TORSDOF 9
ENDMDL
MODEL 5
REMARK VINA RESULT:      -7.4      1.028      1.560
REMARK  Name = 
REMARK  10 active torsions:
REMARK  status: ('A' for Active; 'I' for Inactive)
REMARK    1  A    between atoms: C_1  and  C_2
REMARK    2  A    between atoms: C_2  and  C_3
REMARK    3  A    between atoms: C_2  and  N_6
REMARK    4  A    between atoms: C_3  and  O_5
REMARK    5  A    between atoms: N_6  and  C_7
REMARK    6  A    between atoms: N_6  and  S_17
REMARK    7  A    between atoms: C_7  and  C_8
REMARK    8  A    between atoms: C_13  and  N_14
REMARK    9  A    between atoms: S_17  and  C_18
REMARK   10  A    between atoms: C_21  and  N_22
REMARK                            x       y       z     vdW  Elec       q    Type
REMARK                         _______ _______ _______ _____ _____    ______ ____
ROOT
ATOM      1  N   UNL     1       2.941   5.485  19.250  0.00  0.00    +0.000 NA
ENDROOT
BRANCH   1   3
ATOM      2  C   UNL     1       2.076   3.574  17.708  0.00  0.00    +0.000 C 
ATOM      3  C   UNL     1       2.227   4.157  19.120  0.00  0.00    +0.000 C 
BRANCH   3   4
ATOM      4  C   UNL     1       2.961   3.066  19.917  0.00  0.00    +0.000 C 
ATOM      5  O   UNL     1       3.788   2.303  19.437  0.00  0.00    +0.000 OA
BRANCH   4   6
ATOM      6  O   UNL     1       2.670   3.079  21.244  0.00  0.00    +0.000 OA
ATOM      7  H   UNL     1       3.509   3.154  21.751  0.00  0.00    +0.000 HD
ENDBRANCH   4   6
ENDBRANCH   3   4
ENDBRANCH   1   3
BRANCH   1   8
ATOM      8  C   UNL     1       2.134   6.478  20.029  0.00  0.00    +0.000 C 
BRANCH   8   9
ATOM      9  C   UNL     1       1.904   7.880  19.460  0.00  0.00    +0.000 A 
ATOM     10  C   UNL     1       2.386   8.284  18.203  0.00  0.00    +0.000 A 
ATOM     11  C   UNL     1       2.106   9.547  17.669  0.00  0.00    +0.000 A 
ATOM     12  C   UNL     1       1.324  10.455  18.371  0.00  0.00    +0.000 A 
ATOM     13  C   UNL     1       0.856  10.117  19.635  0.00  0.00    +0.000 A 
ATOM     14  C   UNL     1       1.159   8.852  20.173  0.00  0.00    +0.000 A 
BRANCH  14  15
ATOM     15  N   UNL     1       0.690   8.604  21.531  0.00  0.00    +0.000 N 
ATOM     16  O   UNL     1       1.468   8.860  22.462  0.00  0.00    +0.000 OA
ATOM     17  O   UNL     1      -0.452   8.147  21.657  0.00  0.00    +0.000 OA
ENDBRANCH  14  15
ENDBRANCH   8   9
ENDBRANCH   1   8
BRANCH   1  18
ATOM     18  S   UNL     1       4.627   5.419  19.503  0.00  0.00    +0.000 S 
BRANCH  18  19
ATOM     19  C   UNL     1       5.350   5.196  17.891  0.00  0.00    +0.000 A 
ATOM     20  C   UNL     1       4.729   5.803  16.789  0.00  0.00    +0.000 A 
ATOM     21  C   UNL     1       5.291   5.713  15.512  0.00  0.00    +0.000 A 
ATOM     22  C   UNL     1       6.491   5.016  15.340  0.00  0.00    +0.000 A 
ATOM     23  C   UNL     1       7.128   4.414  16.433  0.00  0.00    +0.000 A 
ATOM     24  C   UNL     1       6.555   4.511  17.708  0.00  0.00    +0.000 A 
BRANCH  22  25
ATOM     25  N   UNL     1       7.089   4.918  14.002  0.00  0.00    +0.000 N 
ATOM     26  O   UNL     1       8.038   5.671  13.738  0.00  0.00    +0.000 OA
ATOM     27  O   UNL     1       6.613   4.087  13.218  0.00  0.00    +0.000 OA
ENDBRANCH  22  25
ENDBRANCH  18  19
ENDBRANCH   1  18
TORSDOF 9
ENDMDL
MODEL 6
REMARK VINA RESULT:      -7.3      1.277      1.670
REMARK  Name = 
REMARK  10 active torsions:
REMARK  status: ('A' for Active; 'I' for Inactive)
REMARK    1  A    between atoms: C_1  and  C_2
REMARK    2  A    between atoms: C_2  and  C_3
REMARK    3  A    between atoms: C_2  and  N_6
REMARK    4  A    between atoms: C_3  and  O_5
REMARK    5  A    between atoms: N_6  and  C_7
REMARK    6  A    between atoms: N_6  and  S_17
REMARK    7  A    between atoms: C_7  and  C_8
REMARK    8  A    between atoms: C_13  and  N_14
REMARK    9  A    between atoms: S_17  and  C_18
REMARK   10  A    between atoms: C_21  and  N_22
REMARK                            x       y       z     vdW  Elec       q    Type
REMARK                         _______ _______ _______ _____ _____    ______ ____
ROOT
ATOM      1  N   UNL     1       2.975   5.064  19.513  0.00  0.00    +0.000 NA
ENDROOT
BRANCH   1   3
ATOM      2  C   UNL     1       2.644   2.645  18.612  0.00  0.00    +0.000 C 
ATOM      3  C   UNL     1       2.317   3.711  19.668  0.00  0.00    +0.000 C 
BRANCH   3   4
ATOM      4  C   UNL     1       2.710   3.067  21.007  0.00  0.00    +0.000 C 
ATOM      5  O   UNL     1       2.141   3.285  22.068  0.00  0.00    +0.000 OA
BRANCH   4   6
ATOM      6  O   UNL     1       3.707   2.151  20.895  0.00  0.00    +0.000 OA
ATOM      7  H   UNL     1       3.516   1.567  20.128  0.00  0.00    +0.000 HD
ENDBRANCH   4   6
ENDBRANCH   3   4
ENDBRANCH   1   3
BRANCH   1   8
ATOM      8  C   UNL     1       2.160   6.155  20.139  0.00  0.00    +0.000 C 
BRANCH   8   9
ATOM      9  C   UNL     1       2.022   7.502  19.427  0.00  0.00    +0.000 A 
ATOM     10  C   UNL     1       2.570   7.755  18.157  0.00  0.00    +0.000 A 
ATOM     11  C   UNL     1       2.373   8.971  17.490  0.00  0.00    +0.000 A 
ATOM     12  C   UNL     1       1.613   9.979  18.067  0.00  0.00    +0.000 A 
ATOM     13  C   UNL     1       1.082   9.791  19.338  0.00  0.00    +0.000 A 
ATOM     14  C   UNL     1       1.301   8.575  20.009  0.00  0.00    +0.000 A 
BRANCH  14  15
ATOM     15  N   UNL     1       0.771   8.485  21.364  0.00  0.00    +0.000 N 
ATOM     16  O   UNL     1      -0.379   8.042  21.501  0.00  0.00    +0.000 OA
ATOM     17  O   UNL     1       1.507   8.864  22.283  0.00  0.00    +0.000 OA
ENDBRANCH  14  15
ENDBRANCH   8   9
ENDBRANCH   1   8
BRANCH   1  18
ATOM     18  S   UNL     1       4.672   5.109  19.682  0.00  0.00    +0.000 S 
BRANCH  18  19
ATOM     19  C   UNL     1       5.324   5.091  18.025  0.00  0.00    +0.000 A 
ATOM     20  C   UNL     1       6.677   4.769  17.841  0.00  0.00    +0.000 A 
ATOM     21  C   UNL     1       7.222   4.678  16.557  0.00  0.00    +0.000 A 
ATOM     22  C   UNL     1       6.401   4.902  15.448  0.00  0.00    +0.000 A 
ATOM     23  C   UNL     1       5.046   5.214  15.616  0.00  0.00    +0.000 A 
ATOM     24  C   UNL     1       4.510   5.302  16.907  0.00  0.00    +0.000 A 
BRANCH  22  25
ATOM     25  N   UNL     1       6.966   4.806  14.095  0.00  0.00    +0.000 N 
ATOM     26  O   UNL     1       7.930   5.535  13.820  0.00  0.00    +0.000 OA
ATOM     27  O   UNL     1       6.449   4.001  13.310  0.00  0.00    +0.000 OA
ENDBRANCH  22  25
ENDBRANCH  18  19
ENDBRANCH   1  18
TORSDOF 9
ENDMDL
MODEL 7
REMARK VINA RESULT:      -7.2      1.093      1.489
REMARK  Name = 
REMARK  10 active torsions:
REMARK  status: ('A' for Active; 'I' for Inactive)
REMARK    1  A    between atoms: C_1  and  C_2
REMARK    2  A    between atoms: C_2  and  C_3
REMARK    3  A    between atoms: C_2  and  N_6
REMARK    4  A    between atoms: C_3  and  O_5
REMARK    5  A    between atoms: N_6  and  C_7
REMARK    6  A    between atoms: N_6  and  S_17
REMARK    7  A    between atoms: C_7  and  C_8
REMARK    8  A    between atoms: C_13  and  N_14
REMARK    9  A    between atoms: S_17  and  C_18
REMARK   10  A    between atoms: C_21  and  N_22
REMARK                            x       y       z     vdW  Elec       q    Type
REMARK                         _______ _______ _______ _____ _____    ______ ____
ROOT
ATOM      1  N   UNL     1       2.523   5.683  19.353  0.00  0.00    +0.000 NA
ENDROOT
BRANCH   1   3
ATOM      2  C   UNL     1       1.617   3.926  17.658  0.00  0.00    +0.000 C 
ATOM      3  C   UNL     1       1.542   4.572  19.050  0.00  0.00    +0.000 C 
BRANCH   3   4
ATOM      4  C   UNL     1       1.726   3.403  20.032  0.00  0.00    +0.000 C 
ATOM      5  O   UNL     1       1.409   3.441  21.213  0.00  0.00    +0.000 OA
BRANCH   4   6
ATOM      6  O   UNL     1       2.202   2.274  19.445  0.00  0.00    +0.000 OA
ATOM      7  H   UNL     1       1.991   2.303  18.486  0.00  0.00    +0.000 HD
ENDBRANCH   4   6
ENDBRANCH   3   4
ENDBRANCH   1   3
BRANCH   1   8
ATOM      8  C   UNL     1       1.910   6.750  20.208  0.00  0.00    +0.000 C 
BRANCH   8   9
ATOM      9  C   UNL     1       1.691   8.150  19.632  0.00  0.00    +0.000 A 
ATOM     10  C   UNL     1       2.096   8.516  18.336  0.00  0.00    +0.000 A 
ATOM     11  C   UNL     1       1.824   9.781  17.801  0.00  0.00    +0.000 A 
ATOM     12  C   UNL     1       1.128  10.728  18.541  0.00  0.00    +0.000 A 
ATOM     13  C   UNL     1       0.740  10.427  19.841  0.00  0.00    +0.000 A 
ATOM     14  C   UNL     1       1.035   9.161  20.379  0.00  0.00    +0.000 A 
BRANCH  14  15
ATOM     15  N   UNL     1       0.656   8.951  21.771  0.00  0.00    +0.000 N 
ATOM     16  O   UNL     1      -0.475   8.495  21.994  0.00  0.00    +0.000 OA
ATOM     17  O   UNL     1       1.491   9.249  22.633  0.00  0.00    +0.000 OA
ENDBRANCH  14  15
ENDBRANCH   8   9
ENDBRANCH   1   8
BRANCH   1  18
ATOM     18  S   UNL     1       4.135   5.214  19.657  0.00  0.00    +0.000 S 
BRANCH  18  19
ATOM     19  C   UNL     1       4.936   5.178  18.067  0.00  0.00    +0.000 A 
ATOM     20  C   UNL     1       5.641   4.023  17.697  0.00  0.00    +0.000 A 
ATOM     21  C   UNL     1       6.233   3.919  16.435  0.00  0.00    +0.000 A 
ATOM     22  C   UNL     1       6.110   4.979  15.533  0.00  0.00    +0.000 A 
ATOM     23  C   UNL     1       5.401   6.136  15.884  0.00  0.00    +0.000 A 
ATOM     24  C   UNL     1       4.812   6.228  17.151  0.00  0.00    +0.000 A 
BRANCH  22  25
ATOM     25  N   UNL     1       6.729   4.877  14.203  0.00  0.00    +0.000 N 
ATOM     26  O   UNL     1       7.714   5.591  13.971  0.00  0.00    +0.000 OA
ATOM     27  O   UNL     1       6.231   4.083  13.396  0.00  0.00    +0.000 OA
ENDBRANCH  22  25
ENDBRANCH  18  19
ENDBRANCH   1  18
TORSDOF 9
ENDMDL
MODEL 8
REMARK VINA RESULT:      -7.2      2.495      6.820
REMARK  Name = 
REMARK  10 active torsions:
REMARK  status: ('A' for Active; 'I' for Inactive)
REMARK    1  A    between atoms: C_1  and  C_2
REMARK    2  A    between atoms: C_2  and  C_3
REMARK    3  A    between atoms: C_2  and  N_6
REMARK    4  A    between atoms: C_3  and  O_5
REMARK    5  A    between atoms: N_6  and  C_7
REMARK    6  A    between atoms: N_6  and  S_17
REMARK    7  A    between atoms: C_7  and  C_8
REMARK    8  A    between atoms: C_13  and  N_14
REMARK    9  A    between atoms: S_17  and  C_18
REMARK   10  A    between atoms: C_21  and  N_22
REMARK                            x       y       z     vdW  Elec       q    Type
REMARK                         _______ _______ _______ _____ _____    ______ ____
ROOT
ATOM      1  N   UNL     1       3.507   4.661  19.289  0.00  0.00    +0.000 NA
ENDROOT
BRANCH   1   3
ATOM      2  C   UNL     1       4.005   2.288  20.236  0.00  0.00    +0.000 C 
ATOM      3  C   UNL     1       2.980   3.315  19.733  0.00  0.00    +0.000 C 
BRANCH   3   4
ATOM      4  C   UNL     1       1.988   3.478  20.897  0.00  0.00    +0.000 C 
ATOM      5  O   UNL     1       2.308   3.481  22.078  0.00  0.00    +0.000 OA
BRANCH   4   6
ATOM      6  O   UNL     1       0.712   3.708  20.491  0.00  0.00    +0.000 OA
ATOM      7  H   UNL     1       0.100   3.202  21.070  0.00  0.00    +0.000 HD
ENDBRANCH   4   6
ENDBRANCH   3   4
ENDBRANCH   1   3
BRANCH   1   8
ATOM      8  C   UNL     1       4.999   4.658  19.153  0.00  0.00    +0.000 C 
BRANCH   8   9
ATOM      9  C   UNL     1       5.633   4.554  17.764  0.00  0.00    +0.000 A 
ATOM     10  C   UNL     1       5.027   3.868  16.697  0.00  0.00    +0.000 A 
ATOM     11  C   UNL     1       5.588   3.842  15.414  0.00  0.00    +0.000 A 
ATOM     12  C   UNL     1       6.776   4.511  15.147  0.00  0.00    +0.000 A 
ATOM     13  C   UNL     1       7.432   5.173  16.179  0.00  0.00    +0.000 A 
ATOM     14  C   UNL     1       6.872   5.176  17.470  0.00  0.00    +0.000 A 
BRANCH  14  15
ATOM     15  N   UNL     1       7.657   5.831  18.508  0.00  0.00    +0.000 N 
ATOM     16  O   UNL     1       7.836   7.054  18.406  0.00  0.00    +0.000 OA
ATOM     17  O   UNL     1       8.097   5.117  19.417  0.00  0.00    +0.000 OA
ENDBRANCH  14  15
ENDBRANCH   8   9
ENDBRANCH   1   8
BRANCH   1  18
ATOM     18  S   UNL     1       2.579   5.496  18.127  0.00  0.00    +0.000 S 
BRANCH  18  19
ATOM     19  C   UNL     1       2.119   7.037  18.890  0.00  0.00    +0.000 A 
ATOM     20  C   UNL     1       1.945   8.164  18.074  0.00  0.00    +0.000 A 
ATOM     21  C   UNL     1       1.522   9.382  18.614  0.00  0.00    +0.000 A 
ATOM     22  C   UNL     1       1.262   9.468  19.985  0.00  0.00    +0.000 A 
ATOM     23  C   UNL     1       1.421   8.348  20.812  0.00  0.00    +0.000 A 
ATOM     24  C   UNL     1       1.846   7.133  20.259  0.00  0.00    +0.000 A 
BRANCH  22  25
ATOM     25  N   UNL     1       0.815  10.744  20.562  0.00  0.00    +0.000 N 
ATOM     26  O   UNL     1       0.412  11.618  19.782  0.00  0.00    +0.000 OA
ATOM     27  O   UNL     1       0.865  10.869  21.792  0.00  0.00    +0.000 OA
ENDBRANCH  22  25
ENDBRANCH  18  19
ENDBRANCH   1  18
TORSDOF 9
ENDMDL
MODEL 9
REMARK VINA RESULT:      -7.2      1.989      6.288
REMARK  Name = 
REMARK  10 active torsions:
REMARK  status: ('A' for Active; 'I' for Inactive)
REMARK    1  A    between atoms: C_1  and  C_2
REMARK    2  A    between atoms: C_2  and  C_3
REMARK    3  A    between atoms: C_2  and  N_6
REMARK    4  A    between atoms: C_3  and  O_5
REMARK    5  A    between atoms: N_6  and  C_7
REMARK    6  A    between atoms: N_6  and  S_17
REMARK    7  A    between atoms: C_7  and  C_8
REMARK    8  A    between atoms: C_13  and  N_14
REMARK    9  A    between atoms: S_17  and  C_18
REMARK   10  A    between atoms: C_21  and  N_22
REMARK                            x       y       z     vdW  Elec       q    Type
REMARK                         _______ _______ _______ _____ _____    ______ ____
ROOT
ATOM      1  N   UNL     1       4.940   4.204  17.649  0.00  0.00    +0.000 NA
ENDROOT
BRANCH   1   3
ATOM      2  C   UNL     1       5.291   4.477  15.083  0.00  0.00    +0.000 C 
ATOM      3  C   UNL     1       5.810   3.963  16.434  0.00  0.00    +0.000 C 
BRANCH   3   4
ATOM      4  C   UNL     1       7.181   4.637  16.607  0.00  0.00    +0.000 C 
ATOM      5  O   UNL     1       8.099   4.167  17.265  0.00  0.00    +0.000 OA
BRANCH   4   6
ATOM      6  O   UNL     1       7.318   5.778  15.882  0.00  0.00    +0.000 OA
ATOM      7  H   UNL     1       8.092   5.682  15.285  0.00  0.00    +0.000 HD
ENDBRANCH   4   6
ENDBRANCH   3   4
ENDBRANCH   1   3
BRANCH   1   8
ATOM      8  C   UNL     1       4.521   2.920  18.298  0.00  0.00    +0.000 C 
BRANCH   8   9
ATOM      9  C   UNL     1       3.376   2.922  19.312  0.00  0.00    +0.000 A 
ATOM     10  C   UNL     1       3.547   2.556  20.659  0.00  0.00    +0.000 A 
ATOM     11  C   UNL     1       2.503   2.631  21.589  0.00  0.00    +0.000 A 
ATOM     12  C   UNL     1       1.247   3.084  21.208  0.00  0.00    +0.000 A 
ATOM     13  C   UNL     1       1.018   3.422  19.879  0.00  0.00    +0.000 A 
ATOM     14  C   UNL     1       2.067   3.323  18.947  0.00  0.00    +0.000 A 
BRANCH  14  15
ATOM     15  N   UNL     1       1.726   3.628  17.563  0.00  0.00    +0.000 N 
ATOM     16  O   UNL     1       2.086   2.822  16.693  0.00  0.00    +0.000 OA
ATOM     17  O   UNL     1       1.104   4.677  17.354  0.00  0.00    +0.000 OA
ENDBRANCH  14  15
ENDBRANCH   8   9
ENDBRANCH   1   8
BRANCH   1  18
ATOM     18  S   UNL     1       5.369   5.523  18.642  0.00  0.00    +0.000 S 
BRANCH  18  19
ATOM     19  C   UNL     1       3.969   6.623  18.615  0.00  0.00    +0.000 A 
ATOM     20  C   UNL     1       3.086   6.610  19.705  0.00  0.00    +0.000 A 
ATOM     21  C   UNL     1       2.009   7.499  19.763  0.00  0.00    +0.000 A 
ATOM     22  C   UNL     1       1.821   8.416  18.725  0.00  0.00    +0.000 A 
ATOM     23  C   UNL     1       2.701   8.448  17.635  0.00  0.00    +0.000 A 
ATOM     24  C   UNL     1       3.778   7.552  17.587  0.00  0.00    +0.000 A 
BRANCH  22  25
ATOM     25  N   UNL     1       0.692   9.355  18.779  0.00  0.00    +0.000 N 
ATOM     26  O   UNL     1       0.443   9.893  19.867  0.00  0.00    +0.000 OA
ATOM     27  O   UNL     1       0.059   9.555  17.735  0.00  0.00    +0.000 OA
ENDBRANCH  22  25
ENDBRANCH  18  19
ENDBRANCH   1  18
TORSDOF 9
ENDMDL
