MODEL 1
REMARK VINA RESULT:      -9.4      0.000      0.000
REMARK  Name = 
REMARK  6 active torsions:
REMARK  status: ('A' for Active; 'I' for Inactive)
REMARK    1  A    between atoms: C_2  and  C_3
REMARK    2  A    between atoms: C_9  and  C_10
REMARK    3  A    between atoms: C_13  and  O_14
REMARK    4  A    between atoms: O_14  and  C_15
REMARK    5  A    between atoms: C_15  and  C_16
REMARK    6  A    between atoms: C_16  and  N_17
REMARK                            x       y       z     vdW  Elec       q    Type
REMARK                         _______ _______ _______ _____ _____    ______ ____
ROOT
ATOM      1  C   UNL     1       5.027   4.642  19.082  0.00  0.00    +0.000 C 
ATOM      2  C   UNL     1       3.766   4.692  18.607  0.00  0.00    +0.000 C 
ATOM      3  C   UNL     1       3.385   5.823  17.642  0.00  0.00    +0.000 C 
ATOM      4  O   UNL     1       4.482   6.243  16.799  0.00  0.00    +0.000 OA
ATOM      5  C   UNL     1       5.671   6.391  17.470  0.00  0.00    +0.000 A 
ATOM      6  C   UNL     1       6.581   7.314  16.951  0.00  0.00    +0.000 A 
ATOM      7  C   UNL     1       7.795   7.526  17.605  0.00  0.00    +0.000 A 
ATOM      8  C   UNL     1       8.101   6.809  18.761  0.00  0.00    +0.000 A 
ATOM      9  C   UNL     1       7.199   5.858  19.259  0.00  0.00    +0.000 A 
ATOM     10  C   UNL     1       5.980   5.645  18.610  0.00  0.00    +0.000 A 
ENDROOT
BRANCH   2  11
ATOM     11  C   UNL     1       2.710   3.750  19.095  0.00  0.00    +0.000 A 
ATOM     12  C   UNL     1       2.589   3.413  20.456  0.00  0.00    +0.000 A 
ATOM     13  C   UNL     1       1.632   2.497  20.905  0.00  0.00    +0.000 A 
ATOM     14  C   UNL     1       0.754   1.911  20.003  0.00  0.00    +0.000 A 
ATOM     15  C   UNL     1       0.834   2.243  18.654  0.00  0.00    +0.000 A 
ATOM     16  C   UNL     1       1.800   3.154  18.207  0.00  0.00    +0.000 A 
ENDBRANCH   2  11
BRANCH   3  17
ATOM     17  C   UNL     1       2.775   7.067  18.303  0.00  0.00    +0.000 A 
ATOM     18  C   UNL     1       2.412   7.056  19.653  0.00  0.00    +0.000 A 
ATOM     19  C   UNL     1       1.792   8.150  20.238  0.00  0.00    +0.000 A 
ATOM     20  C   UNL     1       1.540   9.313  19.508  0.00  0.00    +0.000 A 
ATOM     21  C   UNL     1       1.933   9.361  18.169  0.00  0.00    +0.000 A 
ATOM     22  C   UNL     1       2.544   8.243  17.571  0.00  0.00    +0.000 A 
BRANCH  20  23
ATOM     23  O   UNL     1       0.918  10.431  20.034  0.00  0.00    +0.000 OA
BRANCH  23  24
ATOM     24  C   UNL     1       0.160  11.139  19.044  0.00  0.00    +0.000 C 
BRANCH  24  25
ATOM     25  C   UNL     1      -1.193  11.672  19.526  0.00  0.00    +0.000 C 
BRANCH  25  26
ATOM     26  N   UNL     1      -2.215  11.647  18.442  0.00  0.00    +0.000 NA
ATOM     27  C   UNL     1      -2.067  10.455  17.608  0.00  0.00    +0.000 C 
ATOM     28  C   UNL     1      -2.506  10.701  16.159  0.00  0.00    +0.000 C 
ATOM     29  C   UNL     1      -4.009  10.707  15.907  0.00  0.00    +0.000 C 
ATOM     30  C   UNL     1      -4.781  11.743  16.711  0.00  0.00    +0.000 C 
ATOM     31  C   UNL     1      -4.793  11.404  18.192  0.00  0.00    +0.000 C 
ATOM     32  C   UNL     1      -3.569  11.886  18.967  0.00  0.00    +0.000 C 
ENDBRANCH  25  26
ENDBRANCH  24  25
ENDBRANCH  23  24
ENDBRANCH  20  23
ENDBRANCH   3  17
TORSDOF 6
ENDMDL
MODEL 2
REMARK VINA RESULT:      -9.2      0.363      1.251
REMARK  Name = 
REMARK  6 active torsions:
REMARK  status: ('A' for Active; 'I' for Inactive)
REMARK    1  A    between atoms: C_2  and  C_3
REMARK    2  A    between atoms: C_9  and  C_10
REMARK    3  A    between atoms: C_13  and  O_14
REMARK    4  A    between atoms: O_14  and  C_15
REMARK    5  A    between atoms: C_15  and  C_16
REMARK    6  A    between atoms: C_16  and  N_17
REMARK                            x       y       z     vdW  Elec       q    Type
REMARK                         _______ _______ _______ _____ _____    ______ ____
ROOT
ATOM      1  C   UNL     1       5.024   4.580  19.026  0.00  0.00    +0.000 C 
ATOM      2  C   UNL     1       3.765   4.588  18.544  0.00  0.00    +0.000 C 
ATOM      3  C   UNL     1       3.345   5.720  17.595  0.00  0.00    +0.000 C 
ATOM      4  O   UNL     1       4.430   6.198  16.767  0.00  0.00    +0.000 OA
ATOM      5  C   UNL     1       5.608   6.381  17.448  0.00  0.00    +0.000 A 
ATOM      6  C   UNL     1       6.483   7.348  16.951  0.00  0.00    +0.000 A 
ATOM      7  C   UNL     1       7.684   7.597  17.616  0.00  0.00    +0.000 A 
ATOM      8  C   UNL     1       8.012   6.873  18.762  0.00  0.00    +0.000 A 
ATOM      9  C   UNL     1       7.146   5.878  19.237  0.00  0.00    +0.000 A 
ATOM     10  C   UNL     1       5.940   5.629  18.577  0.00  0.00    +0.000 A 
ENDROOT
BRANCH   2  11
ATOM     11  C   UNL     1       2.745   3.597  19.009  0.00  0.00    +0.000 A 
ATOM     12  C   UNL     1       1.913   2.910  18.105  0.00  0.00    +0.000 A 
ATOM     13  C   UNL     1       0.928   2.019  18.543  0.00  0.00    +0.000 A 
ATOM     14  C   UNL     1       0.767   1.774  19.900  0.00  0.00    +0.000 A 
ATOM     15  C   UNL     1       1.591   2.420  20.816  0.00  0.00    +0.000 A 
ATOM     16  C   UNL     1       2.570   3.320  20.374  0.00  0.00    +0.000 A 
ENDBRANCH   2  11
BRANCH   3  17
ATOM     17  C   UNL     1       2.682   6.927  18.274  0.00  0.00    +0.000 A 
ATOM     18  C   UNL     1       2.329   8.060  17.536  0.00  0.00    +0.000 A 
ATOM     19  C   UNL     1       1.799   9.182  18.154  0.00  0.00    +0.000 A 
ATOM     20  C   UNL     1       1.567   9.207  19.531  0.00  0.00    +0.000 A 
ATOM     21  C   UNL     1       1.874   8.070  20.281  0.00  0.00    +0.000 A 
ATOM     22  C   UNL     1       2.431   6.938  19.656  0.00  0.00    +0.000 A 
BRANCH  20  23
ATOM     23  O   UNL     1       1.049  10.298  20.204  0.00  0.00    +0.000 OA
BRANCH  23  24
ATOM     24  C   UNL     1      -0.382  10.348  20.126  0.00  0.00    +0.000 C 
BRANCH  24  25
ATOM     25  C   UNL     1      -0.959  11.704  19.709  0.00  0.00    +0.000 C 
BRANCH  25  26
ATOM     26  N   UNL     1      -1.924  11.570  18.581  0.00  0.00    +0.000 NA
ATOM     27  C   UNL     1      -1.847  10.240  17.979  0.00  0.00    +0.000 C 
ATOM     28  C   UNL     1      -2.189  10.258  16.484  0.00  0.00    +0.000 C 
ATOM     29  C   UNL     1      -3.670  10.345  16.137  0.00  0.00    +0.000 C 
ATOM     30  C   UNL     1      -4.381  11.569  16.696  0.00  0.00    +0.000 C 
ATOM     31  C   UNL     1      -4.498  11.503  18.210  0.00  0.00    +0.000 C 
ATOM     32  C   UNL     1      -3.274  12.012  18.967  0.00  0.00    +0.000 C 
ENDBRANCH  25  26
ENDBRANCH  24  25
ENDBRANCH  23  24
ENDBRANCH  20  23
ENDBRANCH   3  17
TORSDOF 6
ENDMDL
MODEL 3
REMARK VINA RESULT:      -9.1      0.269      1.387
REMARK  Name = 
REMARK  6 active torsions:
REMARK  status: ('A' for Active; 'I' for Inactive)
REMARK    1  A    between atoms: C_2  and  C_3
REMARK    2  A    between atoms: C_9  and  C_10
REMARK    3  A    between atoms: C_13  and  O_14
REMARK    4  A    between atoms: O_14  and  C_15
REMARK    5  A    between atoms: C_15  and  C_16
REMARK    6  A    between atoms: C_16  and  N_17
REMARK                            x       y       z     vdW  Elec       q    Type
REMARK                         _______ _______ _______ _____ _____    ______ ____
ROOT
ATOM      1  C   UNL     1       5.038   4.583  19.059  0.00  0.00    +0.000 C 
ATOM      2  C   UNL     1       3.771   4.634  18.600  0.00  0.00    +0.000 C 
ATOM      3  C   UNL     1       3.370   5.787  17.669  0.00  0.00    +0.000 C 
ATOM      4  O   UNL     1       4.454   6.239  16.826  0.00  0.00    +0.000 OA
ATOM      5  C   UNL     1       5.649   6.380  17.487  0.00  0.00    +0.000 A 
ATOM      6  C   UNL     1       6.544   7.324  16.983  0.00  0.00    +0.000 A 
ATOM      7  C   UNL     1       7.763   7.530  17.629  0.00  0.00    +0.000 A 
ATOM      8  C   UNL     1       8.089   6.786  18.762  0.00  0.00    +0.000 A 
ATOM      9  C   UNL     1       7.201   5.814  19.245  0.00  0.00    +0.000 A 
ATOM     10  C   UNL     1       5.977   5.607  18.604  0.00  0.00    +0.000 A 
ENDROOT
BRANCH   2  11
ATOM     11  C   UNL     1       2.729   3.670  19.075  0.00  0.00    +0.000 A 
ATOM     12  C   UNL     1       1.834   3.049  18.185  0.00  0.00    +0.000 A 
ATOM     13  C   UNL     1       0.830   2.184  18.634  0.00  0.00    +0.000 A 
ATOM     14  C   UNL     1       0.713   1.901  19.988  0.00  0.00    +0.000 A 
ATOM     15  C   UNL     1       1.599   2.482  20.890  0.00  0.00    +0.000 A 
ATOM     16  C   UNL     1       2.596   3.355  20.437  0.00  0.00    +0.000 A 
ENDBRANCH   2  11
BRANCH   3  17
ATOM     17  C   UNL     1       2.756   7.007  18.370  0.00  0.00    +0.000 A 
ATOM     18  C   UNL     1       2.401   6.955  19.721  0.00  0.00    +0.000 A 
ATOM     19  C   UNL     1       1.778   8.028  20.340  0.00  0.00    +0.000 A 
ATOM     20  C   UNL     1       1.515   9.210  19.646  0.00  0.00    +0.000 A 
ATOM     21  C   UNL     1       1.900   9.299  18.307  0.00  0.00    +0.000 A 
ATOM     22  C   UNL     1       2.514   8.203  17.673  0.00  0.00    +0.000 A 
BRANCH  20  23
ATOM     23  O   UNL     1       0.890  10.309  20.207  0.00  0.00    +0.000 OA
BRANCH  23  24
ATOM     24  C   UNL     1       0.056  10.993  19.262  0.00  0.00    +0.000 C 
BRANCH  24  25
ATOM     25  C   UNL     1      -1.313  11.422  19.801  0.00  0.00    +0.000 C 
BRANCH  25  26
ATOM     26  N   UNL     1      -2.393  11.204  18.798  0.00  0.00    +0.000 NA
ATOM     27  C   UNL     1      -3.446  12.209  18.933  0.00  0.00    +0.000 C 
ATOM     28  C   UNL     1      -4.823  11.668  18.526  0.00  0.00    +0.000 C 
ATOM     29  C   UNL     1      -5.087  11.572  17.028  0.00  0.00    +0.000 C 
ATOM     30  C   UNL     1      -4.102  10.697  16.266  0.00  0.00    +0.000 C 
ATOM     31  C   UNL     1      -2.719  11.324  16.219  0.00  0.00    +0.000 C 
ATOM     32  C   UNL     1      -1.849  11.038  17.441  0.00  0.00    +0.000 C 
ENDBRANCH  25  26
ENDBRANCH  24  25
ENDBRANCH  23  24
ENDBRANCH  20  23
ENDBRANCH   3  17
TORSDOF 6
ENDMDL
MODEL 4
REMARK VINA RESULT:      -9.0      1.699      2.646
REMARK  Name = 
REMARK  6 active torsions:
REMARK  status: ('A' for Active; 'I' for Inactive)
REMARK    1  A    between atoms: C_2  and  C_3
REMARK    2  A    between atoms: C_9  and  C_10
REMARK    3  A    between atoms: C_13  and  O_14
REMARK    4  A    between atoms: O_14  and  C_15
REMARK    5  A    between atoms: C_15  and  C_16
REMARK    6  A    between atoms: C_16  and  N_17
REMARK                            x       y       z     vdW  Elec       q    Type
REMARK                         _______ _______ _______ _____ _____    ______ ____
ROOT
ATOM      1  C   UNL     1       5.038   4.599  19.080  0.00  0.00    +0.000 C 
ATOM      2  C   UNL     1       3.776   4.651  18.608  0.00  0.00    +0.000 C 
ATOM      3  C   UNL     1       3.392   5.787  17.650  0.00  0.00    +0.000 C 
ATOM      4  O   UNL     1       4.487   6.214  16.808  0.00  0.00    +0.000 OA
ATOM      5  C   UNL     1       5.677   6.359  17.477  0.00  0.00    +0.000 A 
ATOM      6  C   UNL     1       6.584   7.286  16.963  0.00  0.00    +0.000 A 
ATOM      7  C   UNL     1       7.799   7.497  17.615  0.00  0.00    +0.000 A 
ATOM      8  C   UNL     1       8.108   6.773  18.767  0.00  0.00    +0.000 A 
ATOM      9  C   UNL     1       7.209   5.817  19.260  0.00  0.00    +0.000 A 
ATOM     10  C   UNL     1       5.989   5.607  18.612  0.00  0.00    +0.000 A 
ENDROOT
BRANCH   2  11
ATOM     11  C   UNL     1       2.722   3.704  19.093  0.00  0.00    +0.000 A 
ATOM     12  C   UNL     1       1.805   3.102  18.212  0.00  0.00    +0.000 A 
ATOM     13  C   UNL     1       0.791   2.254  18.670  0.00  0.00    +0.000 A 
ATOM     14  C   UNL     1       0.685   1.969  20.025  0.00  0.00    +0.000 A 
ATOM     15  C   UNL     1       1.593   2.531  20.917  0.00  0.00    +0.000 A 
ATOM     16  C   UNL     1       2.600   3.387  20.455  0.00  0.00    +0.000 A 
ENDBRANCH   2  11
BRANCH   3  17
ATOM     17  C   UNL     1       2.781   7.026  18.320  0.00  0.00    +0.000 A 
ATOM     18  C   UNL     1       2.416   7.005  19.669  0.00  0.00    +0.000 A 
ATOM     19  C   UNL     1       1.796   8.095  20.261  0.00  0.00    +0.000 A 
ATOM     20  C   UNL     1       1.545   9.264  19.539  0.00  0.00    +0.000 A 
ATOM     21  C   UNL     1       1.940   9.321  18.201  0.00  0.00    +0.000 A 
ATOM     22  C   UNL     1       2.551   8.208  17.595  0.00  0.00    +0.000 A 
BRANCH  20  23
ATOM     23  O   UNL     1       0.923  10.378  20.072  0.00  0.00    +0.000 OA
BRANCH  23  24
ATOM     24  C   UNL     1      -0.174  10.820  19.261  0.00  0.00    +0.000 C 
BRANCH  24  25
ATOM     25  C   UNL     1      -0.669  12.238  19.563  0.00  0.00    +0.000 C 
BRANCH  25  26
ATOM     26  N   UNL     1      -1.679  12.248  20.659  0.00  0.00    +0.000 NA
ATOM     27  C   UNL     1      -1.032  12.271  21.970  0.00  0.00    +0.000 C 
ATOM     28  C   UNL     1      -1.869  11.563  23.043  0.00  0.00    +0.000 C 
ATOM     29  C   UNL     1      -3.050  12.351  23.597  0.00  0.00    +0.000 C 
ATOM     30  C   UNL     1      -4.070  12.780  22.553  0.00  0.00    +0.000 C 
ATOM     31  C   UNL     1      -3.503  13.837  21.620  0.00  0.00    +0.000 C 
ATOM     32  C   UNL     1      -2.703  13.283  20.442  0.00  0.00    +0.000 C 
ENDBRANCH  25  26
ENDBRANCH  24  25
ENDBRANCH  23  24
ENDBRANCH  20  23
ENDBRANCH   3  17
TORSDOF 6
ENDMDL
MODEL 5
REMARK VINA RESULT:      -8.9      5.308      8.916
REMARK  Name = 
REMARK  6 active torsions:
REMARK  status: ('A' for Active; 'I' for Inactive)
REMARK    1  A    between atoms: C_2  and  C_3
REMARK    2  A    between atoms: C_9  and  C_10
REMARK    3  A    between atoms: C_13  and  O_14
REMARK    4  A    between atoms: O_14  and  C_15
REMARK    5  A    between atoms: C_15  and  C_16
REMARK    6  A    between atoms: C_16  and  N_17
REMARK                            x       y       z     vdW  Elec       q    Type
REMARK                         _______ _______ _______ _____ _____    ______ ____
ROOT
ATOM      1  C   UNL     1       4.059   4.215  16.208  0.00  0.00    +0.000 C 
ATOM      2  C   UNL     1       5.389   4.220  15.986  0.00  0.00    +0.000 C 
ATOM      3  C   UNL     1       6.336   4.386  17.183  0.00  0.00    +0.000 C 
ATOM      4  O   UNL     1       5.818   3.806  18.402  0.00  0.00    +0.000 OA
ATOM      5  C   UNL     1       4.494   4.089  18.631  0.00  0.00    +0.000 A 
ATOM      6  C   UNL     1       4.073   4.119  19.961  0.00  0.00    +0.000 A 
ATOM      7  C   UNL     1       2.745   4.426  20.257  0.00  0.00    +0.000 A 
ATOM      8  C   UNL     1       1.842   4.689  19.227  0.00  0.00    +0.000 A 
ATOM      9  C   UNL     1       2.261   4.624  17.890  0.00  0.00    +0.000 A 
ATOM     10  C   UNL     1       3.591   4.320  17.590  0.00  0.00    +0.000 A 
ENDROOT
BRANCH   2  11
ATOM     11  C   UNL     1       5.949   4.191  14.599  0.00  0.00    +0.000 A 
ATOM     12  C   UNL     1       5.325   3.473  13.562  0.00  0.00    +0.000 A 
ATOM     13  C   UNL     1       5.874   3.409  12.277  0.00  0.00    +0.000 A 
ATOM     14  C   UNL     1       7.053   4.084  11.991  0.00  0.00    +0.000 A 
ATOM     15  C   UNL     1       7.680   4.822  12.989  0.00  0.00    +0.000 A 
ATOM     16  C   UNL     1       7.133   4.876  14.278  0.00  0.00    +0.000 A 
ENDBRANCH   2  11
BRANCH   3  17
ATOM     17  C   UNL     1       6.769   5.829  17.476  0.00  0.00    +0.000 A 
ATOM     18  C   UNL     1       6.121   6.909  16.869  0.00  0.00    +0.000 A 
ATOM     19  C   UNL     1       6.555   8.211  17.070  0.00  0.00    +0.000 A 
ATOM     20  C   UNL     1       7.632   8.491  17.914  0.00  0.00    +0.000 A 
ATOM     21  C   UNL     1       8.267   7.430  18.563  0.00  0.00    +0.000 A 
ATOM     22  C   UNL     1       7.839   6.108  18.342  0.00  0.00    +0.000 A 
BRANCH  20  23
ATOM     23  O   UNL     1       8.115   9.766  18.147  0.00  0.00    +0.000 OA
BRANCH  23  24
ATOM     24  C   UNL     1       9.222   9.763  19.058  0.00  0.00    +0.000 C 
BRANCH  24  25
ATOM     25  C   UNL     1       9.455  11.086  19.795  0.00  0.00    +0.000 C 
BRANCH  25  26
ATOM     26  N   UNL     1       9.896  12.165  18.867  0.00  0.00    +0.000 NA
ATOM     27  C   UNL     1      10.042  13.437  19.572  0.00  0.00    +0.000 C 
ATOM     28  C   UNL     1       9.754  14.641  18.665  0.00  0.00    +0.000 C 
ATOM     29  C   UNL     1      10.867  15.032  17.700  0.00  0.00    +0.000 C 
ATOM     30  C   UNL     1      11.285  13.931  16.736  0.00  0.00    +0.000 C 
ATOM     31  C   UNL     1      11.991  12.796  17.459  0.00  0.00    +0.000 C 
ATOM     32  C   UNL     1      11.058  11.750  18.066  0.00  0.00    +0.000 C 
ENDBRANCH  25  26
ENDBRANCH  24  25
ENDBRANCH  23  24
ENDBRANCH  20  23
ENDBRANCH   3  17
TORSDOF 6
ENDMDL
MODEL 6
REMARK VINA RESULT:      -8.9      1.740      4.411
REMARK  Name = 
REMARK  6 active torsions:
REMARK  status: ('A' for Active; 'I' for Inactive)
REMARK    1  A    between atoms: C_2  and  C_3
REMARK    2  A    between atoms: C_9  and  C_10
REMARK    3  A    between atoms: C_13  and  O_14
REMARK    4  A    between atoms: O_14  and  C_15
REMARK    5  A    between atoms: C_15  and  C_16
REMARK    6  A    between atoms: C_16  and  N_17
REMARK                            x       y       z     vdW  Elec       q    Type
REMARK                         _______ _______ _______ _____ _____    ______ ____
ROOT
ATOM      1  C   UNL     1       3.616   3.120  17.685  0.00  0.00    +0.000 C 
ATOM      2  C   UNL     1       4.514   4.125  17.634  0.00  0.00    +0.000 C 
ATOM      3  C   UNL     1       4.531   5.156  18.772  0.00  0.00    +0.000 C 
ATOM      4  O   UNL     1       4.156   4.597  20.051  0.00  0.00    +0.000 OA
ATOM      5  C   UNL     1       3.059   3.772  19.996  0.00  0.00    +0.000 A 
ATOM      6  C   UNL     1       2.280   3.675  21.149  0.00  0.00    +0.000 A 
ATOM      7  C   UNL     1       1.139   2.873  21.144  0.00  0.00    +0.000 A 
ATOM      8  C   UNL     1       0.789   2.163  19.997  0.00  0.00    +0.000 A 
ATOM      9  C   UNL     1       1.594   2.235  18.851  0.00  0.00    +0.000 A 
ATOM     10  C   UNL     1       2.736   3.041  18.850  0.00  0.00    +0.000 A 
ENDROOT
BRANCH   2  11
ATOM     11  C   UNL     1       5.399   4.322  16.444  0.00  0.00    +0.000 A 
ATOM     12  C   UNL     1       6.686   4.878  16.562  0.00  0.00    +0.000 A 
ATOM     13  C   UNL     1       7.495   5.105  15.443  0.00  0.00    +0.000 A 
ATOM     14  C   UNL     1       7.043   4.758  14.178  0.00  0.00    +0.000 A 
ATOM     15  C   UNL     1       5.784   4.183  14.032  0.00  0.00    +0.000 A 
ATOM     16  C   UNL     1       4.973   3.967  15.154  0.00  0.00    +0.000 A 
ENDBRANCH   2  11
BRANCH   3  17
ATOM     17  C   UNL     1       3.687   6.414  18.523  0.00  0.00    +0.000 A 
ATOM     18  C   UNL     1       3.940   7.243  17.427  0.00  0.00    +0.000 A 
ATOM     19  C   UNL     1       3.232   8.420  17.238  0.00  0.00    +0.000 A 
ATOM     20  C   UNL     1       2.216   8.800  18.118  0.00  0.00    +0.000 A 
ATOM     21  C   UNL     1       1.917   7.965  19.196  0.00  0.00    +0.000 A 
ATOM     22  C   UNL     1       2.651   6.781  19.399  0.00  0.00    +0.000 A 
BRANCH  20  23
ATOM     23  O   UNL     1       1.481   9.964  17.986  0.00  0.00    +0.000 OA
BRANCH  23  24
ATOM     24  C   UNL     1       0.277   9.931  18.765  0.00  0.00    +0.000 C 
BRANCH  24  25
ATOM     25  C   UNL     1      -0.453  11.272  18.883  0.00  0.00    +0.000 C 
BRANCH  25  26
ATOM     26  N   UNL     1      -1.663  11.320  18.014  0.00  0.00    +0.000 NA
ATOM     27  C   UNL     1      -1.820  10.076  17.262  0.00  0.00    +0.000 C 
ATOM     28  C   UNL     1      -2.501  10.298  15.906  0.00  0.00    +0.000 C 
ATOM     29  C   UNL     1      -4.014  10.484  15.940  0.00  0.00    +0.000 C 
ATOM     30  C   UNL     1      -4.489  11.652  16.791  0.00  0.00    +0.000 C 
ATOM     31  C   UNL     1      -4.251  11.397  18.271  0.00  0.00    +0.000 C 
ATOM     32  C   UNL     1      -2.852  11.759  18.762  0.00  0.00    +0.000 C 
ENDBRANCH  25  26
ENDBRANCH  24  25
ENDBRANCH  23  24
ENDBRANCH  20  23
ENDBRANCH   3  17
TORSDOF 6
ENDMDL
MODEL 7
REMARK VINA RESULT:      -8.9      2.525      3.176
REMARK  Name = 
REMARK  6 active torsions:
REMARK  status: ('A' for Active; 'I' for Inactive)
REMARK    1  A    between atoms: C_2  and  C_3
REMARK    2  A    between atoms: C_9  and  C_10
REMARK    3  A    between atoms: C_13  and  O_14
REMARK    4  A    between atoms: O_14  and  C_15
REMARK    5  A    between atoms: C_15  and  C_16
REMARK    6  A    between atoms: C_16  and  N_17
REMARK                            x       y       z     vdW  Elec       q    Type
REMARK                         _______ _______ _______ _____ _____    ______ ____
ROOT
ATOM      1  C   UNL     1       5.064   4.588  19.118  0.00  0.00    +0.000 C 
ATOM      2  C   UNL     1       3.811   4.616  18.622  0.00  0.00    +0.000 C 
ATOM      3  C   UNL     1       3.432   5.730  17.635  0.00  0.00    +0.000 C 
ATOM      4  O   UNL     1       4.538   6.152  16.805  0.00  0.00    +0.000 OA
ATOM      5  C   UNL     1       5.714   6.323  17.493  0.00  0.00    +0.000 A 
ATOM      6  C   UNL     1       6.621   7.250  16.977  0.00  0.00    +0.000 A 
ATOM      7  C   UNL     1       7.821   7.486  17.647  0.00  0.00    +0.000 A 
ATOM      8  C   UNL     1       8.117   6.788  18.818  0.00  0.00    +0.000 A 
ATOM      9  C   UNL     1       7.219   5.833  19.314  0.00  0.00    +0.000 A 
ATOM     10  C   UNL     1       6.013   5.597  18.648  0.00  0.00    +0.000 A 
ENDROOT
BRANCH   2  11
ATOM     11  C   UNL     1       2.758   3.668  19.106  0.00  0.00    +0.000 A 
ATOM     12  C   UNL     1       1.852   3.054  18.222  0.00  0.00    +0.000 A 
ATOM     13  C   UNL     1       0.839   2.204  18.680  0.00  0.00    +0.000 A 
ATOM     14  C   UNL     1       0.723   1.929  20.036  0.00  0.00    +0.000 A 
ATOM     15  C   UNL     1       1.621   2.503  20.931  0.00  0.00    +0.000 A 
ATOM     16  C   UNL     1       2.627   3.361  20.470  0.00  0.00    +0.000 A 
ENDBRANCH   2  11
BRANCH   3  17
ATOM     17  C   UNL     1       2.797   6.974  18.270  0.00  0.00    +0.000 A 
ATOM     18  C   UNL     1       2.419   6.980  19.616  0.00  0.00    +0.000 A 
ATOM     19  C   UNL     1       1.776   8.073  20.176  0.00  0.00    +0.000 A 
ATOM     20  C   UNL     1       1.515   9.221  19.425  0.00  0.00    +0.000 A 
ATOM     21  C   UNL     1       1.922   9.253  18.089  0.00  0.00    +0.000 A 
ATOM     22  C   UNL     1       2.556   8.135  17.516  0.00  0.00    +0.000 A 
BRANCH  20  23
ATOM     23  O   UNL     1       0.871  10.338  19.925  0.00  0.00    +0.000 OA
BRANCH  23  24
ATOM     24  C   UNL     1      -0.114   9.994  20.909  0.00  0.00    +0.000 C 
BRANCH  24  25
ATOM     25  C   UNL     1       0.250  10.374  22.348  0.00  0.00    +0.000 C 
BRANCH  25  26
ATOM     26  N   UNL     1      -0.470  11.600  22.794  0.00  0.00    +0.000 NA
ATOM     27  C   UNL     1      -0.309  12.685  21.828  0.00  0.00    +0.000 C 
ATOM     28  C   UNL     1      -0.341  14.067  22.494  0.00  0.00    +0.000 C 
ATOM     29  C   UNL     1      -1.719  14.594  22.876  0.00  0.00    +0.000 C 
ATOM     30  C   UNL     1      -2.494  13.700  23.834  0.00  0.00    +0.000 C 
ATOM     31  C   UNL     1      -2.917  12.402  23.167  0.00  0.00    +0.000 C 
ATOM     32  C   UNL     1      -1.858  11.303  23.184  0.00  0.00    +0.000 C 
ENDBRANCH  25  26
ENDBRANCH  24  25
ENDBRANCH  23  24
ENDBRANCH  20  23
ENDBRANCH   3  17
TORSDOF 6
ENDMDL
MODEL 8
REMARK VINA RESULT:      -8.9      2.575      5.171
REMARK  Name = 
REMARK  6 active torsions:
REMARK  status: ('A' for Active; 'I' for Inactive)
REMARK    1  A    between atoms: C_2  and  C_3
REMARK    2  A    between atoms: C_9  and  C_10
REMARK    3  A    between atoms: C_13  and  O_14
REMARK    4  A    between atoms: O_14  and  C_15
REMARK    5  A    between atoms: C_15  and  C_16
REMARK    6  A    between atoms: C_16  and  N_17
REMARK                            x       y       z     vdW  Elec       q    Type
REMARK                         _______ _______ _______ _____ _____    ______ ____
ROOT
ATOM      1  C   UNL     1       3.594   3.151  17.629  0.00  0.00    +0.000 C 
ATOM      2  C   UNL     1       4.491   4.157  17.600  0.00  0.00    +0.000 C 
ATOM      3  C   UNL     1       4.520   5.154  18.767  0.00  0.00    +0.000 C 
ATOM      4  O   UNL     1       4.157   4.557  20.033  0.00  0.00    +0.000 OA
ATOM      5  C   UNL     1       3.060   3.734  19.964  0.00  0.00    +0.000 A 
ATOM      6  C   UNL     1       2.292   3.603  21.121  0.00  0.00    +0.000 A 
ATOM      7  C   UNL     1       1.151   2.802  21.104  0.00  0.00    +0.000 A 
ATOM      8  C   UNL     1       0.790   2.125  19.939  0.00  0.00    +0.000 A 
ATOM      9  C   UNL     1       1.584   2.232  18.788  0.00  0.00    +0.000 A 
ATOM     10  C   UNL     1       2.725   3.037  18.800  0.00  0.00    +0.000 A 
ENDROOT
BRANCH   2  11
ATOM     11  C   UNL     1       5.365   4.389  16.408  0.00  0.00    +0.000 A 
ATOM     12  C   UNL     1       4.940   4.074  15.104  0.00  0.00    +0.000 A 
ATOM     13  C   UNL     1       5.774   4.247  13.995  0.00  0.00    +0.000 A 
ATOM     14  C   UNL     1       7.052   4.764  14.162  0.00  0.00    +0.000 A 
ATOM     15  C   UNL     1       7.492   5.108  15.436  0.00  0.00    +0.000 A 
ATOM     16  C   UNL     1       6.657   4.923  16.546  0.00  0.00    +0.000 A 
ENDBRANCH   2  11
BRANCH   3  17
ATOM     17  C   UNL     1       3.674   6.418  18.564  0.00  0.00    +0.000 A 
ATOM     18  C   UNL     1       2.713   6.798  19.506  0.00  0.00    +0.000 A 
ATOM     19  C   UNL     1       1.893   7.895  19.293  0.00  0.00    +0.000 A 
ATOM     20  C   UNL     1       2.023   8.682  18.147  0.00  0.00    +0.000 A 
ATOM     21  C   UNL     1       3.005   8.347  17.213  0.00  0.00    +0.000 A 
ATOM     22  C   UNL     1       3.823   7.220  17.420  0.00  0.00    +0.000 A 
BRANCH  20  23
ATOM     23  O   UNL     1       1.230   9.783  17.876  0.00  0.00    +0.000 OA
BRANCH  23  24
ATOM     24  C   UNL     1       1.596  10.918  18.673  0.00  0.00    +0.000 C 
BRANCH  24  25
ATOM     25  C   UNL     1       0.440  11.860  19.022  0.00  0.00    +0.000 C 
BRANCH  25  26
ATOM     26  N   UNL     1      -0.205  11.487  20.313  0.00  0.00    +0.000 NA
ATOM     27  C   UNL     1       0.663  10.617  21.103  0.00  0.00    +0.000 C 
ATOM     28  C   UNL     1      -0.132   9.647  21.985  0.00  0.00    +0.000 C 
ATOM     29  C   UNL     1      -0.726  10.235  23.260  0.00  0.00    +0.000 C 
ATOM     30  C   UNL     1      -1.678  11.401  23.035  0.00  0.00    +0.000 C 
ATOM     31  C   UNL     1      -0.944  12.631  22.530  0.00  0.00    +0.000 C 
ATOM     32  C   UNL     1      -0.727  12.668  21.019  0.00  0.00    +0.000 C 
ENDBRANCH  25  26
ENDBRANCH  24  25
ENDBRANCH  23  24
ENDBRANCH  20  23
ENDBRANCH   3  17
TORSDOF 6
ENDMDL
MODEL 9
REMARK VINA RESULT:      -8.9      2.406      3.655
REMARK  Name = 
REMARK  6 active torsions:
REMARK  status: ('A' for Active; 'I' for Inactive)
REMARK    1  A    between atoms: C_2  and  C_3
REMARK    2  A    between atoms: C_9  and  C_10
REMARK    3  A    between atoms: C_13  and  O_14
REMARK    4  A    between atoms: O_14  and  C_15
REMARK    5  A    between atoms: C_15  and  C_16
REMARK    6  A    between atoms: C_16  and  N_17
REMARK                            x       y       z     vdW  Elec       q    Type
REMARK                         _______ _______ _______ _____ _____    ______ ____
ROOT
ATOM      1  C   UNL     1       5.045   4.622  19.140  0.00  0.00    +0.000 C 
ATOM      2  C   UNL     1       3.795   4.652  18.636  0.00  0.00    +0.000 C 
ATOM      3  C   UNL     1       3.433   5.750  17.626  0.00  0.00    +0.000 C 
ATOM      4  O   UNL     1       4.548   6.148  16.795  0.00  0.00    +0.000 OA
ATOM      5  C   UNL     1       5.720   6.322  17.488  0.00  0.00    +0.000 A 
ATOM      6  C   UNL     1       6.639   7.231  16.961  0.00  0.00    +0.000 A 
ATOM      7  C   UNL     1       7.836   7.470  17.634  0.00  0.00    +0.000 A 
ATOM      8  C   UNL     1       8.118   6.791  18.820  0.00  0.00    +0.000 A 
ATOM      9  C   UNL     1       7.209   5.853  19.327  0.00  0.00    +0.000 A 
ATOM     10  C   UNL     1       6.006   5.614  18.658  0.00  0.00    +0.000 A 
ENDROOT
BRANCH   2  11
ATOM     11  C   UNL     1       2.732   3.722  19.130  0.00  0.00    +0.000 A 
ATOM     12  C   UNL     1       1.805   3.125  18.256  0.00  0.00    +0.000 A 
ATOM     13  C   UNL     1       0.783   2.292  18.723  0.00  0.00    +0.000 A 
ATOM     14  C   UNL     1       0.677   2.018  20.080  0.00  0.00    +0.000 A 
ATOM     15  C   UNL     1       1.593   2.575  20.966  0.00  0.00    +0.000 A 
ATOM     16  C   UNL     1       2.610   3.416  20.495  0.00  0.00    +0.000 A 
ENDBRANCH   2  11
BRANCH   3  17
ATOM     17  C   UNL     1       2.804   7.012  18.233  0.00  0.00    +0.000 A 
ATOM     18  C   UNL     1       2.376   7.031  19.563  0.00  0.00    +0.000 A 
ATOM     19  C   UNL     1       1.739   8.141  20.096  0.00  0.00    +0.000 A 
ATOM     20  C   UNL     1       1.533   9.292  19.332  0.00  0.00    +0.000 A 
ATOM     21  C   UNL     1       1.991   9.310  18.013  0.00  0.00    +0.000 A 
ATOM     22  C   UNL     1       2.619   8.176  17.467  0.00  0.00    +0.000 A 
BRANCH  20  23
ATOM     23  O   UNL     1       0.898  10.426  19.805  0.00  0.00    +0.000 OA
BRANCH  23  24
ATOM     24  C   UNL     1       1.497  11.627  19.302  0.00  0.00    +0.000 C 
BRANCH  24  25
ATOM     25  C   UNL     1       0.537  12.810  19.144  0.00  0.00    +0.000 C 
BRANCH  25  26
ATOM     26  N   UNL     1       1.223  14.006  18.576  0.00  0.00    +0.000 NA
ATOM     27  C   UNL     1       1.003  15.184  19.412  0.00  0.00    +0.000 C 
ATOM     28  C   UNL     1       1.000  16.484  18.596  0.00  0.00    +0.000 C 
ATOM     29  C   UNL     1       2.367  17.016  18.182  0.00  0.00    +0.000 C 
ATOM     30  C   UNL     1       3.194  16.052  17.344  0.00  0.00    +0.000 C 
ATOM     31  C   UNL     1       3.648  14.853  18.160  0.00  0.00    +0.000 C 
ATOM     32  C   UNL     1       2.628  13.719  18.247  0.00  0.00    +0.000 C 
ENDBRANCH  25  26
ENDBRANCH  24  25
ENDBRANCH  23  24
ENDBRANCH  20  23
ENDBRANCH   3  17
TORSDOF 6
ENDMDL
