MODEL 1
REMARK VINA RESULT:      -8.0      0.000      0.000
REMARK  Name = 
REMARK  4 active torsions:
REMARK  status: ('A' for Active; 'I' for Inactive)
REMARK    1  A    between atoms: C_1  and  C_2
REMARK    2  A    between atoms: C_10  and  C_11
REMARK    3  A    between atoms: C_11  and  C_13
REMARK    4  A    between atoms: C_18  and  C_19
REMARK                            x       y       z     vdW  Elec       q    Type
REMARK                         _______ _______ _______ _____ _____    ______ ____
ROOT
ATOM      1  C   UNL     1       5.413   2.781  11.686  0.00  0.00    +0.000 C 
ATOM      2  C   UNL     1       5.843   3.573  12.884  0.00  0.00    +0.000 A 
ATOM      3  C   UNL     1       6.866   4.519  12.807  0.00  0.00    +0.000 A 
ATOM      4  C   UNL     1       7.266   5.218  13.947  0.00  0.00    +0.000 A 
ATOM      5  C   UNL     1       6.664   4.980  15.203  0.00  0.00    +0.000 A 
ATOM      6  C   UNL     1       5.603   4.066  15.276  0.00  0.00    +0.000 A 
ATOM      7  C   UNL     1       5.200   3.376  14.111  0.00  0.00    +0.000 A 
ATOM      8  N   UNL     1       4.956   3.853  16.500  0.00  0.00    +0.000 N 
ATOM      9  O   UNL     1       3.868   3.199  16.487  0.00  0.00    +0.000 OA
ATOM     10  C   UNL     1       5.499   4.383  17.671  0.00  0.00    +0.000 A 
ATOM     11  C   UNL     1       6.589   5.271  17.606  0.00  0.00    +0.000 A 
ATOM     12  N   UNL     1       7.106   5.632  16.374  0.00  0.00    +0.000 N 
ATOM     13  O   UNL     1       7.997   6.530  16.280  0.00  0.00    +0.000 OA
ENDROOT
BRANCH  11  14
ATOM     14  C   UNL     1       7.297   5.905  18.753  0.00  0.00    +0.000 C 
ATOM     15  F   UNL     1       6.620   5.856  19.932  0.00  0.00    +0.000 F 
ATOM     16  F   UNL     1       8.468   5.270  19.059  0.00  0.00    +0.000 F 
ATOM     17  F   UNL     1       7.603   7.212  18.546  0.00  0.00    +0.000 F 
ENDBRANCH  11  14
BRANCH  10  18
ATOM     18  C   UNL     1       4.788   4.046  18.928  0.00  0.00    +0.000 C 
ATOM     19  O   UNL     1       5.329   3.172  19.604  0.00  0.00    +0.000 OA
BRANCH  18  20
ATOM     20  C   UNL     1       3.591   4.777  19.344  0.00  0.00    +0.000 A 
ATOM     21  C   UNL     1       3.243   6.112  19.202  0.00  0.00    +0.000 A 
ATOM     22  C   UNL     1       2.155   6.480  20.055  0.00  0.00    +0.000 A 
ATOM     23  C   UNL     1       1.631   5.394  20.716  0.00  0.00    +0.000 A 
ATOM     24  S   UNL     1       2.410   3.940  20.273  0.00  0.00    +0.000 S 
ENDBRANCH  18  20
ENDBRANCH  10  18
TORSDOF 3
ENDMDL
MODEL 2
REMARK VINA RESULT:      -6.9      2.605      6.002
REMARK  Name = 
REMARK  4 active torsions:
REMARK  status: ('A' for Active; 'I' for Inactive)
REMARK    1  A    between atoms: C_1  and  C_2
REMARK    2  A    between atoms: C_10  and  C_11
REMARK    3  A    between atoms: C_11  and  C_13
REMARK    4  A    between atoms: C_18  and  C_19
REMARK                            x       y       z     vdW  Elec       q    Type
REMARK                         _______ _______ _______ _____ _____    ______ ____
ROOT
ATOM      1  C   UNL     1       1.193   2.134  21.951  0.00  0.00    +0.000 C 
ATOM      2  C   UNL     1       1.760   3.270  21.152  0.00  0.00    +0.000 A 
ATOM      3  C   UNL     1       1.063   4.467  20.985  0.00  0.00    +0.000 A 
ATOM      4  C   UNL     1       1.602   5.493  20.207  0.00  0.00    +0.000 A 
ATOM      5  C   UNL     1       2.851   5.347  19.562  0.00  0.00    +0.000 A 
ATOM      6  C   UNL     1       3.577   4.165  19.767  0.00  0.00    +0.000 A 
ATOM      7  C   UNL     1       3.024   3.140  20.567  0.00  0.00    +0.000 A 
ATOM      8  N   UNL     1       4.840   4.019  19.180  0.00  0.00    +0.000 N 
ATOM      9  O   UNL     1       5.562   3.047  19.563  0.00  0.00    +0.000 OA
ATOM     10  C   UNL     1       5.275   4.947  18.232  0.00  0.00    +0.000 A 
ATOM     11  C   UNL     1       4.529   6.117  17.995  0.00  0.00    +0.000 A 
ATOM     12  N   UNL     1       3.374   6.352  18.721  0.00  0.00    +0.000 N 
ATOM     13  O   UNL     1       2.757   7.457  18.623  0.00  0.00    +0.000 OA
ENDROOT
BRANCH  11  14
ATOM     14  C   UNL     1       4.837   7.191  17.010  0.00  0.00    +0.000 C 
ATOM     15  F   UNL     1       4.084   8.316  17.147  0.00  0.00    +0.000 F 
ATOM     16  F   UNL     1       6.109   7.669  17.140  0.00  0.00    +0.000 F 
ATOM     17  F   UNL     1       4.696   6.797  15.717  0.00  0.00    +0.000 F 
ENDBRANCH  11  14
BRANCH  10  18
ATOM     18  C   UNL     1       6.592   4.673  17.610  0.00  0.00    +0.000 C 
ATOM     19  O   UNL     1       7.526   4.584  18.406  0.00  0.00    +0.000 OA
BRANCH  18  20
ATOM     20  C   UNL     1       6.721   4.444  16.170  0.00  0.00    +0.000 A 
ATOM     21  C   UNL     1       7.579   5.000  15.233  0.00  0.00    +0.000 A 
ATOM     22  C   UNL     1       7.138   4.766  13.893  0.00  0.00    +0.000 A 
ATOM     23  C   UNL     1       6.040   3.938  13.850  0.00  0.00    +0.000 A 
ATOM     24  S   UNL     1       5.580   3.408  15.407  0.00  0.00    +0.000 S 
ENDBRANCH  18  20
ENDBRANCH  10  18
TORSDOF 3
ENDMDL
MODEL 3
REMARK VINA RESULT:      -6.8      5.679      7.461
REMARK  Name = 
REMARK  4 active torsions:
REMARK  status: ('A' for Active; 'I' for Inactive)
REMARK    1  A    between atoms: C_1  and  C_2
REMARK    2  A    between atoms: C_10  and  C_11
REMARK    3  A    between atoms: C_11  and  C_13
REMARK    4  A    between atoms: C_18  and  C_19
REMARK                            x       y       z     vdW  Elec       q    Type
REMARK                         _______ _______ _______ _____ _____    ______ ____
ROOT
ATOM      1  C   UNL     1       5.012   5.888  16.099  0.00  0.00    +0.000 C 
ATOM      2  C   UNL     1       4.209   6.327  17.287  0.00  0.00    +0.000 A 
ATOM      3  C   UNL     1       4.167   5.573  18.461  0.00  0.00    +0.000 A 
ATOM      4  C   UNL     1       3.384   5.992  19.539  0.00  0.00    +0.000 A 
ATOM      5  C   UNL     1       2.608   7.171  19.469  0.00  0.00    +0.000 A 
ATOM      6  C   UNL     1       2.685   7.956  18.310  0.00  0.00    +0.000 A 
ATOM      7  C   UNL     1       3.492   7.527  17.232  0.00  0.00    +0.000 A 
ATOM      8  N   UNL     1       1.966   9.156  18.238  0.00  0.00    +0.000 N 
ATOM      9  O   UNL     1       2.230   9.947  17.281  0.00  0.00    +0.000 OA
ATOM     10  C   UNL     1       1.020   9.456  19.219  0.00  0.00    +0.000 A 
ATOM     11  C   UNL     1       0.912   8.647  20.367  0.00  0.00    +0.000 A 
ATOM     12  N   UNL     1       1.763   7.566  20.526  0.00  0.00    +0.000 N 
ATOM     13  O   UNL     1       1.777   6.904  21.608  0.00  0.00    +0.000 OA
ENDROOT
BRANCH  11  14
ATOM     14  C   UNL     1      -0.052   8.812  21.491  0.00  0.00    +0.000 C 
ATOM     15  F   UNL     1      -0.859   9.903  21.388  0.00  0.00    +0.000 F 
ATOM     16  F   UNL     1      -0.950   7.785  21.563  0.00  0.00    +0.000 F 
ATOM     17  F   UNL     1       0.545   8.897  22.708  0.00  0.00    +0.000 F 
ENDBRANCH  11  14
BRANCH  10  18
ATOM     18  C   UNL     1       0.254  10.710  19.024  0.00  0.00    +0.000 C 
ATOM     19  O   UNL     1       0.843  11.730  19.379  0.00  0.00    +0.000 OA
BRANCH  18  20
ATOM     20  C   UNL     1      -1.058  10.707  18.375  0.00  0.00    +0.000 A 
ATOM     21  C   UNL     1      -1.549   9.956  17.317  0.00  0.00    +0.000 A 
ATOM     22  C   UNL     1      -2.750  10.511  16.774  0.00  0.00    +0.000 A 
ATOM     23  C   UNL     1      -3.200  11.582  17.510  0.00  0.00    +0.000 A 
ATOM     24  S   UNL     1      -2.212  11.881  18.871  0.00  0.00    +0.000 S 
ENDBRANCH  18  20
ENDBRANCH  10  18
TORSDOF 3
ENDMDL
MODEL 4
REMARK VINA RESULT:      -6.5      3.229      6.797
REMARK  Name = 
REMARK  4 active torsions:
REMARK  status: ('A' for Active; 'I' for Inactive)
REMARK    1  A    between atoms: C_1  and  C_2
REMARK    2  A    between atoms: C_10  and  C_11
REMARK    3  A    between atoms: C_11  and  C_13
REMARK    4  A    between atoms: C_18  and  C_19
REMARK                            x       y       z     vdW  Elec       q    Type
REMARK                         _______ _______ _______ _____ _____    ______ ____
ROOT
ATOM      1  C   UNL     1       1.013  10.633  20.103  0.00  0.00    +0.000 C 
ATOM      2  C   UNL     1       1.190   9.147  20.211  0.00  0.00    +0.000 A 
ATOM      3  C   UNL     1       0.639   8.420  21.267  0.00  0.00    +0.000 A 
ATOM      4  C   UNL     1       0.849   7.042  21.357  0.00  0.00    +0.000 A 
ATOM      5  C   UNL     1       1.629   6.354  20.401  0.00  0.00    +0.000 A 
ATOM      6  C   UNL     1       2.144   7.073  19.313  0.00  0.00    +0.000 A 
ATOM      7  C   UNL     1       1.912   8.464  19.227  0.00  0.00    +0.000 A 
ATOM      8  N   UNL     1       2.876   6.402  18.325  0.00  0.00    +0.000 N 
ATOM      9  O   UNL     1       3.132   7.028  17.251  0.00  0.00    +0.000 OA
ATOM     10  C   UNL     1       3.269   5.079  18.532  0.00  0.00    +0.000 A 
ATOM     11  C   UNL     1       2.786   4.364  19.645  0.00  0.00    +0.000 A 
ATOM     12  N   UNL     1       1.903   4.975  20.521  0.00  0.00    +0.000 N 
ATOM     13  O   UNL     1       1.350   4.315  21.452  0.00  0.00    +0.000 OA
ENDROOT
BRANCH  11  14
ATOM     14  C   UNL     1       3.120   2.964  20.025  0.00  0.00    +0.000 C 
ATOM     15  F   UNL     1       4.366   2.560  19.654  0.00  0.00    +0.000 F 
ATOM     16  F   UNL     1       3.141   2.780  21.378  0.00  0.00    +0.000 F 
ATOM     17  F   UNL     1       2.259   2.045  19.517  0.00  0.00    +0.000 F 
ENDBRANCH  11  14
BRANCH  10  18
ATOM     18  C   UNL     1       4.102   4.472  17.467  0.00  0.00    +0.000 C 
ATOM     19  O   UNL     1       3.472   3.839  16.622  0.00  0.00    +0.000 OA
BRANCH  18  20
ATOM     20  C   UNL     1       5.546   4.704  17.406  0.00  0.00    +0.000 A 
ATOM     21  C   UNL     1       6.476   4.407  16.420  0.00  0.00    +0.000 A 
ATOM     22  C   UNL     1       7.819   4.479  16.907  0.00  0.00    +0.000 A 
ATOM     23  C   UNL     1       7.874   4.950  18.198  0.00  0.00    +0.000 A 
ATOM     24  S   UNL     1       6.324   5.350  18.797  0.00  0.00    +0.000 S 
ENDBRANCH  18  20
ENDBRANCH  10  18
TORSDOF 3
ENDMDL
MODEL 5
REMARK VINA RESULT:      -6.5      3.696      6.871
REMARK  Name = 
REMARK  4 active torsions:
REMARK  status: ('A' for Active; 'I' for Inactive)
REMARK    1  A    between atoms: C_1  and  C_2
REMARK    2  A    between atoms: C_10  and  C_11
REMARK    3  A    between atoms: C_11  and  C_13
REMARK    4  A    between atoms: C_18  and  C_19
REMARK                            x       y       z     vdW  Elec       q    Type
REMARK                         _______ _______ _______ _____ _____    ______ ____
ROOT
ATOM      1  C   UNL     1       1.739  12.338  18.282  0.00  0.00    +0.000 C 
ATOM      2  C   UNL     1       1.622  10.943  18.822  0.00  0.00    +0.000 A 
ATOM      3  C   UNL     1       0.935  10.673  20.006  0.00  0.00    +0.000 A 
ATOM      4  C   UNL     1       0.872   9.368  20.500  0.00  0.00    +0.000 A 
ATOM      5  C   UNL     1       1.506   8.297  19.831  0.00  0.00    +0.000 A 
ATOM      6  C   UNL     1       2.155   8.557  18.616  0.00  0.00    +0.000 A 
ATOM      7  C   UNL     1       2.200   9.880  18.121  0.00  0.00    +0.000 A 
ATOM      8  N   UNL     1       2.746   7.503  17.908  0.00  0.00    +0.000 N 
ATOM      9  O   UNL     1       3.123   7.728  16.717  0.00  0.00    +0.000 OA
ATOM     10  C   UNL     1       2.872   6.249  18.510  0.00  0.00    +0.000 A 
ATOM     11  C   UNL     1       2.254   5.996  19.749  0.00  0.00    +0.000 A 
ATOM     12  N   UNL     1       1.504   6.989  20.357  0.00  0.00    +0.000 N 
ATOM     13  O   UNL     1       0.829   6.745  21.404  0.00  0.00    +0.000 OA
ENDROOT
BRANCH  11  14
ATOM     14  C   UNL     1       2.306   4.731  20.534  0.00  0.00    +0.000 C 
ATOM     15  F   UNL     1       3.299   3.877  20.162  0.00  0.00    +0.000 F 
ATOM     16  F   UNL     1       2.581   4.947  21.854  0.00  0.00    +0.000 F 
ATOM     17  F   UNL     1       1.153   4.015  20.485  0.00  0.00    +0.000 F 
ENDBRANCH  11  14
BRANCH  10  18
ATOM     18  C   UNL     1       3.574   5.214  17.716  0.00  0.00    +0.000 C 
ATOM     19  O   UNL     1       2.837   4.377  17.197  0.00  0.00    +0.000 OA
BRANCH  18  20
ATOM     20  C   UNL     1       5.023   5.265  17.512  0.00  0.00    +0.000 A 
ATOM     21  C   UNL     1       5.782   5.200  16.352  0.00  0.00    +0.000 A 
ATOM     22  C   UNL     1       7.160   4.931  16.625  0.00  0.00    +0.000 A 
ATOM     23  C   UNL     1       7.426   4.928  17.975  0.00  0.00    +0.000 A 
ATOM     24  S   UNL     1       6.038   5.297  18.899  0.00  0.00    +0.000 S 
ENDBRANCH  18  20
ENDBRANCH  10  18
TORSDOF 3
ENDMDL
MODEL 6
REMARK VINA RESULT:      -6.5      3.710      6.896
REMARK  Name = 
REMARK  4 active torsions:
REMARK  status: ('A' for Active; 'I' for Inactive)
REMARK    1  A    between atoms: C_1  and  C_2
REMARK    2  A    between atoms: C_10  and  C_11
REMARK    3  A    between atoms: C_11  and  C_13
REMARK    4  A    between atoms: C_18  and  C_19
REMARK                            x       y       z     vdW  Elec       q    Type
REMARK                         _______ _______ _______ _____ _____    ______ ____
ROOT
ATOM      1  C   UNL     1       0.480  10.926  20.316  0.00  0.00    +0.000 C 
ATOM      2  C   UNL     1       0.795   9.460  20.329  0.00  0.00    +0.000 A 
ATOM      3  C   UNL     1       0.152   8.581  21.201  0.00  0.00    +0.000 A 
ATOM      4  C   UNL     1       0.491   7.226  21.212  0.00  0.00    +0.000 A 
ATOM      5  C   UNL     1       1.494   6.713  20.359  0.00  0.00    +0.000 A 
ATOM      6  C   UNL     1       2.108   7.583  19.448  0.00  0.00    +0.000 A 
ATOM      7  C   UNL     1       1.746   8.949  19.439  0.00  0.00    +0.000 A 
ATOM      8  N   UNL     1       3.068   7.087  18.557  0.00  0.00    +0.000 N 
ATOM      9  O   UNL     1       3.437   7.840  17.604  0.00  0.00    +0.000 OA
ATOM     10  C   UNL     1       3.560   5.790  18.720  0.00  0.00    +0.000 A 
ATOM     11  C   UNL     1       2.971   4.925  19.662  0.00  0.00    +0.000 A 
ATOM     12  N   UNL     1       1.890   5.360  20.410  0.00  0.00    +0.000 N 
ATOM     13  O   UNL     1       1.258   4.560  21.166  0.00  0.00    +0.000 OA
ENDROOT
BRANCH  11  14
ATOM     14  C   UNL     1       3.384   3.529  19.976  0.00  0.00    +0.000 C 
ATOM     15  F   UNL     1       2.835   2.582  19.168  0.00  0.00    +0.000 F 
ATOM     16  F   UNL     1       4.723   3.328  19.798  0.00  0.00    +0.000 F 
ATOM     17  F   UNL     1       3.097   3.153  21.249  0.00  0.00    +0.000 F 
ENDBRANCH  11  14
BRANCH  10  18
ATOM     18  C   UNL     1       4.625   5.375  17.777  0.00  0.00    +0.000 C 
ATOM     19  O   UNL     1       4.223   4.777  16.780  0.00  0.00    +0.000 OA
BRANCH  18  20
ATOM     20  C   UNL     1       6.024   5.741  18.001  0.00  0.00    +0.000 A 
ATOM     21  C   UNL     1       6.957   5.263  18.909  0.00  0.00    +0.000 A 
ATOM     22  C   UNL     1       8.087   6.131  19.028  0.00  0.00    +0.000 A 
ATOM     23  C   UNL     1       8.040   7.164  18.122  0.00  0.00    +0.000 A 
ATOM     24  S   UNL     1       6.672   7.058  17.104  0.00  0.00    +0.000 S 
ENDBRANCH  18  20
ENDBRANCH  10  18
TORSDOF 3
ENDMDL
MODEL 7
REMARK VINA RESULT:      -6.4      6.782      8.843
REMARK  Name = 
REMARK  4 active torsions:
REMARK  status: ('A' for Active; 'I' for Inactive)
REMARK    1  A    between atoms: C_1  and  C_2
REMARK    2  A    between atoms: C_10  and  C_11
REMARK    3  A    between atoms: C_11  and  C_13
REMARK    4  A    between atoms: C_18  and  C_19
REMARK                            x       y       z     vdW  Elec       q    Type
REMARK                         _______ _______ _______ _____ _____    ______ ____
ROOT
ATOM      1  C   UNL     1       2.216   4.955  20.884  0.00  0.00    +0.000 C 
ATOM      2  C   UNL     1       2.031   6.292  20.230  0.00  0.00    +0.000 A 
ATOM      3  C   UNL     1       2.555   6.566  18.966  0.00  0.00    +0.000 A 
ATOM      4  C   UNL     1       2.395   7.831  18.397  0.00  0.00    +0.000 A 
ATOM      5  C   UNL     1       1.717   8.864  19.082  0.00  0.00    +0.000 A 
ATOM      6  C   UNL     1       1.148   8.579  20.331  0.00  0.00    +0.000 A 
ATOM      7  C   UNL     1       1.306   7.290  20.889  0.00  0.00    +0.000 A 
ATOM      8  N   UNL     1       0.426   9.572  21.005  0.00  0.00    +0.000 N 
ATOM      9  O   UNL     1      -0.261   9.222  22.014  0.00  0.00    +0.000 OA
ATOM     10  C   UNL     1       0.457  10.887  20.540  0.00  0.00    +0.000 A 
ATOM     11  C   UNL     1       1.063  11.185  19.304  0.00  0.00    +0.000 A 
ATOM     12  N   UNL     1       1.608  10.164  18.545  0.00  0.00    +0.000 N 
ATOM     13  O   UNL     1       2.038  10.384  17.371  0.00  0.00    +0.000 OA
ENDROOT
BRANCH  11  14
ATOM     14  C   UNL     1       1.202  12.528  18.676  0.00  0.00    +0.000 C 
ATOM     15  F   UNL     1       1.387  13.548  19.557  0.00  0.00    +0.000 F 
ATOM     16  F   UNL     1       2.308  12.620  17.881  0.00  0.00    +0.000 F 
ATOM     17  F   UNL     1       0.137  12.880  17.909  0.00  0.00    +0.000 F 
ENDBRANCH  11  14
BRANCH  10  18
ATOM     18  C   UNL     1      -0.275  11.885  21.357  0.00  0.00    +0.000 C 
ATOM     19  O   UNL     1       0.429  12.520  22.141  0.00  0.00    +0.000 OA
BRANCH  18  20
ATOM     20  C   UNL     1      -1.704  12.131  21.157  0.00  0.00    +0.000 A 
ATOM     21  C   UNL     1      -2.449  12.273  19.996  0.00  0.00    +0.000 A 
ATOM     22  C   UNL     1      -3.734  12.850  20.248  0.00  0.00    +0.000 A 
ATOM     23  C   UNL     1      -3.972  13.006  21.593  0.00  0.00    +0.000 A 
ATOM     24  S   UNL     1      -2.681  12.415  22.543  0.00  0.00    +0.000 S 
ENDBRANCH  18  20
ENDBRANCH  10  18
TORSDOF 3
ENDMDL
MODEL 8
REMARK VINA RESULT:      -6.4      3.020      5.781
REMARK  Name = 
REMARK  4 active torsions:
REMARK  status: ('A' for Active; 'I' for Inactive)
REMARK    1  A    between atoms: C_1  and  C_2
REMARK    2  A    between atoms: C_10  and  C_11
REMARK    3  A    between atoms: C_11  and  C_13
REMARK    4  A    between atoms: C_18  and  C_19
REMARK                            x       y       z     vdW  Elec       q    Type
REMARK                         _______ _______ _______ _____ _____    ______ ____
ROOT
ATOM      1  C   UNL     1       1.887   2.170  21.891  0.00  0.00    +0.000 C 
ATOM      2  C   UNL     1       2.339   2.612  20.531  0.00  0.00    +0.000 A 
ATOM      3  C   UNL     1       1.541   2.432  19.400  0.00  0.00    +0.000 A 
ATOM      4  C   UNL     1       2.003   2.824  18.142  0.00  0.00    +0.000 A 
ATOM      5  C   UNL     1       3.285   3.396  17.976  0.00  0.00    +0.000 A 
ATOM      6  C   UNL     1       4.070   3.623  19.115  0.00  0.00    +0.000 A 
ATOM      7  C   UNL     1       3.584   3.233  20.384  0.00  0.00    +0.000 A 
ATOM      8  N   UNL     1       5.322   4.236  18.982  0.00  0.00    +0.000 N 
ATOM      9  O   UNL     1       5.904   4.630  20.039  0.00  0.00    +0.000 OA
ATOM     10  C   UNL     1       5.870   4.423  17.711  0.00  0.00    +0.000 A 
ATOM     11  C   UNL     1       5.098   4.159  16.563  0.00  0.00    +0.000 A 
ATOM     12  N   UNL     1       3.787   3.734  16.702  0.00  0.00    +0.000 N 
ATOM     13  O   UNL     1       3.030   3.618  15.690  0.00  0.00    +0.000 OA
ENDROOT
BRANCH  11  14
ATOM     14  C   UNL     1       5.532   4.282  15.144  0.00  0.00    +0.000 C 
ATOM     15  F   UNL     1       4.605   3.880  14.233  0.00  0.00    +0.000 F 
ATOM     16  F   UNL     1       5.762   5.578  14.780  0.00  0.00    +0.000 F 
ATOM     17  F   UNL     1       6.665   3.589  14.863  0.00  0.00    +0.000 F 
ENDBRANCH  11  14
BRANCH  10  18
ATOM     18  C   UNL     1       7.229   5.012  17.668  0.00  0.00    +0.000 C 
ATOM     19  O   UNL     1       8.122   4.220  17.371  0.00  0.00    +0.000 OA
BRANCH  18  20
ATOM     20  C   UNL     1       7.444   6.445  17.879  0.00  0.00    +0.000 A 
ATOM     21  C   UNL     1       7.074   7.543  17.118  0.00  0.00    +0.000 A 
ATOM     22  C   UNL     1       7.783   8.726  17.498  0.00  0.00    +0.000 A 
ATOM     23  C   UNL     1       8.566   8.521  18.609  0.00  0.00    +0.000 A 
ATOM     24  S   UNL     1       8.407   6.933  19.218  0.00  0.00    +0.000 S 
ENDBRANCH  18  20
ENDBRANCH  10  18
TORSDOF 3
ENDMDL
MODEL 9
REMARK VINA RESULT:      -6.4      3.702      6.745
REMARK  Name = 
REMARK  4 active torsions:
REMARK  status: ('A' for Active; 'I' for Inactive)
REMARK    1  A    between atoms: C_1  and  C_2
REMARK    2  A    between atoms: C_10  and  C_11
REMARK    3  A    between atoms: C_11  and  C_13
REMARK    4  A    between atoms: C_18  and  C_19
REMARK                            x       y       z     vdW  Elec       q    Type
REMARK                         _______ _______ _______ _____ _____    ______ ____
ROOT
ATOM      1  C   UNL     1       2.040  12.160  18.012  0.00  0.00    +0.000 C 
ATOM      2  C   UNL     1       1.848  10.794  18.601  0.00  0.00    +0.000 A 
ATOM      3  C   UNL     1       1.069  10.592  19.740  0.00  0.00    +0.000 A 
ATOM      4  C   UNL     1       0.936   9.312  20.284  0.00  0.00    +0.000 A 
ATOM      5  C   UNL     1       1.591   8.199  19.712  0.00  0.00    +0.000 A 
ATOM      6  C   UNL     1       2.336   8.390  18.539  0.00  0.00    +0.000 A 
ATOM      7  C   UNL     1       2.451   9.688  17.992  0.00  0.00    +0.000 A 
ATOM      8  N   UNL     1       2.951   7.292  17.924  0.00  0.00    +0.000 N 
ATOM      9  O   UNL     1       3.422   7.456  16.756  0.00  0.00    +0.000 OA
ATOM     10  C   UNL     1       3.000   6.065  18.586  0.00  0.00    +0.000 A 
ATOM     11  C   UNL     1       2.285   5.880  19.786  0.00  0.00    +0.000 A 
ATOM     12  N   UNL     1       1.518   6.915  20.292  0.00  0.00    +0.000 N 
ATOM     13  O   UNL     1       0.760   6.734  21.293  0.00  0.00    +0.000 OA
ENDROOT
BRANCH  11  14
ATOM     14  C   UNL     1       2.248   4.651  20.625  0.00  0.00    +0.000 C 
ATOM     15  F   UNL     1       2.450   4.867  21.953  0.00  0.00    +0.000 F 
ATOM     16  F   UNL     1       1.024   4.044  20.608  0.00  0.00    +0.000 F 
ATOM     17  F   UNL     1       3.156   3.712  20.252  0.00  0.00    +0.000 F 
ENDBRANCH  11  14
BRANCH  10  18
ATOM     18  C   UNL     1       3.734   4.980  17.893  0.00  0.00    +0.000 C 
ATOM     19  O   UNL     1       3.032   4.251  17.194  0.00  0.00    +0.000 OA
BRANCH  18  20
ATOM     20  C   UNL     1       5.191   4.868  17.984  0.00  0.00    +0.000 A 
ATOM     21  C   UNL     1       6.070   5.222  18.997  0.00  0.00    +0.000 A 
ATOM     22  C   UNL     1       7.425   5.272  18.541  0.00  0.00    +0.000 A 
ATOM     23  C   UNL     1       7.548   4.834  17.243  0.00  0.00    +0.000 A 
ATOM     24  S   UNL     1       6.051   4.319  16.600  0.00  0.00    +0.000 S 
ENDBRANCH  18  20
ENDBRANCH  10  18
TORSDOF 3
ENDMDL
