MODEL 1
REMARK VINA RESULT:      -8.8      0.000      0.000
REMARK  Name = 
REMARK  6 active torsions:
REMARK  status: ('A' for Active; 'I' for Inactive)
REMARK    1  A    between atoms: C_1  and  C_2
REMARK    2  A    between atoms: N_4  and  C_5
REMARK    3  A    between atoms: C_8  and  C_9
REMARK    4  A    between atoms: C_9  and  C_10
REMARK    5  A    between atoms: C_10  and  N_11
REMARK    6  A    between atoms: C_14  and  C_15
REMARK                            x       y       z     vdW  Elec       q    Type
REMARK                         _______ _______ _______ _____ _____    ______ ____
ROOT
ATOM      1  N   UNL     1       1.883   3.802  19.550  0.00  0.00    +0.000 NA
ATOM      2  C   UNL     1       1.943   4.271  18.159  0.00  0.00    +0.000 C 
ATOM      3  C   UNL     1       2.662   3.345  17.191  0.00  0.00    +0.000 C 
ATOM      4  C   UNL     1       4.044   2.933  17.696  0.00  0.00    +0.000 C 
ATOM      5  C   UNL     1       3.853   2.310  19.093  0.00  0.00    +0.000 C 
ATOM      6  C   UNL     1       3.138   3.243  20.066  0.00  0.00    +0.000 C 
ENDROOT
BRANCH   4   7
ATOM      7  C   UNL     1       5.144   3.989  17.633  0.00  0.00    +0.000 A 
ATOM      8  C   UNL     1       5.522   4.636  18.829  0.00  0.00    +0.000 A 
ATOM      9  C   UNL     1       6.555   5.591  18.870  0.00  0.00    +0.000 A 
ATOM     10  C   UNL     1       7.246   5.928  17.712  0.00  0.00    +0.000 A 
ATOM     11  C   UNL     1       6.886   5.292  16.547  0.00  0.00    +0.000 A 
ATOM     12  C   UNL     1       5.878   4.344  16.504  0.00  0.00    +0.000 A 
ATOM     13  O   UNL     1       5.761   3.840  15.243  0.00  0.00    +0.000 OA
ATOM     14  C   UNL     1       6.701   4.635  14.502  0.00  0.00    +0.000 C 
ATOM     15  O   UNL     1       7.479   5.504  15.336  0.00  0.00    +0.000 OA
ENDBRANCH   4   7
BRANCH   1  16
ATOM     16  C   UNL     1       1.454   4.916  20.422  0.00  0.00    +0.000 C 
BRANCH  16  17
ATOM     17  C   UNL     1       2.317   6.166  20.235  0.00  0.00    +0.000 C 
BRANCH  17  21
ATOM     18  C   UNL     1       1.297  10.270  19.032  0.00  0.00    +0.000 C 
ATOM     19  C   UNL     1       0.558   9.671  20.235  0.00  0.00    +0.000 C 
ATOM     20  C   UNL     1       1.270   8.438  20.794  0.00  0.00    +0.000 C 
ATOM     21  C   UNL     1       1.530   7.380  19.710  0.00  0.00    +0.000 C 
ATOM     22  C   UNL     1       2.293   7.990  18.532  0.00  0.00    +0.000 C 
ATOM     23  C   UNL     1       1.560   9.196  17.965  0.00  0.00    +0.000 C 
BRANCH  18  27
ATOM     24  C   UNL     1       1.689  13.231  19.567  0.00  0.00    +0.000 C 
ATOM     25  C   UNL     1       0.601  12.698  18.685  0.00  0.00    +0.000 C 
ATOM     26  O   UNL     1      -0.224  13.450  18.147  0.00  0.00    +0.000 OA
ATOM     27  N   UNL     1       0.523  11.361  18.449  0.00  0.00    +0.000 N 
ATOM     28  H   UNL     1      -0.304  11.117  17.911  0.00  0.00    +0.000 HD
ENDBRANCH  18  27
ENDBRANCH  17  21
ENDBRANCH  16  17
ENDBRANCH   1  16
TORSDOF 5
ENDMDL
MODEL 2
REMARK VINA RESULT:      -8.7      0.751      1.370
REMARK  Name = 
REMARK  6 active torsions:
REMARK  status: ('A' for Active; 'I' for Inactive)
REMARK    1  A    between atoms: C_1  and  C_2
REMARK    2  A    between atoms: N_4  and  C_5
REMARK    3  A    between atoms: C_8  and  C_9
REMARK    4  A    between atoms: C_9  and  C_10
REMARK    5  A    between atoms: C_10  and  N_11
REMARK    6  A    between atoms: C_14  and  C_15
REMARK                            x       y       z     vdW  Elec       q    Type
REMARK                         _______ _______ _______ _____ _____    ______ ____
ROOT
ATOM      1  N   UNL     1       1.773   4.035  19.323  0.00  0.00    +0.000 NA
ATOM      2  C   UNL     1       1.924   4.372  17.900  0.00  0.00    +0.000 C 
ATOM      3  C   UNL     1       2.692   3.356  17.070  0.00  0.00    +0.000 C 
ATOM      4  C   UNL     1       4.036   2.987  17.697  0.00  0.00    +0.000 C 
ATOM      5  C   UNL     1       3.752   2.498  19.131  0.00  0.00    +0.000 C 
ATOM      6  C   UNL     1       2.987   3.521  19.966  0.00  0.00    +0.000 C 
ENDROOT
BRANCH   4   7
ATOM      7  C   UNL     1       5.149   4.027  17.605  0.00  0.00    +0.000 A 
ATOM      8  C   UNL     1       5.538   4.699  18.785  0.00  0.00    +0.000 A 
ATOM      9  C   UNL     1       6.583   5.641  18.799  0.00  0.00    +0.000 A 
ATOM     10  C   UNL     1       7.274   5.941  17.632  0.00  0.00    +0.000 A 
ATOM     11  C   UNL     1       6.904   5.282  16.484  0.00  0.00    +0.000 A 
ATOM     12  C   UNL     1       5.884   4.345  16.466  0.00  0.00    +0.000 A 
ATOM     13  O   UNL     1       5.757   3.812  15.219  0.00  0.00    +0.000 OA
ATOM     14  C   UNL     1       6.705   4.577  14.456  0.00  0.00    +0.000 C 
ATOM     15  O   UNL     1       7.496   5.456  15.267  0.00  0.00    +0.000 OA
ENDBRANCH   4   7
BRANCH   1  16
ATOM     16  C   UNL     1       1.301   5.228  20.058  0.00  0.00    +0.000 C 
BRANCH  16  17
ATOM     17  C   UNL     1       2.449   6.165  20.442  0.00  0.00    +0.000 C 
BRANCH  17  21
ATOM     18  C   UNL     1       0.534   9.795  18.865  0.00  0.00    +0.000 C 
ATOM     19  C   UNL     1       1.722   9.215  18.088  0.00  0.00    +0.000 C 
ATOM     20  C   UNL     1       2.026   7.771  18.491  0.00  0.00    +0.000 C 
ATOM     21  C   UNL     1       2.221   7.623  20.007  0.00  0.00    +0.000 C 
ATOM     22  C   UNL     1       1.013   8.181  20.764  0.00  0.00    +0.000 C 
ATOM     23  C   UNL     1       0.739   9.626  20.379  0.00  0.00    +0.000 C 
BRANCH  18  27
ATOM     24  C   UNL     1      -2.115  11.236  18.525  0.00  0.00    +0.000 C 
ATOM     25  C   UNL     1      -0.789  11.906  18.323  0.00  0.00    +0.000 C 
ATOM     26  O   UNL     1      -0.708  13.091  17.972  0.00  0.00    +0.000 OA
ATOM     27  N   UNL     1       0.356  11.208  18.549  0.00  0.00    +0.000 N 
ATOM     28  H   UNL     1       1.183  11.741  18.294  0.00  0.00    +0.000 HD
ENDBRANCH  18  27
ENDBRANCH  17  21
ENDBRANCH  16  17
ENDBRANCH   1  16
TORSDOF 5
ENDMDL
MODEL 3
REMARK VINA RESULT:      -8.5      0.766      1.038
REMARK  Name = 
REMARK  6 active torsions:
REMARK  status: ('A' for Active; 'I' for Inactive)
REMARK    1  A    between atoms: C_1  and  C_2
REMARK    2  A    between atoms: N_4  and  C_5
REMARK    3  A    between atoms: C_8  and  C_9
REMARK    4  A    between atoms: C_9  and  C_10
REMARK    5  A    between atoms: C_10  and  N_11
REMARK    6  A    between atoms: C_14  and  C_15
REMARK                            x       y       z     vdW  Elec       q    Type
REMARK                         _______ _______ _______ _____ _____    ______ ____
ROOT
ATOM      1  N   UNL     1       1.914   3.847  19.579  0.00  0.00    +0.000 NA
ATOM      2  C   UNL     1       1.972   4.347  18.199  0.00  0.00    +0.000 C 
ATOM      3  C   UNL     1       2.668   3.431  17.204  0.00  0.00    +0.000 C 
ATOM      4  C   UNL     1       4.047   2.985  17.690  0.00  0.00    +0.000 C 
ATOM      5  C   UNL     1       3.855   2.333  19.073  0.00  0.00    +0.000 C 
ATOM      6  C   UNL     1       3.162   3.255  20.073  0.00  0.00    +0.000 C 
ENDROOT
BRANCH   4   7
ATOM      7  C   UNL     1       5.164   4.023  17.642  0.00  0.00    +0.000 A 
ATOM      8  C   UNL     1       5.552   4.646  18.848  0.00  0.00    +0.000 A 
ATOM      9  C   UNL     1       6.600   5.583  18.903  0.00  0.00    +0.000 A 
ATOM     10  C   UNL     1       7.297   5.926  17.751  0.00  0.00    +0.000 A 
ATOM     11  C   UNL     1       6.928   5.314  16.576  0.00  0.00    +0.000 A 
ATOM     12  C   UNL     1       5.904   4.382  16.519  0.00  0.00    +0.000 A 
ATOM     13  O   UNL     1       5.779   3.899  15.251  0.00  0.00    +0.000 OA
ATOM     14  C   UNL     1       6.733   4.689  14.522  0.00  0.00    +0.000 C 
ATOM     15  O   UNL     1       7.524   5.533  15.369  0.00  0.00    +0.000 OA
ENDBRANCH   4   7
BRANCH   1  16
ATOM     16  C   UNL     1       1.509   4.948  20.480  0.00  0.00    +0.000 C 
BRANCH  16  17
ATOM     17  C   UNL     1       2.346   6.211  20.264  0.00  0.00    +0.000 C 
BRANCH  17  21
ATOM     18  C   UNL     1       1.186  10.361  19.386  0.00  0.00    +0.000 C 
ATOM     19  C   UNL     1       0.543   9.678  20.599  0.00  0.00    +0.000 C 
ATOM     20  C   UNL     1       1.310   8.426  21.031  0.00  0.00    +0.000 C 
ATOM     21  C   UNL     1       1.507   7.440  19.870  0.00  0.00    +0.000 C 
ATOM     22  C   UNL     1       2.176   8.133  18.681  0.00  0.00    +0.000 C 
ATOM     23  C   UNL     1       1.389   9.357  18.240  0.00  0.00    +0.000 C 
BRANCH  18  27
ATOM     24  C   UNL     1      -1.630  10.156  18.274  0.00  0.00    +0.000 C 
ATOM     25  C   UNL     1      -0.880  11.450  18.363  0.00  0.00    +0.000 C 
ATOM     26  O   UNL     1      -1.368  12.512  17.954  0.00  0.00    +0.000 OA
ATOM     27  N   UNL     1       0.358  11.471  18.926  0.00  0.00    +0.000 N 
ATOM     28  H   UNL     1       0.796  12.384  18.848  0.00  0.00    +0.000 HD
ENDBRANCH  18  27
ENDBRANCH  17  21
ENDBRANCH  16  17
ENDBRANCH   1  16
TORSDOF 5
ENDMDL
MODEL 4
REMARK VINA RESULT:      -8.3      1.440      1.871
REMARK  Name = 
REMARK  6 active torsions:
REMARK  status: ('A' for Active; 'I' for Inactive)
REMARK    1  A    between atoms: C_1  and  C_2
REMARK    2  A    between atoms: N_4  and  C_5
REMARK    3  A    between atoms: C_8  and  C_9
REMARK    4  A    between atoms: C_9  and  C_10
REMARK    5  A    between atoms: C_10  and  N_11
REMARK    6  A    between atoms: C_14  and  C_15
REMARK                            x       y       z     vdW  Elec       q    Type
REMARK                         _______ _______ _______ _____ _____    ______ ____
ROOT
ATOM      1  N   UNL     1       1.931   4.378  19.630  0.00  0.00    +0.000 NA
ATOM      2  C   UNL     1       2.040   4.702  18.201  0.00  0.00    +0.000 C 
ATOM      3  C   UNL     1       2.687   3.631  17.338  0.00  0.00    +0.000 C 
ATOM      4  C   UNL     1       4.028   3.160  17.902  0.00  0.00    +0.000 C 
ATOM      5  C   UNL     1       3.776   2.694  19.349  0.00  0.00    +0.000 C 
ATOM      6  C   UNL     1       3.132   3.773  20.216  0.00  0.00    +0.000 C 
ENDROOT
BRANCH   4   7
ATOM      7  C   UNL     1       5.210   4.113  17.753  0.00  0.00    +0.000 A 
ATOM      8  C   UNL     1       5.726   4.728  18.915  0.00  0.00    +0.000 A 
ATOM      9  C   UNL     1       6.840   5.586  18.875  0.00  0.00    +0.000 A 
ATOM     10  C   UNL     1       7.477   5.855  17.670  0.00  0.00    +0.000 A 
ATOM     11  C   UNL     1       6.984   5.249  16.538  0.00  0.00    +0.000 A 
ATOM     12  C   UNL     1       5.894   4.395  16.573  0.00  0.00    +0.000 A 
ATOM     13  O   UNL     1       5.647   3.898  15.329  0.00  0.00    +0.000 OA
ATOM     14  C   UNL     1       6.601   4.602  14.518  0.00  0.00    +0.000 C 
ATOM     15  O   UNL     1       7.509   5.401  15.288  0.00  0.00    +0.000 OA
ENDBRANCH   4   7
BRANCH   1  16
ATOM     16  C   UNL     1       1.588   5.603  20.382  0.00  0.00    +0.000 C 
BRANCH  16  17
ATOM     17  C   UNL     1       2.298   6.842  19.831  0.00  0.00    +0.000 C 
BRANCH  17  21
ATOM     18  C   UNL     1      -0.482  10.144  20.668  0.00  0.00    +0.000 C 
ATOM     19  C   UNL     1       0.742  10.441  19.793  0.00  0.00    +0.000 C 
ATOM     20  C   UNL     1       1.385   9.164  19.248  0.00  0.00    +0.000 C 
ATOM     21  C   UNL     1       1.723   8.166  20.365  0.00  0.00    +0.000 C 
ATOM     22  C   UNL     1       0.484   7.860  21.209  0.00  0.00    +0.000 C 
ATOM     23  C   UNL     1      -0.129   9.133  21.771  0.00  0.00    +0.000 C 
BRANCH  18  27
ATOM     24  C   UNL     1      -2.477  12.061  19.423  0.00  0.00    +0.000 C 
ATOM     25  C   UNL     1      -1.831  12.306  20.754  0.00  0.00    +0.000 C 
ATOM     26  O   UNL     1      -2.061  13.332  21.407  0.00  0.00    +0.000 OA
ATOM     27  N   UNL     1      -0.989  11.372  21.272  0.00  0.00    +0.000 N 
ATOM     28  H   UNL     1      -0.550  11.690  22.131  0.00  0.00    +0.000 HD
ENDBRANCH  18  27
ENDBRANCH  17  21
ENDBRANCH  16  17
ENDBRANCH   1  16
TORSDOF 5
ENDMDL
MODEL 5
REMARK VINA RESULT:      -8.2      1.365      1.791
REMARK  Name = 
REMARK  6 active torsions:
REMARK  status: ('A' for Active; 'I' for Inactive)
REMARK    1  A    between atoms: C_1  and  C_2
REMARK    2  A    between atoms: N_4  and  C_5
REMARK    3  A    between atoms: C_8  and  C_9
REMARK    4  A    between atoms: C_9  and  C_10
REMARK    5  A    between atoms: C_10  and  N_11
REMARK    6  A    between atoms: C_14  and  C_15
REMARK                            x       y       z     vdW  Elec       q    Type
REMARK                         _______ _______ _______ _____ _____    ______ ____
ROOT
ATOM      1  N   UNL     1       2.027   3.641  19.694  0.00  0.00    +0.000 NA
ATOM      2  C   UNL     1       1.886   3.878  18.250  0.00  0.00    +0.000 C 
ATOM      3  C   UNL     1       2.851   3.102  17.367  0.00  0.00    +0.000 C 
ATOM      4  C   UNL     1       4.304   3.258  17.814  0.00  0.00    +0.000 C 
ATOM      5  C   UNL     1       4.374   2.835  19.295  0.00  0.00    +0.000 C 
ATOM      6  C   UNL     1       3.410   3.619  20.182  0.00  0.00    +0.000 C 
ENDROOT
BRANCH   4   7
ATOM      7  C   UNL     1       4.977   4.595  17.518  0.00  0.00    +0.000 A 
ATOM      8  C   UNL     1       4.398   5.436  16.543  0.00  0.00    +0.000 A 
ATOM      9  C   UNL     1       4.929   6.703  16.238  0.00  0.00    +0.000 A 
ATOM     10  C   UNL     1       6.056   7.170  16.901  0.00  0.00    +0.000 A 
ATOM     11  C   UNL     1       6.617   6.358  17.858  0.00  0.00    +0.000 A 
ATOM     12  C   UNL     1       6.093   5.114  18.170  0.00  0.00    +0.000 A 
ATOM     13  O   UNL     1       6.807   4.543  19.180  0.00  0.00    +0.000 OA
ATOM     14  C   UNL     1       7.871   5.488  19.380  0.00  0.00    +0.000 C 
ATOM     15  O   UNL     1       7.713   6.682  18.602  0.00  0.00    +0.000 OA
ENDBRANCH   4   7
BRANCH   1  16
ATOM     16  C   UNL     1       1.268   4.673  20.433  0.00  0.00    +0.000 C 
BRANCH  16  17
ATOM     17  C   UNL     1       2.084   5.949  20.651  0.00  0.00    +0.000 C 
BRANCH  17  21
ATOM     18  C   UNL     1       1.523  10.049  19.165  0.00  0.00    +0.000 C 
ATOM     19  C   UNL     1       0.704   9.610  20.385  0.00  0.00    +0.000 C 
ATOM     20  C   UNL     1       1.273   8.349  21.039  0.00  0.00    +0.000 C 
ATOM     21  C   UNL     1       1.439   7.202  20.031  0.00  0.00    +0.000 C 
ATOM     22  C   UNL     1       2.282   7.650  18.836  0.00  0.00    +0.000 C 
ATOM     23  C   UNL     1       1.691   8.885  18.175  0.00  0.00    +0.000 C 
BRANCH  18  27
ATOM     24  C   UNL     1       1.901  12.986  19.830  0.00  0.00    +0.000 C 
ATOM     25  C   UNL     1       0.952  12.503  18.774  0.00  0.00    +0.000 C 
ATOM     26  O   UNL     1       0.243  13.289  18.132  0.00  0.00    +0.000 OA
ATOM     27  N   UNL     1       0.880  11.174  18.495  0.00  0.00    +0.000 N 
ATOM     28  H   UNL     1       0.143  10.965  17.827  0.00  0.00    +0.000 HD
ENDBRANCH  18  27
ENDBRANCH  17  21
ENDBRANCH  16  17
ENDBRANCH   1  16
TORSDOF 5
ENDMDL
MODEL 6
REMARK VINA RESULT:      -8.1      1.469      2.206
REMARK  Name = 
REMARK  6 active torsions:
REMARK  status: ('A' for Active; 'I' for Inactive)
REMARK    1  A    between atoms: C_1  and  C_2
REMARK    2  A    between atoms: N_4  and  C_5
REMARK    3  A    between atoms: C_8  and  C_9
REMARK    4  A    between atoms: C_9  and  C_10
REMARK    5  A    between atoms: C_10  and  N_11
REMARK    6  A    between atoms: C_14  and  C_15
REMARK                            x       y       z     vdW  Elec       q    Type
REMARK                         _______ _______ _______ _____ _____    ______ ____
ROOT
ATOM      1  N   UNL     1       1.943   3.925  19.409  0.00  0.00    +0.000 NA
ATOM      2  C   UNL     1       1.933   4.059  17.946  0.00  0.00    +0.000 C 
ATOM      3  C   UNL     1       2.935   3.187  17.206  0.00  0.00    +0.000 C 
ATOM      4  C   UNL     1       4.351   3.324  17.765  0.00  0.00    +0.000 C 
ATOM      5  C   UNL     1       4.279   3.010  19.272  0.00  0.00    +0.000 C 
ATOM      6  C   UNL     1       3.278   3.890  20.015  0.00  0.00    +0.000 C 
ENDROOT
BRANCH   4   7
ATOM      7  C   UNL     1       5.101   4.611  17.434  0.00  0.00    +0.000 A 
ATOM      8  C   UNL     1       4.647   5.392  16.349  0.00  0.00    +0.000 A 
ATOM      9  C   UNL     1       5.253   6.614  16.002  0.00  0.00    +0.000 A 
ATOM     10  C   UNL     1       6.333   7.094  16.731  0.00  0.00    +0.000 A 
ATOM     11  C   UNL     1       6.772   6.341  17.794  0.00  0.00    +0.000 A 
ATOM     12  C   UNL     1       6.172   5.143  18.147  0.00  0.00    +0.000 A 
ATOM     13  O   UNL     1       6.768   4.630  19.259  0.00  0.00    +0.000 OA
ATOM     14  C   UNL     1       7.847   5.552  19.488  0.00  0.00    +0.000 C 
ATOM     15  O   UNL     1       7.808   6.686  18.611  0.00  0.00    +0.000 OA
ENDBRANCH   4   7
BRANCH   1  16
ATOM     16  C   UNL     1       1.168   5.034  20.005  0.00  0.00    +0.000 C 
BRANCH  16  17
ATOM     17  C   UNL     1       2.047   5.984  20.822  0.00  0.00    +0.000 C 
BRANCH  17  21
ATOM     18  C   UNL     1       0.653   9.746  19.023  0.00  0.00    +0.000 C 
ATOM     19  C   UNL     1       1.767   8.976  18.303  0.00  0.00    +0.000 C 
ATOM     20  C   UNL     1       1.871   7.527  18.784  0.00  0.00    +0.000 C 
ATOM     21  C   UNL     1       2.020   7.435  20.310  0.00  0.00    +0.000 C 
ATOM     22  C   UNL     1       0.885   8.184  21.010  0.00  0.00    +0.000 C 
ATOM     23  C   UNL     1       0.810   9.631  20.548  0.00  0.00    +0.000 C 
BRANCH  18  27
ATOM     24  C   UNL     1      -1.729  11.626  18.998  0.00  0.00    +0.000 C 
ATOM     25  C   UNL     1      -0.361  12.035  18.539  0.00  0.00    +0.000 C 
ATOM     26  O   UNL     1      -0.139  13.168  18.092  0.00  0.00    +0.000 OA
ATOM     27  N   UNL     1       0.669  11.152  18.633  0.00  0.00    +0.000 N 
ATOM     28  H   UNL     1       1.520  11.514  18.212  0.00  0.00    +0.000 HD
ENDBRANCH  18  27
ENDBRANCH  17  21
ENDBRANCH  16  17
ENDBRANCH   1  16
TORSDOF 5
ENDMDL
MODEL 7
REMARK VINA RESULT:      -8.0      1.902      2.347
REMARK  Name = 
REMARK  6 active torsions:
REMARK  status: ('A' for Active; 'I' for Inactive)
REMARK    1  A    between atoms: C_1  and  C_2
REMARK    2  A    between atoms: N_4  and  C_5
REMARK    3  A    between atoms: C_8  and  C_9
REMARK    4  A    between atoms: C_9  and  C_10
REMARK    5  A    between atoms: C_10  and  N_11
REMARK    6  A    between atoms: C_14  and  C_15
REMARK                            x       y       z     vdW  Elec       q    Type
REMARK                         _______ _______ _______ _____ _____    ______ ____
ROOT
ATOM      1  N   UNL     1       1.953   4.738  19.760  0.00  0.00    +0.000 NA
ATOM      2  C   UNL     1       2.079   4.989  18.318  0.00  0.00    +0.000 C 
ATOM      3  C   UNL     1       2.674   3.847  17.509  0.00  0.00    +0.000 C 
ATOM      4  C   UNL     1       3.989   3.338  18.099  0.00  0.00    +0.000 C 
ATOM      5  C   UNL     1       3.713   2.954  19.566  0.00  0.00    +0.000 C 
ATOM      6  C   UNL     1       3.122   4.103  20.379  0.00  0.00    +0.000 C 
ENDROOT
BRANCH   4   7
ATOM      7  C   UNL     1       5.217   4.223  17.910  0.00  0.00    +0.000 A 
ATOM      8  C   UNL     1       5.786   4.834  19.049  0.00  0.00    +0.000 A 
ATOM      9  C   UNL     1       6.944   5.630  18.972  0.00  0.00    +0.000 A 
ATOM     10  C   UNL     1       7.571   5.840  17.750  0.00  0.00    +0.000 A 
ATOM     11  C   UNL     1       7.026   5.240  16.640  0.00  0.00    +0.000 A 
ATOM     12  C   UNL     1       5.893   4.445  16.712  0.00  0.00    +0.000 A 
ATOM     13  O   UNL     1       5.596   3.938  15.484  0.00  0.00    +0.000 OA
ATOM     14  C   UNL     1       6.571   4.574  14.641  0.00  0.00    +0.000 C 
ATOM     15  O   UNL     1       7.534   5.339  15.378  0.00  0.00    +0.000 OA
ENDBRANCH   4   7
BRANCH   1  16
ATOM     16  C   UNL     1       1.670   6.013  20.454  0.00  0.00    +0.000 C 
BRANCH  16  17
ATOM     17  C   UNL     1       1.805   7.222  19.525  0.00  0.00    +0.000 C 
BRANCH  17  21
ATOM     18  C   UNL     1      -0.038  10.709  21.467  0.00  0.00    +0.000 C 
ATOM     19  C   UNL     1       0.703  10.934  20.143  0.00  0.00    +0.000 C 
ATOM     20  C   UNL     1       0.933   9.627  19.381  0.00  0.00    +0.000 C 
ATOM     21  C   UNL     1       1.636   8.570  20.247  0.00  0.00    +0.000 C 
ATOM     22  C   UNL     1       0.867   8.340  21.549  0.00  0.00    +0.000 C 
ATOM     23  C   UNL     1       0.672   9.640  22.313  0.00  0.00    +0.000 C 
BRANCH  18  27
ATOM     24  C   UNL     1      -2.458  11.714  22.997  0.00  0.00    +0.000 C 
ATOM     25  C   UNL     1      -1.185  12.497  22.878  0.00  0.00    +0.000 C 
ATOM     26  O   UNL     1      -1.067  13.622  23.380  0.00  0.00    +0.000 OA
ATOM     27  N   UNL     1      -0.124  11.955  22.222  0.00  0.00    +0.000 N 
ATOM     28  H   UNL     1       0.645  12.613  22.134  0.00  0.00    +0.000 HD
ENDBRANCH  18  27
ENDBRANCH  17  21
ENDBRANCH  16  17
ENDBRANCH   1  16
TORSDOF 5
ENDMDL
MODEL 8
REMARK VINA RESULT:      -8.0      5.352      7.126
REMARK  Name = 
REMARK  6 active torsions:
REMARK  status: ('A' for Active; 'I' for Inactive)
REMARK    1  A    between atoms: C_1  and  C_2
REMARK    2  A    between atoms: N_4  and  C_5
REMARK    3  A    between atoms: C_8  and  C_9
REMARK    4  A    between atoms: C_9  and  C_10
REMARK    5  A    between atoms: C_10  and  N_11
REMARK    6  A    between atoms: C_14  and  C_15
REMARK                            x       y       z     vdW  Elec       q    Type
REMARK                         _______ _______ _______ _____ _____    ______ ____
ROOT
ATOM      1  N   UNL     1       7.429   6.665  16.989  0.00  0.00    +0.000 NA
ATOM      2  C   UNL     1       7.324   5.326  17.585  0.00  0.00    +0.000 C 
ATOM      3  C   UNL     1       6.356   4.380  16.893  0.00  0.00    +0.000 C 
ATOM      4  C   UNL     1       4.976   5.005  16.690  0.00  0.00    +0.000 C 
ATOM      5  C   UNL     1       5.181   6.325  15.920  0.00  0.00    +0.000 C 
ATOM      6  C   UNL     1       6.148   7.276  16.619  0.00  0.00    +0.000 C 
ENDROOT
BRANCH   4   7
ATOM      7  C   UNL     1       4.092   5.140  17.926  0.00  0.00    +0.000 A 
ATOM      8  C   UNL     1       3.374   6.342  18.111  0.00  0.00    +0.000 A 
ATOM      9  C   UNL     1       2.504   6.534  19.199  0.00  0.00    +0.000 A 
ATOM     10  C   UNL     1       2.321   5.527  20.139  0.00  0.00    +0.000 A 
ATOM     11  C   UNL     1       3.010   4.352  19.957  0.00  0.00    +0.000 A 
ATOM     12  C   UNL     1       3.860   4.153  18.881  0.00  0.00    +0.000 A 
ATOM     13  O   UNL     1       4.374   2.892  18.915  0.00  0.00    +0.000 OA
ATOM     14  C   UNL     1       3.857   2.379  20.154  0.00  0.00    +0.000 C 
ATOM     15  O   UNL     1       2.924   3.269  20.782  0.00  0.00    +0.000 OA
ENDBRANCH   4   7
BRANCH   1  16
ATOM     16  C   UNL     1       8.141   7.561  17.926  0.00  0.00    +0.000 C 
BRANCH  16  17
ATOM     17  C   UNL     1       7.577   8.983  17.912  0.00  0.00    +0.000 C 
BRANCH  17  21
ATOM     18  C   UNL     1       9.834  12.537  19.182  0.00  0.00    +0.000 C 
ATOM     19  C   UNL     1       9.205  12.548  17.783  0.00  0.00    +0.000 C 
ATOM     20  C   UNL     1       8.134  11.468  17.623  0.00  0.00    +0.000 C 
ATOM     21  C   UNL     1       8.661  10.073  17.990  0.00  0.00    +0.000 C 
ATOM     22  C   UNL     1       9.258  10.075  19.399  0.00  0.00    +0.000 C 
ATOM     23  C   UNL     1      10.343  11.131  19.538  0.00  0.00    +0.000 C 
BRANCH  18  27
ATOM     24  C   UNL     1      10.206  14.687  21.290  0.00  0.00    +0.000 C 
ATOM     25  C   UNL     1      11.137  14.514  20.128  0.00  0.00    +0.000 C 
ATOM     26  O   UNL     1      12.101  15.270  19.952  0.00  0.00    +0.000 OA
ATOM     27  N   UNL     1      10.936  13.491  19.255  0.00  0.00    +0.000 N 
ATOM     28  H   UNL     1      11.576  13.532  18.467  0.00  0.00    +0.000 HD
ENDBRANCH  18  27
ENDBRANCH  17  21
ENDBRANCH  16  17
ENDBRANCH   1  16
TORSDOF 5
ENDMDL
MODEL 9
REMARK VINA RESULT:      -7.8      5.828      7.577
REMARK  Name = 
REMARK  6 active torsions:
REMARK  status: ('A' for Active; 'I' for Inactive)
REMARK    1  A    between atoms: C_1  and  C_2
REMARK    2  A    between atoms: N_4  and  C_5
REMARK    3  A    between atoms: C_8  and  C_9
REMARK    4  A    between atoms: C_9  and  C_10
REMARK    5  A    between atoms: C_10  and  N_11
REMARK    6  A    between atoms: C_14  and  C_15
REMARK                            x       y       z     vdW  Elec       q    Type
REMARK                         _______ _______ _______ _____ _____    ______ ____
ROOT
ATOM      1  N   UNL     1       7.918   7.435  17.420  0.00  0.00    +0.000 NA
ATOM      2  C   UNL     1       7.865   6.640  18.654  0.00  0.00    +0.000 C 
ATOM      3  C   UNL     1       7.682   5.144  18.457  0.00  0.00    +0.000 C 
ATOM      4  C   UNL     1       6.506   4.817  17.537  0.00  0.00    +0.000 C 
ATOM      5  C   UNL     1       6.737   5.574  16.214  0.00  0.00    +0.000 C 
ATOM      6  C   UNL     1       6.914   7.076  16.413  0.00  0.00    +0.000 C 
ENDROOT
BRANCH   4   7
ATOM      7  C   UNL     1       5.106   4.996  18.118  0.00  0.00    +0.000 A 
ATOM      8  C   UNL     1       4.323   6.079  17.661  0.00  0.00    +0.000 A 
ATOM      9  C   UNL     1       3.007   6.293  18.111  0.00  0.00    +0.000 A 
ATOM     10  C   UNL     1       2.431   5.429  19.033  0.00  0.00    +0.000 A 
ATOM     11  C   UNL     1       3.187   4.368  19.473  0.00  0.00    +0.000 A 
ATOM     12  C   UNL     1       4.478   4.146  19.025  0.00  0.00    +0.000 A 
ATOM     13  O   UNL     1       4.978   3.006  19.579  0.00  0.00    +0.000 OA
ATOM     14  C   UNL     1       3.931   2.615  20.483  0.00  0.00    +0.000 C 
ATOM     15  O   UNL     1       2.756   3.428  20.362  0.00  0.00    +0.000 OA
ENDBRANCH   4   7
BRANCH   1  16
ATOM     16  C   UNL     1       7.777   8.868  17.757  0.00  0.00    +0.000 C 
BRANCH  16  17
ATOM     17  C   UNL     1       8.774   9.313  18.829  0.00  0.00    +0.000 C 
BRANCH  17  21
ATOM     18  C   UNL     1      10.361  13.414  18.800  0.00  0.00    +0.000 C 
ATOM     19  C   UNL     1       9.505  12.967  17.608  0.00  0.00    +0.000 C 
ATOM     20  C   UNL     1       8.694  11.708  17.920  0.00  0.00    +0.000 C 
ATOM     21  C   UNL     1       9.580  10.564  18.435  0.00  0.00    +0.000 C 
ATOM     22  C   UNL     1      10.405  11.019  19.640  0.00  0.00    +0.000 C 
ATOM     23  C   UNL     1      11.230  12.253  19.310  0.00  0.00    +0.000 C 
BRANCH  18  27
ATOM     24  C   UNL     1      11.073  15.787  20.551  0.00  0.00    +0.000 C 
ATOM     25  C   UNL     1      11.527  15.657  19.128  0.00  0.00    +0.000 C 
ATOM     26  O   UNL     1      12.200  16.540  18.579  0.00  0.00    +0.000 OA
ATOM     27  N   UNL     1      11.214  14.537  18.424  0.00  0.00    +0.000 N 
ATOM     28  H   UNL     1      11.500  14.606  17.451  0.00  0.00    +0.000 HD
ENDBRANCH  18  27
ENDBRANCH  17  21
ENDBRANCH  16  17
ENDBRANCH   1  16
TORSDOF 5
ENDMDL
