MODEL 1
REMARK VINA RESULT:      -8.3      0.000      0.000
REMARK  Name = 
REMARK  7 active torsions:
REMARK  status: ('A' for Active; 'I' for Inactive)
REMARK    1  A    between atoms: C_1  and  C_2
REMARK    2  A    between atoms: C_2  and  C_3
REMARK    3  A    between atoms: C_3  and  N_4
REMARK    4  A    between atoms: C_3  and  C_12
REMARK    5  A    between atoms: C_5  and  C_7
REMARK    6  A    between atoms: C_15  and  C_16
REMARK    7  A    between atoms: C_25  and  C_26
REMARK                            x       y       z     vdW  Elec       q    Type
REMARK                         _______ _______ _______ _____ _____    ______ ____
ROOT
ATOM      1  C   UNL     1       0.517  10.961  19.550  0.00  0.00    +0.000 C 
ENDROOT
BRANCH   1   2
ATOM      2  C   UNL     1       1.209   9.632  19.275  0.00  0.00    +0.000 A 
ATOM      3  C   UNL     1       1.379   8.712  20.317  0.00  0.00    +0.000 A 
ATOM      4  C   UNL     1       1.991   7.469  20.094  0.00  0.00    +0.000 A 
ATOM      5  C   UNL     1       2.436   7.077  18.819  0.00  0.00    +0.000 A 
ATOM      6  C   UNL     1       2.258   8.006  17.780  0.00  0.00    +0.000 A 
ATOM      7  C   UNL     1       1.668   9.262  18.003  0.00  0.00    +0.000 A 
BRANCH   5   8
ATOM      8  C   UNL     1       3.068   5.752  18.595  0.00  0.00    +0.000 A 
ATOM      9  C   UNL     1       2.408   4.733  17.879  0.00  0.00    +0.000 A 
ATOM     10  C   UNL     1       2.975   3.466  17.707  0.00  0.00    +0.000 A 
ATOM     11  C   UNL     1       4.233   3.189  18.229  0.00  0.00    +0.000 A 
ATOM     12  C   UNL     1       4.923   4.181  18.919  0.00  0.00    +0.000 A 
ATOM     13  C   UNL     1       4.345   5.444  19.101  0.00  0.00    +0.000 A 
ENDBRANCH   5   8
ENDBRANCH   1   2
BRANCH   1  15
ATOM     14  C   UNL     1       2.171  12.102  17.996  0.00  0.00    +0.000 C 
ATOM     15  C   UNL     1       1.361  12.238  19.278  0.00  0.00    +0.000 C 
ATOM     16  C   UNL     1       2.067  13.003  20.384  0.00  0.00    +0.000 C 
ATOM     17  C   UNL     1       0.858  13.633  19.735  0.00  0.00    +0.000 C 
BRANCH  17  18
ATOM     18  C   UNL     1       0.931  14.863  18.836  0.00  0.00    +0.000 C 
ATOM     19  C   UNL     1       2.167  15.739  19.124  0.00  0.00    +0.000 C 
ATOM     20  C   UNL     1       2.178  17.012  18.266  0.00  0.00    +0.000 C 
ATOM     21  C   UNL     1       0.903  17.827  18.450  0.00  0.00    +0.000 C 
ATOM     22  C   UNL     1      -0.330  16.980  18.163  0.00  0.00    +0.000 C 
ATOM     23  C   UNL     1      -0.350  15.705  19.006  0.00  0.00    +0.000 C 
ENDBRANCH  17  18
ENDBRANCH   1  15
BRANCH   1  24
ATOM     24  N   UNL     1      -0.733  11.054  18.807  0.00  0.00    +0.000 N 
ATOM     25  C   UNL     1      -1.925  11.506  19.340  0.00  0.00    +0.000 C 
ATOM     26  O   UNL     1      -2.025  11.850  20.511  0.00  0.00    +0.000 OA
ATOM     27  H   UNL     1      -0.717  10.819  17.826  0.00  0.00    +0.000 HD
BRANCH  25  28
ATOM     28  C   UNL     1      -3.044  11.573  18.396  0.00  0.00    +0.000 A 
ATOM     29  C   UNL     1      -3.019  11.272  17.044  0.00  0.00    +0.000 A 
ATOM     30  C   UNL     1      -4.302  11.397  16.424  0.00  0.00    +0.000 A 
ATOM     31  C   UNL     1      -5.267  11.796  17.321  0.00  0.00    +0.000 A 
ATOM     32  S   UNL     1      -4.627  12.031  18.887  0.00  0.00    +0.000 S 
ENDBRANCH  25  28
ENDBRANCH   1  24
TORSDOF 6
ENDMDL
MODEL 2
REMARK VINA RESULT:      -8.3      7.525     10.855
REMARK  Name = 
REMARK  7 active torsions:
REMARK  status: ('A' for Active; 'I' for Inactive)
REMARK    1  A    between atoms: C_1  and  C_2
REMARK    2  A    between atoms: C_2  and  C_3
REMARK    3  A    between atoms: C_3  and  N_4
REMARK    4  A    between atoms: C_3  and  C_12
REMARK    5  A    between atoms: C_5  and  C_7
REMARK    6  A    between atoms: C_15  and  C_16
REMARK    7  A    between atoms: C_25  and  C_26
REMARK                            x       y       z     vdW  Elec       q    Type
REMARK                         _______ _______ _______ _____ _____    ______ ____
ROOT
ATOM      1  C   UNL     1       6.326   6.062  17.536  0.00  0.00    +0.000 C 
ENDROOT
BRANCH   1   2
ATOM      2  C   UNL     1       7.147   7.299  17.876  0.00  0.00    +0.000 A 
ATOM      3  C   UNL     1       8.175   7.208  18.823  0.00  0.00    +0.000 A 
ATOM      4  C   UNL     1       8.967   8.321  19.144  0.00  0.00    +0.000 A 
ATOM      5  C   UNL     1       8.787   9.566  18.516  0.00  0.00    +0.000 A 
ATOM      6  C   UNL     1       7.756   9.647  17.566  0.00  0.00    +0.000 A 
ATOM      7  C   UNL     1       6.944   8.542  17.260  0.00  0.00    +0.000 A 
BRANCH   5   8
ATOM      8  C   UNL     1       9.643  10.733  18.855  0.00  0.00    +0.000 A 
ATOM      9  C   UNL     1       9.870  11.115  20.192  0.00  0.00    +0.000 A 
ATOM     10  C   UNL     1      10.633  12.242  20.518  0.00  0.00    +0.000 A 
ATOM     11  C   UNL     1      11.211  13.006  19.511  0.00  0.00    +0.000 A 
ATOM     12  C   UNL     1      11.029  12.640  18.181  0.00  0.00    +0.000 A 
ATOM     13  C   UNL     1      10.252  11.520  17.859  0.00  0.00    +0.000 A 
ENDBRANCH   5   8
ENDBRANCH   1   2
BRANCH   1  15
ATOM     14  C   UNL     1       3.949   6.618  16.833  0.00  0.00    +0.000 C 
ATOM     15  C   UNL     1       4.831   6.099  17.960  0.00  0.00    +0.000 C 
ATOM     16  C   UNL     1       4.385   6.526  19.349  0.00  0.00    +0.000 C 
ATOM     17  C   UNL     1       4.269   5.067  18.974  0.00  0.00    +0.000 C 
BRANCH  17  18
ATOM     18  C   UNL     1       2.936   4.358  18.764  0.00  0.00    +0.000 C 
ATOM     19  C   UNL     1       2.077   4.309  20.044  0.00  0.00    +0.000 C 
ATOM     20  C   UNL     1       0.778   3.520  19.831  0.00  0.00    +0.000 C 
ATOM     21  C   UNL     1       1.052   2.107  19.330  0.00  0.00    +0.000 C 
ATOM     22  C   UNL     1       1.895   2.134  18.061  0.00  0.00    +0.000 C 
ATOM     23  C   UNL     1       3.189   2.923  18.257  0.00  0.00    +0.000 C 
ENDBRANCH  17  18
ENDBRANCH   1  15
BRANCH   1  24
ATOM     24  N   UNL     1       6.405   5.769  16.110  0.00  0.00    +0.000 N 
ATOM     25  C   UNL     1       7.212   4.792  15.558  0.00  0.00    +0.000 C 
ATOM     26  O   UNL     1       7.955   4.100  16.243  0.00  0.00    +0.000 OA
ATOM     27  H   UNL     1       5.794   6.278  15.489  0.00  0.00    +0.000 HD
BRANCH  25  28
ATOM     28  C   UNL     1       7.090   4.628  14.108  0.00  0.00    +0.000 A 
ATOM     29  C   UNL     1       7.856   5.240  13.128  0.00  0.00    +0.000 A 
ATOM     30  C   UNL     1       7.503   4.820  11.807  0.00  0.00    +0.000 A 
ATOM     31  C   UNL     1       6.474   3.907  11.818  0.00  0.00    +0.000 A 
ATOM     32  S   UNL     1       5.931   3.572  13.402  0.00  0.00    +0.000 S 
ENDBRANCH  25  28
ENDBRANCH   1  24
TORSDOF 6
ENDMDL
MODEL 3
REMARK VINA RESULT:      -8.3      7.516     10.813
REMARK  Name = 
REMARK  7 active torsions:
REMARK  status: ('A' for Active; 'I' for Inactive)
REMARK    1  A    between atoms: C_1  and  C_2
REMARK    2  A    between atoms: C_2  and  C_3
REMARK    3  A    between atoms: C_3  and  N_4
REMARK    4  A    between atoms: C_3  and  C_12
REMARK    5  A    between atoms: C_5  and  C_7
REMARK    6  A    between atoms: C_15  and  C_16
REMARK    7  A    between atoms: C_25  and  C_26
REMARK                            x       y       z     vdW  Elec       q    Type
REMARK                         _______ _______ _______ _____ _____    ______ ____
ROOT
ATOM      1  C   UNL     1       6.250   5.975  17.571  0.00  0.00    +0.000 C 
ENDROOT
BRANCH   1   2
ATOM      2  C   UNL     1       7.114   7.195  17.862  0.00  0.00    +0.000 A 
ATOM      3  C   UNL     1       6.829   8.412  17.227  0.00  0.00    +0.000 A 
ATOM      4  C   UNL     1       7.588   9.562  17.490  0.00  0.00    +0.000 A 
ATOM      5  C   UNL     1       8.646   9.558  18.416  0.00  0.00    +0.000 A 
ATOM      6  C   UNL     1       8.922   8.335  19.049  0.00  0.00    +0.000 A 
ATOM      7  C   UNL     1       8.181   7.175  18.771  0.00  0.00    +0.000 A 
BRANCH   5   8
ATOM      8  C   UNL     1       9.433  10.788  18.695  0.00  0.00    +0.000 A 
ATOM      9  C   UNL     1       9.396  11.897  17.827  0.00  0.00    +0.000 A 
ATOM     10  C   UNL     1      10.172  13.039  18.056  0.00  0.00    +0.000 A 
ATOM     11  C   UNL     1      10.992  13.111  19.176  0.00  0.00    +0.000 A 
ATOM     12  C   UNL     1      11.031  12.043  20.067  0.00  0.00    +0.000 A 
ATOM     13  C   UNL     1      10.264  10.896  19.826  0.00  0.00    +0.000 A 
ENDBRANCH   5   8
ENDBRANCH   1   2
BRANCH   1  15
ATOM     14  C   UNL     1       3.882   6.535  16.843  0.00  0.00    +0.000 C 
ATOM     15  C   UNL     1       4.760   6.077  17.999  0.00  0.00    +0.000 C 
ATOM     16  C   UNL     1       4.334   6.612  19.356  0.00  0.00    +0.000 C 
ATOM     17  C   UNL     1       4.181   5.134  19.088  0.00  0.00    +0.000 C 
BRANCH  17  18
ATOM     18  C   UNL     1       2.831   4.443  18.936  0.00  0.00    +0.000 C 
ATOM     19  C   UNL     1       2.001   4.460  20.236  0.00  0.00    +0.000 C 
ATOM     20  C   UNL     1       0.683   3.688  20.084  0.00  0.00    +0.000 C 
ATOM     21  C   UNL     1       0.920   2.252  19.632  0.00  0.00    +0.000 C 
ATOM     22  C   UNL     1       1.732   2.213  18.344  0.00  0.00    +0.000 C 
ATOM     23  C   UNL     1       3.045   2.984  18.479  0.00  0.00    +0.000 C 
ENDBRANCH  17  18
ENDBRANCH   1  15
BRANCH   1  24
ATOM     24  N   UNL     1       6.312   5.627  16.157  0.00  0.00    +0.000 N 
ATOM     25  C   UNL     1       7.161   4.675  15.624  0.00  0.00    +0.000 C 
ATOM     26  O   UNL     1       7.958   4.055  16.317  0.00  0.00    +0.000 OA
ATOM     27  H   UNL     1       5.658   6.074  15.532  0.00  0.00    +0.000 HD
BRANCH  25  28
ATOM     28  C   UNL     1       7.013   4.443  14.185  0.00  0.00    +0.000 A 
ATOM     29  C   UNL     1       6.092   3.618  13.560  0.00  0.00    +0.000 A 
ATOM     30  C   UNL     1       6.190   3.660  12.133  0.00  0.00    +0.000 A 
ATOM     31  C   UNL     1       7.189   4.509  11.713  0.00  0.00    +0.000 A 
ATOM     32  S   UNL     1       8.006   5.234  13.026  0.00  0.00    +0.000 S 
ENDBRANCH  25  28
ENDBRANCH   1  24
TORSDOF 6
ENDMDL
MODEL 4
REMARK VINA RESULT:      -8.2      0.590      1.142
REMARK  Name = 
REMARK  7 active torsions:
REMARK  status: ('A' for Active; 'I' for Inactive)
REMARK    1  A    between atoms: C_1  and  C_2
REMARK    2  A    between atoms: C_2  and  C_3
REMARK    3  A    between atoms: C_3  and  N_4
REMARK    4  A    between atoms: C_3  and  C_12
REMARK    5  A    between atoms: C_5  and  C_7
REMARK    6  A    between atoms: C_15  and  C_16
REMARK    7  A    between atoms: C_25  and  C_26
REMARK                            x       y       z     vdW  Elec       q    Type
REMARK                         _______ _______ _______ _____ _____    ______ ____
ROOT
ATOM      1  C   UNL     1       0.510  10.969  19.590  0.00  0.00    +0.000 C 
ENDROOT
BRANCH   1   2
ATOM      2  C   UNL     1       1.209   9.638  19.347  0.00  0.00    +0.000 A 
ATOM      3  C   UNL     1       1.353   8.729  20.404  0.00  0.00    +0.000 A 
ATOM      4  C   UNL     1       1.969   7.484  20.211  0.00  0.00    +0.000 A 
ATOM      5  C   UNL     1       2.446   7.078  18.951  0.00  0.00    +0.000 A 
ATOM      6  C   UNL     1       2.294   7.994  17.898  0.00  0.00    +0.000 A 
ATOM      7  C   UNL     1       1.699   9.252  18.092  0.00  0.00    +0.000 A 
BRANCH   5   8
ATOM      8  C   UNL     1       3.084   5.750  18.758  0.00  0.00    +0.000 A 
ATOM      9  C   UNL     1       4.363   5.466  19.276  0.00  0.00    +0.000 A 
ATOM     10  C   UNL     1       4.992   4.235  19.056  0.00  0.00    +0.000 A 
ATOM     11  C   UNL     1       4.345   3.244  18.327  0.00  0.00    +0.000 A 
ATOM     12  C   UNL     1       3.070   3.483  17.824  0.00  0.00    +0.000 A 
ATOM     13  C   UNL     1       2.451   4.721  18.035  0.00  0.00    +0.000 A 
ENDBRANCH   5   8
ENDBRANCH   1   2
BRANCH   1  15
ATOM     14  C   UNL     1       2.128  12.098  17.990  0.00  0.00    +0.000 C 
ATOM     15  C   UNL     1       1.348  12.243  19.289  0.00  0.00    +0.000 C 
ATOM     16  C   UNL     1       2.080  13.015  20.374  0.00  0.00    +0.000 C 
ATOM     17  C   UNL     1       0.857  13.642  19.748  0.00  0.00    +0.000 C 
BRANCH  17  18
ATOM     18  C   UNL     1       0.911  14.865  18.840  0.00  0.00    +0.000 C 
ATOM     19  C   UNL     1       2.151  15.746  19.097  0.00  0.00    +0.000 C 
ATOM     20  C   UNL     1       2.143  17.012  18.231  0.00  0.00    +0.000 C 
ATOM     21  C   UNL     1       0.870  17.826  18.433  0.00  0.00    +0.000 C 
ATOM     22  C   UNL     1      -0.367  16.975  18.176  0.00  0.00    +0.000 C 
ATOM     23  C   UNL     1      -0.368  15.706  19.029  0.00  0.00    +0.000 C 
ENDBRANCH  17  18
ENDBRANCH   1  15
BRANCH   1  24
ATOM     24  N   UNL     1      -0.739  11.038  18.842  0.00  0.00    +0.000 N 
ATOM     25  C   UNL     1      -1.930  11.516  19.355  0.00  0.00    +0.000 C 
ATOM     26  O   UNL     1      -2.030  11.904  20.513  0.00  0.00    +0.000 OA
ATOM     27  H   UNL     1      -0.723  10.767  17.870  0.00  0.00    +0.000 HD
BRANCH  25  28
ATOM     28  C   UNL     1      -3.048  11.551  18.409  0.00  0.00    +0.000 A 
ATOM     29  C   UNL     1      -4.351  11.947  18.666  0.00  0.00    +0.000 A 
ATOM     30  C   UNL     1      -5.182  11.906  17.502  0.00  0.00    +0.000 A 
ATOM     31  C   UNL     1      -4.490  11.472  16.394  0.00  0.00    +0.000 A 
ATOM     32  S   UNL     1      -2.862  11.106  16.759  0.00  0.00    +0.000 S 
ENDBRANCH  25  28
ENDBRANCH   1  24
TORSDOF 6
ENDMDL
MODEL 5
REMARK VINA RESULT:      -8.1      2.951      5.359
REMARK  Name = 
REMARK  7 active torsions:
REMARK  status: ('A' for Active; 'I' for Inactive)
REMARK    1  A    between atoms: C_1  and  C_2
REMARK    2  A    between atoms: C_2  and  C_3
REMARK    3  A    between atoms: C_3  and  N_4
REMARK    4  A    between atoms: C_3  and  C_12
REMARK    5  A    between atoms: C_5  and  C_7
REMARK    6  A    between atoms: C_15  and  C_16
REMARK    7  A    between atoms: C_25  and  C_26
REMARK                            x       y       z     vdW  Elec       q    Type
REMARK                         _______ _______ _______ _____ _____    ______ ____
ROOT
ATOM      1  C   UNL     1       0.921  11.189  18.744  0.00  0.00    +0.000 C 
ENDROOT
BRANCH   1   2
ATOM      2  C   UNL     1       1.315   9.753  19.061  0.00  0.00    +0.000 A 
ATOM      3  C   UNL     1       1.926   8.969  18.073  0.00  0.00    +0.000 A 
ATOM      4  C   UNL     1       2.324   7.650  18.338  0.00  0.00    +0.000 A 
ATOM      5  C   UNL     1       2.157   7.063  19.605  0.00  0.00    +0.000 A 
ATOM      6  C   UNL     1       1.547   7.858  20.589  0.00  0.00    +0.000 A 
ATOM      7  C   UNL     1       1.124   9.171  20.322  0.00  0.00    +0.000 A 
BRANCH   5   8
ATOM      8  C   UNL     1       2.597   5.670  19.875  0.00  0.00    +0.000 A 
ATOM      9  C   UNL     1       3.715   5.112  19.224  0.00  0.00    +0.000 A 
ATOM     10  C   UNL     1       4.106   3.785  19.435  0.00  0.00    +0.000 A 
ATOM     11  C   UNL     1       3.399   2.984  20.324  0.00  0.00    +0.000 A 
ATOM     12  C   UNL     1       2.306   3.512  21.003  0.00  0.00    +0.000 A 
ATOM     13  C   UNL     1       1.909   4.836  20.778  0.00  0.00    +0.000 A 
ENDBRANCH   5   8
ENDBRANCH   1   2
BRANCH   1  15
ATOM     14  C   UNL     1      -1.487  10.417  18.504  0.00  0.00    +0.000 C 
ATOM     15  C   UNL     1      -0.576  11.548  18.960  0.00  0.00    +0.000 C 
ATOM     16  C   UNL     1      -1.130  12.939  18.700  0.00  0.00    +0.000 C 
ATOM     17  C   UNL     1      -1.010  12.471  20.130  0.00  0.00    +0.000 C 
BRANCH  17  18
ATOM     18  C   UNL     1      -2.210  12.158  21.016  0.00  0.00    +0.000 C 
ATOM     19  C   UNL     1      -3.454  12.995  20.654  0.00  0.00    +0.000 C 
ATOM     20  C   UNL     1      -4.624  12.724  21.608  0.00  0.00    +0.000 C 
ATOM     21  C   UNL     1      -4.234  12.966  23.062  0.00  0.00    +0.000 C 
ATOM     22  C   UNL     1      -3.011  12.141  23.442  0.00  0.00    +0.000 C 
ATOM     23  C   UNL     1      -1.839  12.397  22.494  0.00  0.00    +0.000 C 
ENDBRANCH  17  18
ENDBRANCH   1  15
BRANCH   1  24
ATOM     24  N   UNL     1       1.744  12.127  19.497  0.00  0.00    +0.000 N 
ATOM     25  C   UNL     1       2.439  13.181  18.933  0.00  0.00    +0.000 C 
ATOM     26  O   UNL     1       2.430  13.395  17.727  0.00  0.00    +0.000 OA
ATOM     27  H   UNL     1       1.770  12.032  20.501  0.00  0.00    +0.000 HD
BRANCH  25  28
ATOM     28  C   UNL     1       3.155  14.035  19.884  0.00  0.00    +0.000 A 
ATOM     29  C   UNL     1       2.927  14.147  21.246  0.00  0.00    +0.000 A 
ATOM     30  C   UNL     1       3.842  15.038  21.889  0.00  0.00    +0.000 A 
ATOM     31  C   UNL     1       4.736  15.585  20.998  0.00  0.00    +0.000 A 
ATOM     32  S   UNL     1       4.464  15.040  19.402  0.00  0.00    +0.000 S 
ENDBRANCH  25  28
ENDBRANCH   1  24
TORSDOF 6
ENDMDL
MODEL 6
REMARK VINA RESULT:      -8.1      7.676     11.005
REMARK  Name = 
REMARK  7 active torsions:
REMARK  status: ('A' for Active; 'I' for Inactive)
REMARK    1  A    between atoms: C_1  and  C_2
REMARK    2  A    between atoms: C_2  and  C_3
REMARK    3  A    between atoms: C_3  and  N_4
REMARK    4  A    between atoms: C_3  and  C_12
REMARK    5  A    between atoms: C_5  and  C_7
REMARK    6  A    between atoms: C_15  and  C_16
REMARK    7  A    between atoms: C_25  and  C_26
REMARK                            x       y       z     vdW  Elec       q    Type
REMARK                         _______ _______ _______ _____ _____    ______ ____
ROOT
ATOM      1  C   UNL     1       6.811   6.033  17.462  0.00  0.00    +0.000 C 
ENDROOT
BRANCH   1   2
ATOM      2  C   UNL     1       7.552   7.295  17.882  0.00  0.00    +0.000 A 
ATOM      3  C   UNL     1       7.347   8.486  17.173  0.00  0.00    +0.000 A 
ATOM      4  C   UNL     1       7.994   9.673  17.547  0.00  0.00    +0.000 A 
ATOM      5  C   UNL     1       8.853   9.733  18.659  0.00  0.00    +0.000 A 
ATOM      6  C   UNL     1       9.050   8.535  19.365  0.00  0.00    +0.000 A 
ATOM      7  C   UNL     1       8.423   7.338  18.980  0.00  0.00    +0.000 A 
BRANCH   5   8
ATOM      8  C   UNL     1       9.521  11.001  19.052  0.00  0.00    +0.000 A 
ATOM      9  C   UNL     1       9.721  11.338  20.406  0.00  0.00    +0.000 A 
ATOM     10  C   UNL     1      10.303  12.552  20.786  0.00  0.00    +0.000 A 
ATOM     11  C   UNL     1      10.722  13.457  19.817  0.00  0.00    +0.000 A 
ATOM     12  C   UNL     1      10.563  13.143  18.470  0.00  0.00    +0.000 A 
ATOM     13  C   UNL     1       9.966  11.933  18.095  0.00  0.00    +0.000 A 
ENDBRANCH   5   8
ENDBRANCH   1   2
BRANCH   1  15
ATOM     14  C   UNL     1       4.452   6.690  16.787  0.00  0.00    +0.000 C 
ATOM     15  C   UNL     1       5.302   5.975  17.829  0.00  0.00    +0.000 C 
ATOM     16  C   UNL     1       4.800   6.128  19.255  0.00  0.00    +0.000 C 
ATOM     17  C   UNL     1       4.720   4.765  18.609  0.00  0.00    +0.000 C 
BRANCH  17  18
ATOM     18  C   UNL     1       3.407   4.096  18.218  0.00  0.00    +0.000 C 
ATOM     19  C   UNL     1       2.259   4.418  19.195  0.00  0.00    +0.000 C 
ATOM     20  C   UNL     1       0.970   3.670  18.830  0.00  0.00    +0.000 C 
ATOM     21  C   UNL     1       1.192   2.164  18.760  0.00  0.00    +0.000 C 
ATOM     22  C   UNL     1       2.319   1.824  17.793  0.00  0.00    +0.000 C 
ATOM     23  C   UNL     1       3.608   2.569  18.142  0.00  0.00    +0.000 C 
ENDBRANCH  17  18
ENDBRANCH   1  15
BRANCH   1  24
ATOM     24  N   UNL     1       6.958   5.802  16.031  0.00  0.00    +0.000 N 
ATOM     25  C   UNL     1       6.821   4.569  15.421  0.00  0.00    +0.000 C 
ATOM     26  O   UNL     1       6.582   3.551  16.060  0.00  0.00    +0.000 OA
ATOM     27  H   UNL     1       7.121   6.602  15.438  0.00  0.00    +0.000 HD
BRANCH  25  28
ATOM     28  C   UNL     1       6.951   4.576  13.962  0.00  0.00    +0.000 A 
ATOM     29  C   UNL     1       7.778   5.385  13.200  0.00  0.00    +0.000 A 
ATOM     30  C   UNL     1       7.695   5.099  11.800  0.00  0.00    +0.000 A 
ATOM     31  C   UNL     1       6.801   4.087  11.537  0.00  0.00    +0.000 A 
ATOM     32  S   UNL     1       6.061   3.499  12.960  0.00  0.00    +0.000 S 
ENDBRANCH  25  28
ENDBRANCH   1  24
TORSDOF 6
ENDMDL
MODEL 7
REMARK VINA RESULT:      -8.1      0.712      1.278
REMARK  Name = 
REMARK  7 active torsions:
REMARK  status: ('A' for Active; 'I' for Inactive)
REMARK    1  A    between atoms: C_1  and  C_2
REMARK    2  A    between atoms: C_2  and  C_3
REMARK    3  A    between atoms: C_3  and  N_4
REMARK    4  A    between atoms: C_3  and  C_12
REMARK    5  A    between atoms: C_5  and  C_7
REMARK    6  A    between atoms: C_15  and  C_16
REMARK    7  A    between atoms: C_25  and  C_26
REMARK                            x       y       z     vdW  Elec       q    Type
REMARK                         _______ _______ _______ _____ _____    ______ ____
ROOT
ATOM      1  C   UNL     1       0.337  10.968  19.802  0.00  0.00    +0.000 C 
ENDROOT
BRANCH   1   2
ATOM      2  C   UNL     1       0.999   9.597  19.777  0.00  0.00    +0.000 A 
ATOM      3  C   UNL     1       1.591   9.135  18.594  0.00  0.00    +0.000 A 
ATOM      4  C   UNL     1       2.231   7.888  18.542  0.00  0.00    +0.000 A 
ATOM      5  C   UNL     1       2.332   7.057  19.672  0.00  0.00    +0.000 A 
ATOM      6  C   UNL     1       1.738   7.529  20.853  0.00  0.00    +0.000 A 
ATOM      7  C   UNL     1       1.075   8.767  20.904  0.00  0.00    +0.000 A 
BRANCH   5   8
ATOM      8  C   UNL     1       3.025   5.744  19.605  0.00  0.00    +0.000 A 
ATOM      9  C   UNL     1       4.226   5.582  18.887  0.00  0.00    +0.000 A 
ATOM     10  C   UNL     1       4.858   4.338  18.777  0.00  0.00    +0.000 A 
ATOM     11  C   UNL     1       4.315   3.223  19.405  0.00  0.00    +0.000 A 
ATOM     12  C   UNL     1       3.144   3.355  20.144  0.00  0.00    +0.000 A 
ATOM     13  C   UNL     1       2.507   4.599  20.239  0.00  0.00    +0.000 A 
ENDBRANCH   5   8
ENDBRANCH   1   2
BRANCH   1  15
ATOM     14  C   UNL     1       1.997  11.933  18.138  0.00  0.00    +0.000 C 
ATOM     15  C   UNL     1       1.252  12.173  19.444  0.00  0.00    +0.000 C 
ATOM     16  C   UNL     1       2.054  12.929  20.490  0.00  0.00    +0.000 C 
ATOM     17  C   UNL     1       0.864  13.616  19.863  0.00  0.00    +0.000 C 
BRANCH  17  18
ATOM     18  C   UNL     1       0.983  14.802  18.913  0.00  0.00    +0.000 C 
ATOM     19  C   UNL     1       2.236  15.659  19.181  0.00  0.00    +0.000 C 
ATOM     20  C   UNL     1       2.293  16.892  18.269  0.00  0.00    +0.000 C 
ATOM     21  C   UNL     1       1.037  17.746  18.397  0.00  0.00    +0.000 C 
ATOM     22  C   UNL     1      -0.213  16.919  18.129  0.00  0.00    +0.000 C 
ATOM     23  C   UNL     1      -0.279  15.683  19.026  0.00  0.00    +0.000 C 
ENDBRANCH  17  18
ENDBRANCH   1  15
BRANCH   1  24
ATOM     24  N   UNL     1      -0.833  10.991  18.933  0.00  0.00    +0.000 N 
ATOM     25  C   UNL     1      -2.046  11.559  19.273  0.00  0.00    +0.000 C 
ATOM     26  O   UNL     1      -2.237  12.077  20.366  0.00  0.00    +0.000 OA
ATOM     27  H   UNL     1      -0.737  10.611  18.003  0.00  0.00    +0.000 HD
BRANCH  25  28
ATOM     28  C   UNL     1      -3.068  11.521  18.224  0.00  0.00    +0.000 A 
ATOM     29  C   UNL     1      -2.894  11.163  16.897  0.00  0.00    +0.000 A 
ATOM     30  C   UNL     1      -4.115  11.188  16.152  0.00  0.00    +0.000 A 
ATOM     31  C   UNL     1      -5.182  11.572  16.930  0.00  0.00    +0.000 A 
ATOM     32  S   UNL     1      -4.713  11.912  18.537  0.00  0.00    +0.000 S 
ENDBRANCH  25  28
ENDBRANCH   1  24
TORSDOF 6
ENDMDL
MODEL 8
REMARK VINA RESULT:      -8.0      0.675      1.191
REMARK  Name = 
REMARK  7 active torsions:
REMARK  status: ('A' for Active; 'I' for Inactive)
REMARK    1  A    between atoms: C_1  and  C_2
REMARK    2  A    between atoms: C_2  and  C_3
REMARK    3  A    between atoms: C_3  and  N_4
REMARK    4  A    between atoms: C_3  and  C_12
REMARK    5  A    between atoms: C_5  and  C_7
REMARK    6  A    between atoms: C_15  and  C_16
REMARK    7  A    between atoms: C_25  and  C_26
REMARK                            x       y       z     vdW  Elec       q    Type
REMARK                         _______ _______ _______ _____ _____    ______ ____
ROOT
ATOM      1  C   UNL     1       0.472  10.924  19.614  0.00  0.00    +0.000 C 
ENDROOT
BRANCH   1   2
ATOM      2  C   UNL     1       1.127   9.593  19.268  0.00  0.00    +0.000 A 
ATOM      3  C   UNL     1       1.428   9.296  17.933  0.00  0.00    +0.000 A 
ATOM      4  C   UNL     1       2.054   8.091  17.581  0.00  0.00    +0.000 A 
ATOM      5  C   UNL     1       2.431   7.140  18.546  0.00  0.00    +0.000 A 
ATOM      6  C   UNL     1       2.128   7.448  19.882  0.00  0.00    +0.000 A 
ATOM      7  C   UNL     1       1.480   8.643  20.237  0.00  0.00    +0.000 A 
BRANCH   5   8
ATOM      8  C   UNL     1       3.107   5.874  18.160  0.00  0.00    +0.000 A 
ATOM      9  C   UNL     1       2.371   4.724  17.814  0.00  0.00    +0.000 A 
ATOM     10  C   UNL     1       2.998   3.514  17.499  0.00  0.00    +0.000 A 
ATOM     11  C   UNL     1       4.386   3.428  17.499  0.00  0.00    +0.000 A 
ATOM     12  C   UNL     1       5.143   4.553  17.811  0.00  0.00    +0.000 A 
ATOM     13  C   UNL     1       4.510   5.758  18.140  0.00  0.00    +0.000 A 
ENDBRANCH   5   8
ENDBRANCH   1   2
BRANCH   1  15
ATOM     14  C   UNL     1       2.136  12.041  18.053  0.00  0.00    +0.000 C 
ATOM     15  C   UNL     1       1.319  12.195  19.329  0.00  0.00    +0.000 C 
ATOM     16  C   UNL     1       2.022  12.974  20.429  0.00  0.00    +0.000 C 
ATOM     17  C   UNL     1       0.818  13.598  19.765  0.00  0.00    +0.000 C 
BRANCH  17  18
ATOM     18  C   UNL     1       0.898  14.815  18.851  0.00  0.00    +0.000 C 
ATOM     19  C   UNL     1       2.175  15.649  19.079  0.00  0.00    +0.000 C 
ATOM     20  C   UNL     1       2.197  16.912  18.209  0.00  0.00    +0.000 C 
ATOM     21  C   UNL     1       0.961  17.774  18.434  0.00  0.00    +0.000 C 
ATOM     22  C   UNL     1      -0.313  16.970  18.207  0.00  0.00    +0.000 C 
ATOM     23  C   UNL     1      -0.344  15.705  19.064  0.00  0.00    +0.000 C 
ENDBRANCH  17  18
ENDBRANCH   1  15
BRANCH   1  24
ATOM     24  N   UNL     1      -0.814  11.054  18.941  0.00  0.00    +0.000 N 
ATOM     25  C   UNL     1      -1.960  11.547  19.536  0.00  0.00    +0.000 C 
ATOM     26  O   UNL     1      -1.983  11.898  20.710  0.00  0.00    +0.000 OA
ATOM     27  H   UNL     1      -0.861  10.815  17.961  0.00  0.00    +0.000 HD
BRANCH  25  28
ATOM     28  C   UNL     1      -3.127  11.646  18.657  0.00  0.00    +0.000 A 
ATOM     29  C   UNL     1      -4.393  12.098  18.993  0.00  0.00    +0.000 A 
ATOM     30  C   UNL     1      -5.291  12.110  17.879  0.00  0.00    +0.000 A 
ATOM     31  C   UNL     1      -4.685  11.660  16.729  0.00  0.00    +0.000 A 
ATOM     32  S   UNL     1      -3.058  11.214  16.994  0.00  0.00    +0.000 S 
ENDBRANCH  25  28
ENDBRANCH   1  24
TORSDOF 6
ENDMDL
MODEL 9
REMARK VINA RESULT:      -7.9      2.869      5.273
REMARK  Name = 
REMARK  7 active torsions:
REMARK  status: ('A' for Active; 'I' for Inactive)
REMARK    1  A    between atoms: C_1  and  C_2
REMARK    2  A    between atoms: C_2  and  C_3
REMARK    3  A    between atoms: C_3  and  N_4
REMARK    4  A    between atoms: C_3  and  C_12
REMARK    5  A    between atoms: C_5  and  C_7
REMARK    6  A    between atoms: C_15  and  C_16
REMARK    7  A    between atoms: C_25  and  C_26
REMARK                            x       y       z     vdW  Elec       q    Type
REMARK                         _______ _______ _______ _____ _____    ______ ____
ROOT
ATOM      1  C   UNL     1       1.010  11.467  18.727  0.00  0.00    +0.000 C 
ENDROOT
BRANCH   1   2
ATOM      2  C   UNL     1       1.421  10.022  18.979  0.00  0.00    +0.000 A 
ATOM      3  C   UNL     1       1.158   9.434  20.223  0.00  0.00    +0.000 A 
ATOM      4  C   UNL     1       1.500   8.099  20.481  0.00  0.00    +0.000 A 
ATOM      5  C   UNL     1       2.095   7.281  19.504  0.00  0.00    +0.000 A 
ATOM      6  C   UNL     1       2.352   7.878  18.259  0.00  0.00    +0.000 A 
ATOM      7  C   UNL     1       2.034   9.223  18.003  0.00  0.00    +0.000 A 
BRANCH   5   8
ATOM      8  C   UNL     1       2.439   5.864  19.787  0.00  0.00    +0.000 A 
ATOM      9  C   UNL     1       1.715   5.105  20.727  0.00  0.00    +0.000 A 
ATOM     10  C   UNL     1       2.063   3.785  21.036  0.00  0.00    +0.000 A 
ATOM     11  C   UNL     1       3.137   3.180  20.394  0.00  0.00    +0.000 A 
ATOM     12  C   UNL     1       3.857   3.894  19.441  0.00  0.00    +0.000 A 
ATOM     13  C   UNL     1       3.514   5.219  19.145  0.00  0.00    +0.000 A 
ENDBRANCH   5   8
ENDBRANCH   1   2
BRANCH   1  15
ATOM     14  C   UNL     1      -1.392  10.701  18.420  0.00  0.00    +0.000 C 
ATOM     15  C   UNL     1      -0.489  11.800  18.964  0.00  0.00    +0.000 C 
ATOM     16  C   UNL     1      -1.050  13.203  18.807  0.00  0.00    +0.000 C 
ATOM     17  C   UNL     1      -0.933  12.629  20.199  0.00  0.00    +0.000 C 
BRANCH  17  18
ATOM     18  C   UNL     1      -2.135  12.243  21.053  0.00  0.00    +0.000 C 
ATOM     19  C   UNL     1      -3.389  13.081  20.731  0.00  0.00    +0.000 C 
ATOM     20  C   UNL     1      -4.562  12.733  21.658  0.00  0.00    +0.000 C 
ATOM     21  C   UNL     1      -4.188  12.893  23.126  0.00  0.00    +0.000 C 
ATOM     22  C   UNL     1      -2.954  12.067  23.467  0.00  0.00    +0.000 C 
ATOM     23  C   UNL     1      -1.779  12.399  22.546  0.00  0.00    +0.000 C 
ENDBRANCH  17  18
ENDBRANCH   1  15
BRANCH   1  24
ATOM     24  N   UNL     1       1.827  12.378  19.518  0.00  0.00    +0.000 N 
ATOM     25  C   UNL     1       2.535  13.444  18.995  0.00  0.00    +0.000 C 
ATOM     26  O   UNL     1       2.546  13.692  17.796  0.00  0.00    +0.000 OA
ATOM     27  H   UNL     1       1.837  12.255  20.520  0.00  0.00    +0.000 HD
BRANCH  25  28
ATOM     28  C   UNL     1       3.241  14.267  19.981  0.00  0.00    +0.000 A 
ATOM     29  C   UNL     1       4.496  14.839  19.848  0.00  0.00    +0.000 A 
ATOM     30  C   UNL     1       4.869  15.625  20.984  0.00  0.00    +0.000 A 
ATOM     31  C   UNL     1       3.891  15.622  21.952  0.00  0.00    +0.000 A 
ATOM     32  S   UNL     1       2.546  14.671  21.500  0.00  0.00    +0.000 S 
ENDBRANCH  25  28
ENDBRANCH   1  24
TORSDOF 6
ENDMDL
