MODEL 1
REMARK VINA RESULT:      -6.6      0.000      0.000
REMARK  Name = 
REMARK  8 active torsions:
REMARK  status: ('A' for Active; 'I' for Inactive)
REMARK    1  A    between atoms: C_9  and  O_10
REMARK    2  A    between atoms: O_10  and  C_11
REMARK    3  A    between atoms: C_11  and  C_12
REMARK    4  A    between atoms: C_12  and  C_13
REMARK    5  A    between atoms: C_13  and  C_14
REMARK    6  A    between atoms: C_14  and  C_15
REMARK    7  A    between atoms: C_15  and  N_16
REMARK    8  A    between atoms: N_16  and  O_17
REMARK                            x       y       z     vdW  Elec       q    Type
REMARK                         _______ _______ _______ _____ _____    ______ ____
ROOT
ATOM      1  O   UNL     1       8.006   5.475  20.855  0.00  0.00    +0.000 OA
ATOM      2  C   UNL     1       7.517   5.525  19.728  0.00  0.00    +0.000 A 
ATOM      3  C   UNL     1       8.036   6.464  18.720  0.00  0.00    +0.000 A 
ATOM      4  C   UNL     1       7.491   6.510  17.499  0.00  0.00    +0.000 A 
ATOM      5  C   UNL     1       6.373   5.625  17.145  0.00  0.00    +0.000 A 
ATOM      6  C   UNL     1       5.826   5.700  15.860  0.00  0.00    +0.000 A 
ATOM      7  C   UNL     1       4.771   4.870  15.505  0.00  0.00    +0.000 A 
ATOM      8  C   UNL     1       4.261   3.963  16.433  0.00  0.00    +0.000 A 
ATOM      9  C   UNL     1       4.786   3.863  17.733  0.00  0.00    +0.000 A 
ATOM     10  C   UNL     1       5.861   4.710  18.096  0.00  0.00    +0.000 A 
ATOM     11  N   UNL     1       6.482   4.724  19.363  0.00  0.00    +0.000 N 
ATOM     12  H   UNL     1       6.206   4.127  20.117  0.00  0.00    +0.000 HD
ENDROOT
BRANCH   9  13
ATOM     13  O   UNL     1       4.119   2.900  18.457  0.00  0.00    +0.000 OA
BRANCH  13  14
ATOM     14  C   UNL     1       3.060   2.217  17.823  0.00  0.00    +0.000 C 
BRANCH  14  15
ATOM     15  C   UNL     1       1.783   2.193  18.649  0.00  0.00    +0.000 C 
BRANCH  15  16
ATOM     16  C   UNL     1       1.391   3.644  18.934  0.00  0.00    +0.000 C 
BRANCH  16  17
ATOM     17  C   UNL     1       1.012   3.876  20.389  0.00  0.00    +0.000 C 
BRANCH  17  18
ATOM     18  C   UNL     1       2.168   4.546  21.128  0.00  0.00    +0.000 C 
BRANCH  18  19
ATOM     19  N   UNL     1       2.896   5.423  20.214  0.00  0.00    +0.000 NA
ATOM     20  H   UNL     1       2.558   5.278  19.259  0.00  0.00    +0.000 HD
BRANCH  19  21
ATOM     21  O   UNL     1       2.405   6.756  20.523  0.00  0.00    +0.000 OA
ATOM     22  H   UNL     1       1.635   6.555  21.089  0.00  0.00    +0.000 HD
ENDBRANCH  19  21
ENDBRANCH  18  19
ENDBRANCH  17  18
ENDBRANCH  16  17
ENDBRANCH  15  16
ENDBRANCH  14  15
ENDBRANCH  13  14
ENDBRANCH   9  13
TORSDOF 8
ENDMDL
MODEL 2
REMARK VINA RESULT:      -6.4      2.252      3.827
REMARK  Name = 
REMARK  8 active torsions:
REMARK  status: ('A' for Active; 'I' for Inactive)
REMARK    1  A    between atoms: C_9  and  O_10
REMARK    2  A    between atoms: O_10  and  C_11
REMARK    3  A    between atoms: C_11  and  C_12
REMARK    4  A    between atoms: C_12  and  C_13
REMARK    5  A    between atoms: C_13  and  C_14
REMARK    6  A    between atoms: C_14  and  C_15
REMARK    7  A    between atoms: C_15  and  N_16
REMARK    8  A    between atoms: N_16  and  O_17
REMARK                            x       y       z     vdW  Elec       q    Type
REMARK                         _______ _______ _______ _____ _____    ______ ____
ROOT
ATOM      1  O   UNL     1       4.963   3.920  13.488  0.00  0.00    +0.000 OA
ATOM      2  C   UNL     1       5.564   4.285  14.497  0.00  0.00    +0.000 A 
ATOM      3  C   UNL     1       6.976   4.692  14.430  0.00  0.00    +0.000 A 
ATOM      4  C   UNL     1       7.617   5.082  15.538  0.00  0.00    +0.000 A 
ATOM      5  C   UNL     1       6.923   5.114  16.832  0.00  0.00    +0.000 A 
ATOM      6  C   UNL     1       7.624   5.527  17.971  0.00  0.00    +0.000 A 
ATOM      7  C   UNL     1       6.984   5.568  19.203  0.00  0.00    +0.000 A 
ATOM      8  C   UNL     1       5.644   5.197  19.300  0.00  0.00    +0.000 A 
ATOM      9  C   UNL     1       4.911   4.776  18.176  0.00  0.00    +0.000 A 
ATOM     10  C   UNL     1       5.563   4.733  16.920  0.00  0.00    +0.000 A 
ATOM     11  N   UNL     1       4.957   4.328  15.712  0.00  0.00    +0.000 N 
ATOM     12  H   UNL     1       4.002   4.032  15.649  0.00  0.00    +0.000 HD
ENDROOT
BRANCH   9  13
ATOM     13  O   UNL     1       3.615   4.466  18.526  0.00  0.00    +0.000 OA
BRANCH  13  14
ATOM     14  C   UNL     1       3.219   4.705  19.859  0.00  0.00    +0.000 C 
BRANCH  14  15
ATOM     15  C   UNL     1       1.722   4.935  20.005  0.00  0.00    +0.000 C 
BRANCH  15  16
ATOM     16  C   UNL     1       1.133   3.710  20.707  0.00  0.00    +0.000 C 
BRANCH  16  17
ATOM     17  C   UNL     1       1.591   2.399  20.086  0.00  0.00    +0.000 C 
BRANCH  17  18
ATOM     18  C   UNL     1       0.924   2.206  18.726  0.00  0.00    +0.000 C 
BRANCH  18  19
ATOM     19  N   UNL     1       1.946   2.060  17.693  0.00  0.00    +0.000 NA
ATOM     20  H   UNL     1       2.350   2.976  17.478  0.00  0.00    +0.000 HD
BRANCH  19  21
ATOM     21  O   UNL     1       3.044   1.380  18.362  0.00  0.00    +0.000 OA
ATOM     22  H   UNL     1       2.912   0.459  18.066  0.00  0.00    +0.000 HD
ENDBRANCH  19  21
ENDBRANCH  18  19
ENDBRANCH  17  18
ENDBRANCH  16  17
ENDBRANCH  15  16
ENDBRANCH  14  15
ENDBRANCH  13  14
ENDBRANCH   9  13
TORSDOF 8
ENDMDL
MODEL 3
REMARK VINA RESULT:      -6.3      2.265      3.369
REMARK  Name = 
REMARK  8 active torsions:
REMARK  status: ('A' for Active; 'I' for Inactive)
REMARK    1  A    between atoms: C_9  and  O_10
REMARK    2  A    between atoms: O_10  and  C_11
REMARK    3  A    between atoms: C_11  and  C_12
REMARK    4  A    between atoms: C_12  and  C_13
REMARK    5  A    between atoms: C_13  and  C_14
REMARK    6  A    between atoms: C_14  and  C_15
REMARK    7  A    between atoms: C_15  and  N_16
REMARK    8  A    between atoms: N_16  and  O_17
REMARK                            x       y       z     vdW  Elec       q    Type
REMARK                         _______ _______ _______ _____ _____    ______ ____
ROOT
ATOM      1  O   UNL     1       1.566   7.324  20.758  0.00  0.00    +0.000 OA
ATOM      2  C   UNL     1       2.298   7.171  19.781  0.00  0.00    +0.000 A 
ATOM      3  C   UNL     1       2.237   8.097  18.640  0.00  0.00    +0.000 A 
ATOM      4  C   UNL     1       3.036   7.914  17.582  0.00  0.00    +0.000 A 
ATOM      5  C   UNL     1       3.986   6.794  17.546  0.00  0.00    +0.000 A 
ATOM      6  C   UNL     1       4.806   6.633  16.425  0.00  0.00    +0.000 A 
ATOM      7  C   UNL     1       5.713   5.582  16.373  0.00  0.00    +0.000 A 
ATOM      8  C   UNL     1       5.802   4.692  17.443  0.00  0.00    +0.000 A 
ATOM      9  C   UNL     1       4.992   4.824  18.584  0.00  0.00    +0.000 A 
ATOM     10  C   UNL     1       4.066   5.894  18.636  0.00  0.00    +0.000 A 
ATOM     11  N   UNL     1       3.188   6.147  19.711  0.00  0.00    +0.000 N 
ATOM     12  H   UNL     1       3.149   5.579  20.534  0.00  0.00    +0.000 HD
ENDROOT
BRANCH   9  13
ATOM     13  O   UNL     1       5.266   3.829  19.496  0.00  0.00    +0.000 OA
BRANCH  13  14
ATOM     14  C   UNL     1       4.422   2.698  19.507  0.00  0.00    +0.000 C 
BRANCH  14  15
ATOM     15  C   UNL     1       3.354   2.738  18.425  0.00  0.00    +0.000 C 
BRANCH  15  16
ATOM     16  C   UNL     1       2.173   1.894  18.909  0.00  0.00    +0.000 C 
BRANCH  16  17
ATOM     17  C   UNL     1       0.877   2.685  18.988  0.00  0.00    +0.000 C 
BRANCH  17  18
ATOM     18  C   UNL     1       0.895   3.596  20.214  0.00  0.00    +0.000 C 
BRANCH  18  19
ATOM     19  N   UNL     1       1.018   2.789  21.425  0.00  0.00    +0.000 NA
ATOM     20  H   UNL     1       1.371   1.859  21.183  0.00  0.00    +0.000 HD
BRANCH  19  21
ATOM     21  O   UNL     1       2.143   3.374  22.139  0.00  0.00    +0.000 OA
ATOM     22  H   UNL     1       1.780   3.455  23.042  0.00  0.00    +0.000 HD
ENDBRANCH  19  21
ENDBRANCH  18  19
ENDBRANCH  17  18
ENDBRANCH  16  17
ENDBRANCH  15  16
ENDBRANCH  14  15
ENDBRANCH  13  14
ENDBRANCH   9  13
TORSDOF 8
ENDMDL
MODEL 4
REMARK VINA RESULT:      -6.3      1.427      1.498
REMARK  Name = 
REMARK  8 active torsions:
REMARK  status: ('A' for Active; 'I' for Inactive)
REMARK    1  A    between atoms: C_9  and  O_10
REMARK    2  A    between atoms: O_10  and  C_11
REMARK    3  A    between atoms: C_11  and  C_12
REMARK    4  A    between atoms: C_12  and  C_13
REMARK    5  A    between atoms: C_13  and  C_14
REMARK    6  A    between atoms: C_14  and  C_15
REMARK    7  A    between atoms: C_15  and  N_16
REMARK    8  A    between atoms: N_16  and  O_17
REMARK                            x       y       z     vdW  Elec       q    Type
REMARK                         _______ _______ _______ _____ _____    ______ ____
ROOT
ATOM      1  O   UNL     1       7.981   5.302  20.687  0.00  0.00    +0.000 OA
ATOM      2  C   UNL     1       7.572   5.527  19.550  0.00  0.00    +0.000 A 
ATOM      3  C   UNL     1       8.010   6.723  18.812  0.00  0.00    +0.000 A 
ATOM      4  C   UNL     1       7.553   6.957  17.576  0.00  0.00    +0.000 A 
ATOM      5  C   UNL     1       6.614   6.025  16.937  0.00  0.00    +0.000 A 
ATOM      6  C   UNL     1       6.156   6.299  15.645  0.00  0.00    +0.000 A 
ATOM      7  C   UNL     1       5.271   5.429  15.022  0.00  0.00    +0.000 A 
ATOM      8  C   UNL     1       4.843   4.282  15.689  0.00  0.00    +0.000 A 
ATOM      9  C   UNL     1       5.283   3.977  16.989  0.00  0.00    +0.000 A 
ATOM     10  C   UNL     1       6.184   4.865  17.625  0.00  0.00    +0.000 A 
ATOM     11  N   UNL     1       6.704   4.690  18.925  0.00  0.00    +0.000 N 
ATOM     12  H   UNL     1       6.470   3.912  19.510  0.00  0.00    +0.000 HD
ENDROOT
BRANCH   9  13
ATOM     13  O   UNL     1       4.723   2.798  17.430  0.00  0.00    +0.000 OA
BRANCH  13  14
ATOM     14  C   UNL     1       3.624   2.882  18.311  0.00  0.00    +0.000 C 
BRANCH  14  15
ATOM     15  C   UNL     1       2.368   2.221  17.764  0.00  0.00    +0.000 C 
BRANCH  15  16
ATOM     16  C   UNL     1       1.190   2.685  18.622  0.00  0.00    +0.000 C 
BRANCH  16  17
ATOM     17  C   UNL     1       1.318   4.136  19.063  0.00  0.00    +0.000 C 
BRANCH  17  18
ATOM     18  C   UNL     1       1.265   4.224  20.586  0.00  0.00    +0.000 C 
BRANCH  18  19
ATOM     19  N   UNL     1       0.911   2.921  21.144  0.00  0.00    +0.000 NA
ATOM     20  H   UNL     1       1.158   2.185  20.477  0.00  0.00    +0.000 HD
BRANCH  19  21
ATOM     21  O   UNL     1       1.873   2.712  22.215  0.00  0.00    +0.000 OA
ATOM     22  H   UNL     1       2.408   3.527  22.159  0.00  0.00    +0.000 HD
ENDBRANCH  19  21
ENDBRANCH  18  19
ENDBRANCH  17  18
ENDBRANCH  16  17
ENDBRANCH  15  16
ENDBRANCH  14  15
ENDBRANCH  13  14
ENDBRANCH   9  13
TORSDOF 8
ENDMDL
MODEL 5
REMARK VINA RESULT:      -6.3      2.063      3.050
REMARK  Name = 
REMARK  8 active torsions:
REMARK  status: ('A' for Active; 'I' for Inactive)
REMARK    1  A    between atoms: C_9  and  O_10
REMARK    2  A    between atoms: O_10  and  C_11
REMARK    3  A    between atoms: C_11  and  C_12
REMARK    4  A    between atoms: C_12  and  C_13
REMARK    5  A    between atoms: C_13  and  C_14
REMARK    6  A    between atoms: C_14  and  C_15
REMARK    7  A    between atoms: C_15  and  N_16
REMARK    8  A    between atoms: N_16  and  O_17
REMARK                            x       y       z     vdW  Elec       q    Type
REMARK                         _______ _______ _______ _____ _____    ______ ____
ROOT
ATOM      1  O   UNL     1       7.934   4.427  18.611  0.00  0.00    +0.000 OA
ATOM      2  C   UNL     1       6.970   5.145  18.357  0.00  0.00    +0.000 A 
ATOM      3  C   UNL     1       7.056   6.188  17.322  0.00  0.00    +0.000 A 
ATOM      4  C   UNL     1       5.999   6.965  17.060  0.00  0.00    +0.000 A 
ATOM      5  C   UNL     1       4.739   6.787  17.794  0.00  0.00    +0.000 A 
ATOM      6  C   UNL     1       3.653   7.617  17.494  0.00  0.00    +0.000 A 
ATOM      7  C   UNL     1       2.452   7.462  18.174  0.00  0.00    +0.000 A 
ATOM      8  C   UNL     1       2.334   6.477  19.154  0.00  0.00    +0.000 A 
ATOM      9  C   UNL     1       3.405   5.628  19.481  0.00  0.00    +0.000 A 
ATOM     10  C   UNL     1       4.630   5.786  18.789  0.00  0.00    +0.000 A 
ATOM     11  N   UNL     1       5.788   5.012  19.014  0.00  0.00    +0.000 N 
ATOM     12  H   UNL     1       5.834   4.278  19.693  0.00  0.00    +0.000 HD
ENDROOT
BRANCH   9  13
ATOM     13  O   UNL     1       3.043   4.743  20.473  0.00  0.00    +0.000 OA
BRANCH  13  14
ATOM     14  C   UNL     1       1.765   4.150  20.389  0.00  0.00    +0.000 C 
BRANCH  14  15
ATOM     15  C   UNL     1       1.332   3.862  18.960  0.00  0.00    +0.000 C 
BRANCH  15  16
ATOM     16  C   UNL     1       1.423   2.350  18.746  0.00  0.00    +0.000 C 
BRANCH  16  17
ATOM     17  C   UNL     1       2.620   1.945  17.900  0.00  0.00    +0.000 C 
BRANCH  17  18
ATOM     18  C   UNL     1       3.695   1.317  18.785  0.00  0.00    +0.000 C 
BRANCH  18  19
ATOM     19  N   UNL     1       4.729   2.305  19.081  0.00  0.00    +0.000 NA
ATOM     20  H   UNL     1       4.327   3.245  19.038  0.00  0.00    +0.000 HD
BRANCH  19  21
ATOM     21  O   UNL     1       4.991   2.141  20.502  0.00  0.00    +0.000 OA
ATOM     22  H   UNL     1       5.866   2.568  20.590  0.00  0.00    +0.000 HD
ENDBRANCH  19  21
ENDBRANCH  18  19
ENDBRANCH  17  18
ENDBRANCH  16  17
ENDBRANCH  15  16
ENDBRANCH  14  15
ENDBRANCH  13  14
ENDBRANCH   9  13
TORSDOF 8
ENDMDL
MODEL 6
REMARK VINA RESULT:      -6.3      1.943      5.122
REMARK  Name = 
REMARK  8 active torsions:
REMARK  status: ('A' for Active; 'I' for Inactive)
REMARK    1  A    between atoms: C_9  and  O_10
REMARK    2  A    between atoms: O_10  and  C_11
REMARK    3  A    between atoms: C_11  and  C_12
REMARK    4  A    between atoms: C_12  and  C_13
REMARK    5  A    between atoms: C_13  and  C_14
REMARK    6  A    between atoms: C_14  and  C_15
REMARK    7  A    between atoms: C_15  and  N_16
REMARK    8  A    between atoms: N_16  and  O_17
REMARK                            x       y       z     vdW  Elec       q    Type
REMARK                         _______ _______ _______ _____ _____    ______ ____
ROOT
ATOM      1  O   UNL     1       5.438   1.301  21.485  0.00  0.00    +0.000 OA
ATOM      2  C   UNL     1       4.520   1.888  20.916  0.00  0.00    +0.000 A 
ATOM      3  C   UNL     1       3.231   2.108  21.591  0.00  0.00    +0.000 A 
ATOM      4  C   UNL     1       2.240   2.745  20.956  0.00  0.00    +0.000 A 
ATOM      5  C   UNL     1       2.423   3.235  19.584  0.00  0.00    +0.000 A 
ATOM      6  C   UNL     1       1.365   3.897  18.950  0.00  0.00    +0.000 A 
ATOM      7  C   UNL     1       1.520   4.371  17.654  0.00  0.00    +0.000 A 
ATOM      8  C   UNL     1       2.731   4.186  16.989  0.00  0.00    +0.000 A 
ATOM      9  C   UNL     1       3.814   3.525  17.596  0.00  0.00    +0.000 A 
ATOM     10  C   UNL     1       3.656   3.040  18.917  0.00  0.00    +0.000 A 
ATOM     11  N   UNL     1       4.651   2.356  19.647  0.00  0.00    +0.000 N 
ATOM     12  H   UNL     1       5.560   2.155  19.281  0.00  0.00    +0.000 HD
ENDROOT
BRANCH   9  13
ATOM     13  O   UNL     1       4.893   3.470  16.743  0.00  0.00    +0.000 OA
BRANCH  13  14
ATOM     14  C   UNL     1       4.985   4.452  15.734  0.00  0.00    +0.000 C 
BRANCH  14  15
ATOM     15  C   UNL     1       5.866   5.629  16.124  0.00  0.00    +0.000 C 
BRANCH  15  16
ATOM     16  C   UNL     1       7.280   5.091  16.352  0.00  0.00    +0.000 C 
BRANCH  16  17
ATOM     17  C   UNL     1       7.515   4.641  17.786  0.00  0.00    +0.000 C 
BRANCH  17  18
ATOM     18  C   UNL     1       7.749   5.855  18.682  0.00  0.00    +0.000 C 
BRANCH  18  19
ATOM     19  N   UNL     1       7.541   5.484  20.079  0.00  0.00    +0.000 NA
ATOM     20  H   UNL     1       7.019   4.605  20.126  0.00  0.00    +0.000 HD
BRANCH  19  21
ATOM     21  O   UNL     1       8.860   5.092  20.551  0.00  0.00    +0.000 OA
ATOM     22  H   UNL     1       9.411   5.275  19.765  0.00  0.00    +0.000 HD
ENDBRANCH  19  21
ENDBRANCH  18  19
ENDBRANCH  17  18
ENDBRANCH  16  17
ENDBRANCH  15  16
ENDBRANCH  14  15
ENDBRANCH  13  14
ENDBRANCH   9  13
TORSDOF 8
ENDMDL
MODEL 7
REMARK VINA RESULT:      -6.2      2.042      5.318
REMARK  Name = 
REMARK  8 active torsions:
REMARK  status: ('A' for Active; 'I' for Inactive)
REMARK    1  A    between atoms: C_9  and  O_10
REMARK    2  A    between atoms: O_10  and  C_11
REMARK    3  A    between atoms: C_11  and  C_12
REMARK    4  A    between atoms: C_12  and  C_13
REMARK    5  A    between atoms: C_13  and  C_14
REMARK    6  A    between atoms: C_14  and  C_15
REMARK    7  A    between atoms: C_15  and  N_16
REMARK    8  A    between atoms: N_16  and  O_17
REMARK                            x       y       z     vdW  Elec       q    Type
REMARK                         _______ _______ _______ _____ _____    ______ ____
ROOT
ATOM      1  O   UNL     1       4.702   1.597  20.163  0.00  0.00    +0.000 OA
ATOM      2  C   UNL     1       3.979   2.581  20.301  0.00  0.00    +0.000 A 
ATOM      3  C   UNL     1       2.880   2.579  21.279  0.00  0.00    +0.000 A 
ATOM      4  C   UNL     1       2.098   3.657  21.416  0.00  0.00    +0.000 A 
ATOM      5  C   UNL     1       2.328   4.856  20.598  0.00  0.00    +0.000 A 
ATOM      6  C   UNL     1       1.492   5.965  20.766  0.00  0.00    +0.000 A 
ATOM      7  C   UNL     1       1.695   7.109  20.005  0.00  0.00    +0.000 A 
ATOM      8  C   UNL     1       2.733   7.147  19.076  0.00  0.00    +0.000 A 
ATOM      9  C   UNL     1       3.591   6.050  18.881  0.00  0.00    +0.000 A 
ATOM     10  C   UNL     1       3.383   4.883  19.655  0.00  0.00    +0.000 A 
ATOM     11  N   UNL     1       4.159   3.708  19.564  0.00  0.00    +0.000 N 
ATOM     12  H   UNL     1       4.928   3.606  18.932  0.00  0.00    +0.000 HD
ENDROOT
BRANCH   9  13
ATOM     13  O   UNL     1       4.531   6.330  17.915  0.00  0.00    +0.000 OA
BRANCH  13  14
ATOM     14  C   UNL     1       4.518   5.551  16.738  0.00  0.00    +0.000 C 
BRANCH  14  15
ATOM     15  C   UNL     1       5.275   6.195  15.586  0.00  0.00    +0.000 C 
BRANCH  15  16
ATOM     16  C   UNL     1       6.616   5.472  15.453  0.00  0.00    +0.000 C 
BRANCH  16  17
ATOM     17  C   UNL     1       6.737   4.279  16.390  0.00  0.00    +0.000 C 
BRANCH  17  18
ATOM     18  C   UNL     1       7.566   4.660  17.614  0.00  0.00    +0.000 C 
BRANCH  18  19
ATOM     19  N   UNL     1       6.896   4.199  18.827  0.00  0.00    +0.000 NA
ATOM     20  H   UNL     1       7.491   3.521  19.310  0.00  0.00    +0.000 HD
BRANCH  19  21
ATOM     21  O   UNL     1       6.935   5.345  19.721  0.00  0.00    +0.000 OA
ATOM     22  H   UNL     1       5.987   5.465  19.926  0.00  0.00    +0.000 HD
ENDBRANCH  19  21
ENDBRANCH  18  19
ENDBRANCH  17  18
ENDBRANCH  16  17
ENDBRANCH  15  16
ENDBRANCH  14  15
ENDBRANCH  13  14
ENDBRANCH   9  13
TORSDOF 8
ENDMDL
MODEL 8
REMARK VINA RESULT:      -6.2      2.134      3.089
REMARK  Name = 
REMARK  8 active torsions:
REMARK  status: ('A' for Active; 'I' for Inactive)
REMARK    1  A    between atoms: C_9  and  O_10
REMARK    2  A    between atoms: O_10  and  C_11
REMARK    3  A    between atoms: C_11  and  C_12
REMARK    4  A    between atoms: C_12  and  C_13
REMARK    5  A    between atoms: C_13  and  C_14
REMARK    6  A    between atoms: C_14  and  C_15
REMARK    7  A    between atoms: C_15  and  N_16
REMARK    8  A    between atoms: N_16  and  O_17
REMARK                            x       y       z     vdW  Elec       q    Type
REMARK                         _______ _______ _______ _____ _____    ______ ____
ROOT
ATOM      1  O   UNL     1       7.823   4.258  18.227  0.00  0.00    +0.000 OA
ATOM      2  C   UNL     1       6.899   5.040  18.014  0.00  0.00    +0.000 A 
ATOM      3  C   UNL     1       6.999   6.058  16.956  0.00  0.00    +0.000 A 
ATOM      4  C   UNL     1       5.986   6.905  16.739  0.00  0.00    +0.000 A 
ATOM      5  C   UNL     1       4.762   6.830  17.547  0.00  0.00    +0.000 A 
ATOM      6  C   UNL     1       3.722   7.731  17.293  0.00  0.00    +0.000 A 
ATOM      7  C   UNL     1       2.555   7.674  18.043  0.00  0.00    +0.000 A 
ATOM      8  C   UNL     1       2.424   6.716  19.048  0.00  0.00    +0.000 A 
ATOM      9  C   UNL     1       3.450   5.796  19.330  0.00  0.00    +0.000 A 
ATOM     10  C   UNL     1       4.640   5.855  18.566  0.00  0.00    +0.000 A 
ATOM     11  N   UNL     1       5.751   5.003  18.740  0.00  0.00    +0.000 N 
ATOM     12  H   UNL     1       5.785   4.279  19.430  0.00  0.00    +0.000 HD
ENDROOT
BRANCH   9  13
ATOM     13  O   UNL     1       3.084   4.956  20.358  0.00  0.00    +0.000 OA
BRANCH  13  14
ATOM     14  C   UNL     1       1.731   4.959  20.759  0.00  0.00    +0.000 C 
BRANCH  14  15
ATOM     15  C   UNL     1       0.938   3.789  20.198  0.00  0.00    +0.000 C 
BRANCH  15  16
ATOM     16  C   UNL     1       1.701   2.508  20.542  0.00  0.00    +0.000 C 
BRANCH  16  17
ATOM     17  C   UNL     1       2.196   1.768  19.308  0.00  0.00    +0.000 C 
BRANCH  17  18
ATOM     18  C   UNL     1       1.992   2.632  18.066  0.00  0.00    +0.000 C 
BRANCH  18  19
ATOM     19  N   UNL     1       3.288   3.025  17.519  0.00  0.00    +0.000 NA
ATOM     20  H   UNL     1       3.489   3.995  17.777  0.00  0.00    +0.000 HD
BRANCH  19  21
ATOM     21  O   UNL     1       4.256   2.283  18.312  0.00  0.00    +0.000 OA
ATOM     22  H   UNL     1       3.705   1.982  19.061  0.00  0.00    +0.000 HD
ENDBRANCH  19  21
ENDBRANCH  18  19
ENDBRANCH  17  18
ENDBRANCH  16  17
ENDBRANCH  15  16
ENDBRANCH  14  15
ENDBRANCH  13  14
ENDBRANCH   9  13
TORSDOF 8
ENDMDL
MODEL 9
REMARK VINA RESULT:      -6.2      3.639      6.586
REMARK  Name = 
REMARK  8 active torsions:
REMARK  status: ('A' for Active; 'I' for Inactive)
REMARK    1  A    between atoms: C_9  and  O_10
REMARK    2  A    between atoms: O_10  and  C_11
REMARK    3  A    between atoms: C_11  and  C_12
REMARK    4  A    between atoms: C_12  and  C_13
REMARK    5  A    between atoms: C_13  and  C_14
REMARK    6  A    between atoms: C_14  and  C_15
REMARK    7  A    between atoms: C_15  and  N_16
REMARK    8  A    between atoms: N_16  and  O_17
REMARK                            x       y       z     vdW  Elec       q    Type
REMARK                         _______ _______ _______ _____ _____    ______ ____
ROOT
ATOM      1  O   UNL     1       3.757   1.102  18.370  0.00  0.00    +0.000 OA
ATOM      2  C   UNL     1       3.450   2.293  18.365  0.00  0.00    +0.000 A 
ATOM      3  C   UNL     1       2.200   2.753  18.992  0.00  0.00    +0.000 A 
ATOM      4  C   UNL     1       1.877   4.052  18.975  0.00  0.00    +0.000 A 
ATOM      5  C   UNL     1       2.764   5.035  18.338  0.00  0.00    +0.000 A 
ATOM      6  C   UNL     1       2.396   6.384  18.339  0.00  0.00    +0.000 A 
ATOM      7  C   UNL     1       3.221   7.330  17.744  0.00  0.00    +0.000 A 
ATOM      8  C   UNL     1       4.417   6.928  17.149  0.00  0.00    +0.000 A 
ATOM      9  C   UNL     1       4.816   5.580  17.130  0.00  0.00    +0.000 A 
ATOM     10  C   UNL     1       3.973   4.616  17.734  0.00  0.00    +0.000 A 
ATOM     11  N   UNL     1       4.242   3.232  17.786  0.00  0.00    +0.000 N 
ATOM     12  H   UNL     1       5.062   2.817  17.390  0.00  0.00    +0.000 HD
ENDROOT
BRANCH   9  13
ATOM     13  O   UNL     1       6.026   5.438  16.489  0.00  0.00    +0.000 OA
BRANCH  13  14
ATOM     14  C   UNL     1       6.012   5.258  15.089  0.00  0.00    +0.000 C 
BRANCH  14  15
ATOM     15  C   UNL     1       6.107   3.798  14.673  0.00  0.00    +0.000 C 
BRANCH  15  16
ATOM     16  C   UNL     1       5.764   3.718  13.184  0.00  0.00    +0.000 C 
BRANCH  16  17
ATOM     17  C   UNL     1       6.999   3.724  12.296  0.00  0.00    +0.000 C 
BRANCH  17  18
ATOM     18  C   UNL     1       6.924   2.575  11.293  0.00  0.00    +0.000 C 
BRANCH  18  19
ATOM     19  N   UNL     1       5.876   1.639  11.693  0.00  0.00    +0.000 NA
ATOM     20  H   UNL     1       5.057   1.764  11.091  0.00  0.00    +0.000 HD
BRANCH  19  21
ATOM     21  O   UNL     1       6.374   0.337  11.277  0.00  0.00    +0.000 OA
ATOM     22  H   UNL     1       7.328   0.423  11.469  0.00  0.00    +0.000 HD
ENDBRANCH  19  21
ENDBRANCH  18  19
ENDBRANCH  17  18
ENDBRANCH  16  17
ENDBRANCH  15  16
ENDBRANCH  14  15
ENDBRANCH  13  14
ENDBRANCH   9  13
TORSDOF 8
ENDMDL
