MODEL 1
REMARK VINA RESULT:      -7.9      0.000      0.000
REMARK  Name = 
REMARK  5 active torsions:
REMARK  status: ('A' for Active; 'I' for Inactive)
REMARK    1  A    between atoms: C_1  and  N_2
REMARK    2  A    between atoms: C_4  and  C_5
REMARK    3  A    between atoms: C_12  and  C_13
REMARK    4  A    between atoms: C_13  and  C_14
REMARK    5  A    between atoms: C_13  and  N_20
REMARK                            x       y       z     vdW  Elec       q    Type
REMARK                         _______ _______ _______ _____ _____    ______ ____
ROOT
ATOM      1  C   UNL     1       3.275   1.438  18.422  0.00  0.00    +0.000 C 
ATOM      2  N   UNL     1       3.487   2.825  18.073  0.00  0.00    +0.000 N 
ATOM      3  C   UNL     1       2.817   3.891  18.597  0.00  0.00    +0.000 A 
ATOM      4  C   UNL     1       3.311   5.057  18.033  0.00  0.00    +0.000 A 
ATOM      5  C   UNL     1       4.377   4.657  17.135  0.00  0.00    +0.000 A 
ATOM      6  C   UNL     1       4.414   3.266  17.174  0.00  0.00    +0.000 A 
ENDROOT
BRANCH   4   7
ATOM      7  C   UNL     1       2.781   6.378  18.405  0.00  0.00    +0.000 A 
ATOM      8  C   UNL     1       2.294   6.640  19.689  0.00  0.00    +0.000 A 
ATOM      9  C   UNL     1       1.810   7.900  20.052  0.00  0.00    +0.000 A 
ATOM     10  C   UNL     1       1.767   8.916  19.110  0.00  0.00    +0.000 A 
ATOM     11 CL   UNL     1       1.142  10.457  19.543  0.00  0.00    +0.000 Cl
ATOM     12  C   UNL     1       2.217   8.682  17.816  0.00  0.00    +0.000 A 
ATOM     13  C   UNL     1       2.733   7.424  17.468  0.00  0.00    +0.000 A 
ENDBRANCH   4   7
BRANCH   5  14
ATOM     14  C   UNL     1       5.291   5.550  16.311  0.00  0.00    +0.000 C 
BRANCH  14  15
ATOM     15  C   UNL     1       6.425   6.037  17.218  0.00  0.00    +0.000 A 
ATOM     16  C   UNL     1       6.973   5.268  18.263  0.00  0.00    +0.000 A 
ATOM     17  C   UNL     1       7.908   5.809  19.146  0.00  0.00    +0.000 A 
ATOM     18  C   UNL     1       8.334   7.124  18.991  0.00  0.00    +0.000 A 
ATOM     19  C   UNL     1       7.853   7.886  17.930  0.00  0.00    +0.000 A 
ATOM     20  C   UNL     1       6.920   7.343  17.041  0.00  0.00    +0.000 A 
ENDBRANCH  14  15
BRANCH  14  21
ATOM     21  N   UNL     1       5.750   4.915  15.070  0.00  0.00    +0.000 N 
ATOM     22  C   UNL     1       4.927   4.325  14.142  0.00  0.00    +0.000 A 
ATOM     23  C   UNL     1       5.766   3.873  13.151  0.00  0.00    +0.000 A 
ATOM     24  N   UNL     1       7.069   4.183  13.444  0.00  0.00    +0.000 NA
ATOM     25  C   UNL     1       7.026   4.814  14.597  0.00  0.00    +0.000 A 
ENDBRANCH  14  21
ENDBRANCH   5  14
TORSDOF 4
ENDMDL
MODEL 2
REMARK VINA RESULT:      -7.8      0.600      1.293
REMARK  Name = 
REMARK  5 active torsions:
REMARK  status: ('A' for Active; 'I' for Inactive)
REMARK    1  A    between atoms: C_1  and  N_2
REMARK    2  A    between atoms: C_4  and  C_5
REMARK    3  A    between atoms: C_12  and  C_13
REMARK    4  A    between atoms: C_13  and  C_14
REMARK    5  A    between atoms: C_13  and  N_20
REMARK                            x       y       z     vdW  Elec       q    Type
REMARK                         _______ _______ _______ _____ _____    ______ ____
ROOT
ATOM      1  C   UNL     1       3.129   1.856  18.968  0.00  0.00    +0.000 C 
ATOM      2  N   UNL     1       3.330   3.212  18.510  0.00  0.00    +0.000 N 
ATOM      3  C   UNL     1       2.648   4.310  18.946  0.00  0.00    +0.000 A 
ATOM      4  C   UNL     1       3.134   5.433  18.294  0.00  0.00    +0.000 A 
ATOM      5  C   UNL     1       4.208   4.973  17.434  0.00  0.00    +0.000 A 
ATOM      6  C   UNL     1       4.257   3.590  17.583  0.00  0.00    +0.000 A 
ENDROOT
BRANCH   4   7
ATOM      7  C   UNL     1       2.590   6.774  18.558  0.00  0.00    +0.000 A 
ATOM      8  C   UNL     1       2.093   7.131  19.815  0.00  0.00    +0.000 A 
ATOM      9  C   UNL     1       1.595   8.412  20.075  0.00  0.00    +0.000 A 
ATOM     10  C   UNL     1       1.550   9.351  19.055  0.00  0.00    +0.000 A 
ATOM     11 CL   UNL     1       0.909  10.915  19.363  0.00  0.00    +0.000 Cl
ATOM     12  C   UNL     1       2.011   9.019  17.786  0.00  0.00    +0.000 A 
ATOM     13  C   UNL     1       2.540   7.743  17.542  0.00  0.00    +0.000 A 
ENDBRANCH   4   7
BRANCH   5  14
ATOM     14  C   UNL     1       5.117   5.807  16.546  0.00  0.00    +0.000 C 
BRANCH  14  15
ATOM     15  C   UNL     1       6.234   6.387  17.419  0.00  0.00    +0.000 A 
ATOM     16  C   UNL     1       6.828   7.644  17.192  0.00  0.00    +0.000 A 
ATOM     17  C   UNL     1       7.934   8.065  17.932  0.00  0.00    +0.000 A 
ATOM     18  C   UNL     1       8.456   7.251  18.931  0.00  0.00    +0.000 A 
ATOM     19  C   UNL     1       7.850   6.030  19.215  0.00  0.00    +0.000 A 
ATOM     20  C   UNL     1       6.739   5.609  18.478  0.00  0.00    +0.000 A 
ENDBRANCH  14  15
BRANCH  14  21
ATOM     21  N   UNL     1       5.600   5.075  15.368  0.00  0.00    +0.000 N 
ATOM     22  C   UNL     1       6.923   4.842  15.080  0.00  0.00    +0.000 A 
ATOM     23  C   UNL     1       6.915   4.125  13.906  0.00  0.00    +0.000 A 
ATOM     24  N   UNL     1       5.630   3.907  13.483  0.00  0.00    +0.000 NA
ATOM     25  C   UNL     1       4.864   4.482  14.385  0.00  0.00    +0.000 A 
ENDBRANCH  14  21
ENDBRANCH   5  14
TORSDOF 4
ENDMDL
MODEL 3
REMARK VINA RESULT:      -7.6      0.848      1.295
REMARK  Name = 
REMARK  5 active torsions:
REMARK  status: ('A' for Active; 'I' for Inactive)
REMARK    1  A    between atoms: C_1  and  N_2
REMARK    2  A    between atoms: C_4  and  C_5
REMARK    3  A    between atoms: C_12  and  C_13
REMARK    4  A    between atoms: C_13  and  C_14
REMARK    5  A    between atoms: C_13  and  N_20
REMARK                            x       y       z     vdW  Elec       q    Type
REMARK                         _______ _______ _______ _____ _____    ______ ____
ROOT
ATOM      1  C   UNL     1       4.195   2.153  19.874  0.00  0.00    +0.000 C 
ATOM      2  N   UNL     1       4.152   3.436  19.211  0.00  0.00    +0.000 N 
ATOM      3  C   UNL     1       3.328   4.474  19.535  0.00  0.00    +0.000 A 
ATOM      4  C   UNL     1       3.592   5.541  18.691  0.00  0.00    +0.000 A 
ATOM      5  C   UNL     1       4.677   5.120  17.826  0.00  0.00    +0.000 A 
ATOM      6  C   UNL     1       4.955   3.799  18.169  0.00  0.00    +0.000 A 
ENDROOT
BRANCH   4   7
ATOM      7  C   UNL     1       2.857   6.811  18.799  0.00  0.00    +0.000 A 
ATOM      8  C   UNL     1       2.813   7.727  17.744  0.00  0.00    +0.000 A 
ATOM      9  C   UNL     1       2.097   8.924  17.836  0.00  0.00    +0.000 A 
ATOM     10  C   UNL     1       1.442   9.244  19.016  0.00  0.00    +0.000 A 
ATOM     11 CL   UNL     1       0.588  10.729  19.143  0.00  0.00    +0.000 Cl
ATOM     12  C   UNL     1       1.488   8.367  20.094  0.00  0.00    +0.000 A 
ATOM     13  C   UNL     1       2.181   7.153  19.983  0.00  0.00    +0.000 A 
ENDBRANCH   4   7
BRANCH   5  14
ATOM     14  C   UNL     1       5.393   5.932  16.758  0.00  0.00    +0.000 C 
BRANCH  14  15
ATOM     15  C   UNL     1       6.574   6.649  17.417  0.00  0.00    +0.000 A 
ATOM     16  C   UNL     1       7.377   6.071  18.420  0.00  0.00    +0.000 A 
ATOM     17  C   UNL     1       8.353   6.816  19.084  0.00  0.00    +0.000 A 
ATOM     18  C   UNL     1       8.565   8.148  18.744  0.00  0.00    +0.000 A 
ATOM     19  C   UNL     1       7.826   8.725  17.716  0.00  0.00    +0.000 A 
ATOM     20  C   UNL     1       6.851   7.979  17.045  0.00  0.00    +0.000 A 
ENDBRANCH  14  15
BRANCH  14  21
ATOM     21  N   UNL     1       5.759   5.137  15.579  0.00  0.00    +0.000 N 
ATOM     22  C   UNL     1       4.861   4.574  14.705  0.00  0.00    +0.000 A 
ATOM     23  C   UNL     1       5.630   3.936  13.760  0.00  0.00    +0.000 A 
ATOM     24  N   UNL     1       6.963   4.105  14.028  0.00  0.00    +0.000 NA
ATOM     25  C   UNL     1       7.008   4.836  15.121  0.00  0.00    +0.000 A 
ENDBRANCH  14  21
ENDBRANCH   5  14
TORSDOF 4
ENDMDL
MODEL 4
REMARK VINA RESULT:      -7.2      1.949      5.286
REMARK  Name = 
REMARK  5 active torsions:
REMARK  status: ('A' for Active; 'I' for Inactive)
REMARK    1  A    between atoms: C_1  and  N_2
REMARK    2  A    between atoms: C_4  and  C_5
REMARK    3  A    between atoms: C_12  and  C_13
REMARK    4  A    between atoms: C_13  and  C_14
REMARK    5  A    between atoms: C_13  and  N_20
REMARK                            x       y       z     vdW  Elec       q    Type
REMARK                         _______ _______ _______ _____ _____    ______ ____
ROOT
ATOM      1  C   UNL     1       6.144   3.627  13.682  0.00  0.00    +0.000 C 
ATOM      2  N   UNL     1       6.106   4.254  14.984  0.00  0.00    +0.000 N 
ATOM      3  C   UNL     1       6.900   5.284  15.397  0.00  0.00    +0.000 A 
ATOM      4  C   UNL     1       6.556   5.627  16.695  0.00  0.00    +0.000 A 
ATOM      5  C   UNL     1       5.453   4.763  17.068  0.00  0.00    +0.000 A 
ATOM      6  C   UNL     1       5.245   3.913  15.985  0.00  0.00    +0.000 A 
ENDROOT
BRANCH   4   7
ATOM      7  C   UNL     1       7.243   6.712  17.414  0.00  0.00    +0.000 A 
ATOM      8  C   UNL     1       7.934   6.480  18.606  0.00  0.00    +0.000 A 
ATOM      9  C   UNL     1       8.606   7.504  19.281  0.00  0.00    +0.000 A 
ATOM     10  C   UNL     1       8.558   8.798  18.786  0.00  0.00    +0.000 A 
ATOM     11 CL   UNL     1       9.355  10.065  19.629  0.00  0.00    +0.000 Cl
ATOM     12  C   UNL     1       7.856   9.068  17.616  0.00  0.00    +0.000 A 
ATOM     13  C   UNL     1       7.213   8.030  16.928  0.00  0.00    +0.000 A 
ENDBRANCH   4   7
BRANCH   5  14
ATOM     14  C   UNL     1       4.659   4.764  18.364  0.00  0.00    +0.000 C 
BRANCH  14  15
ATOM     15  C   UNL     1       3.747   5.995  18.363  0.00  0.00    +0.000 A 
ATOM     16  C   UNL     1       3.703   6.933  17.313  0.00  0.00    +0.000 A 
ATOM     17  C   UNL     1       2.958   8.108  17.423  0.00  0.00    +0.000 A 
ATOM     18  C   UNL     1       2.222   8.361  18.575  0.00  0.00    +0.000 A 
ATOM     19  C   UNL     1       2.201   7.422  19.603  0.00  0.00    +0.000 A 
ATOM     20  C   UNL     1       2.942   6.242  19.492  0.00  0.00    +0.000 A 
ENDBRANCH  14  15
BRANCH  14  21
ATOM     21  N   UNL     1       3.954   3.500  18.609  0.00  0.00    +0.000 N 
ATOM     22  C   UNL     1       2.727   3.174  18.085  0.00  0.00    +0.000 A 
ATOM     23  C   UNL     1       2.455   1.913  18.562  0.00  0.00    +0.000 A 
ATOM     24  N   UNL     1       3.484   1.462  19.347  0.00  0.00    +0.000 NA
ATOM     25  C   UNL     1       4.371   2.433  19.350  0.00  0.00    +0.000 A 
ENDBRANCH  14  21
ENDBRANCH   5  14
TORSDOF 4
ENDMDL
MODEL 5
REMARK VINA RESULT:      -7.2      0.556      1.468
REMARK  Name = 
REMARK  5 active torsions:
REMARK  status: ('A' for Active; 'I' for Inactive)
REMARK    1  A    between atoms: C_1  and  N_2
REMARK    2  A    between atoms: C_4  and  C_5
REMARK    3  A    between atoms: C_12  and  C_13
REMARK    4  A    between atoms: C_13  and  C_14
REMARK    5  A    between atoms: C_13  and  N_20
REMARK                            x       y       z     vdW  Elec       q    Type
REMARK                         _______ _______ _______ _____ _____    ______ ____
ROOT
ATOM      1  C   UNL     1       2.975   1.676  19.020  0.00  0.00    +0.000 C 
ATOM      2  N   UNL     1       3.193   3.030  18.562  0.00  0.00    +0.000 N 
ATOM      3  C   UNL     1       2.542   4.139  19.016  0.00  0.00    +0.000 A 
ATOM      4  C   UNL     1       3.035   5.254  18.357  0.00  0.00    +0.000 A 
ATOM      5  C   UNL     1       4.080   4.777  17.472  0.00  0.00    +0.000 A 
ATOM      6  C   UNL     1       4.106   3.392  17.616  0.00  0.00    +0.000 A 
ENDROOT
BRANCH   4   7
ATOM      7  C   UNL     1       2.524   6.605  18.637  0.00  0.00    +0.000 A 
ATOM      8  C   UNL     1       2.484   7.595  17.650  0.00  0.00    +0.000 A 
ATOM      9  C   UNL     1       1.979   8.873  17.907  0.00  0.00    +0.000 A 
ATOM     10  C   UNL     1       1.540   9.194  19.183  0.00  0.00    +0.000 A 
ATOM     11 CL   UNL     1       0.949  10.773  19.510  0.00  0.00    +0.000 Cl
ATOM     12  C   UNL     1       1.592   8.241  20.194  0.00  0.00    +0.000 A 
ATOM     13  C   UNL     1       2.069   6.951  19.921  0.00  0.00    +0.000 A 
ENDBRANCH   4   7
BRANCH   5  14
ATOM     14  C   UNL     1       4.987   5.595  16.567  0.00  0.00    +0.000 C 
BRANCH  14  15
ATOM     15  C   UNL     1       6.115   6.177  17.423  0.00  0.00    +0.000 A 
ATOM     16  C   UNL     1       6.720   7.425  17.173  0.00  0.00    +0.000 A 
ATOM     17  C   UNL     1       7.836   7.846  17.899  0.00  0.00    +0.000 A 
ATOM     18  C   UNL     1       8.357   7.040  18.905  0.00  0.00    +0.000 A 
ATOM     19  C   UNL     1       7.742   5.829  19.211  0.00  0.00    +0.000 A 
ATOM     20  C   UNL     1       6.621   5.409  18.489  0.00  0.00    +0.000 A 
ENDBRANCH  14  15
BRANCH  14  21
ATOM     21  N   UNL     1       5.453   4.849  15.392  0.00  0.00    +0.000 N 
ATOM     22  C   UNL     1       5.031   5.074  14.104  0.00  0.00    +0.000 A 
ATOM     23  C   UNL     1       5.722   4.166  13.335  0.00  0.00    +0.000 A 
ATOM     24  N   UNL     1       6.556   3.409  14.115  0.00  0.00    +0.000 NA
ATOM     25  C   UNL     1       6.377   3.847  15.342  0.00  0.00    +0.000 A 
ENDBRANCH  14  21
ENDBRANCH   5  14
TORSDOF 4
ENDMDL
MODEL 6
REMARK VINA RESULT:      -7.1      3.152      6.530
REMARK  Name = 
REMARK  5 active torsions:
REMARK  status: ('A' for Active; 'I' for Inactive)
REMARK    1  A    between atoms: C_1  and  N_2
REMARK    2  A    between atoms: C_4  and  C_5
REMARK    3  A    between atoms: C_12  and  C_13
REMARK    4  A    between atoms: C_13  and  C_14
REMARK    5  A    between atoms: C_13  and  N_20
REMARK                            x       y       z     vdW  Elec       q    Type
REMARK                         _______ _______ _______ _____ _____    ______ ____
ROOT
ATOM      1  C   UNL     1       7.917   5.504  20.327  0.00  0.00    +0.000 C 
ATOM      2  N   UNL     1       7.041   5.417  19.181  0.00  0.00    +0.000 N 
ATOM      3  C   UNL     1       7.412   5.051  17.920  0.00  0.00    +0.000 A 
ATOM      4  C   UNL     1       6.295   5.066  17.098  0.00  0.00    +0.000 A 
ATOM      5  C   UNL     1       5.173   5.432  17.940  0.00  0.00    +0.000 A 
ATOM      6  C   UNL     1       5.701   5.672  19.206  0.00  0.00    +0.000 A 
ENDROOT
BRANCH   4   7
ATOM      7  C   UNL     1       6.382   4.713  15.672  0.00  0.00    +0.000 A 
ATOM      8  C   UNL     1       5.469   3.839  15.075  0.00  0.00    +0.000 A 
ATOM      9  C   UNL     1       5.535   3.519  13.716  0.00  0.00    +0.000 A 
ATOM     10  C   UNL     1       6.555   4.044  12.936  0.00  0.00    +0.000 A 
ATOM     11 CL   UNL     1       6.659   3.627  11.273  0.00  0.00    +0.000 Cl
ATOM     12  C   UNL     1       7.496   4.895  13.505  0.00  0.00    +0.000 A 
ATOM     13  C   UNL     1       7.403   5.237  14.862  0.00  0.00    +0.000 A 
ENDBRANCH   4   7
BRANCH   5  14
ATOM     14  C   UNL     1       3.706   5.534  17.553  0.00  0.00    +0.000 C 
BRANCH  14  15
ATOM     15  C   UNL     1       3.025   4.211  17.914  0.00  0.00    +0.000 A 
ATOM     16  C   UNL     1       1.630   4.058  18.034  0.00  0.00    +0.000 A 
ATOM     17  C   UNL     1       1.070   2.867  18.499  0.00  0.00    +0.000 A 
ATOM     18  C   UNL     1       1.890   1.795  18.833  0.00  0.00    +0.000 A 
ATOM     19  C   UNL     1       3.268   1.900  18.667  0.00  0.00    +0.000 A 
ATOM     20  C   UNL     1       3.830   3.090  18.195  0.00  0.00    +0.000 A 
ENDBRANCH  14  15
BRANCH  14  21
ATOM     21  N   UNL     1       3.044   6.718  18.114  0.00  0.00    +0.000 N 
ATOM     22  C   UNL     1       2.809   7.883  17.425  0.00  0.00    +0.000 A 
ATOM     23  C   UNL     1       2.169   8.709  18.320  0.00  0.00    +0.000 A 
ATOM     24  N   UNL     1       1.998   8.075  19.523  0.00  0.00    +0.000 NA
ATOM     25  C   UNL     1       2.526   6.881  19.365  0.00  0.00    +0.000 A 
ENDBRANCH  14  21
ENDBRANCH   5  14
TORSDOF 4
ENDMDL
MODEL 7
REMARK VINA RESULT:      -7.1      1.944      5.283
REMARK  Name = 
REMARK  5 active torsions:
REMARK  status: ('A' for Active; 'I' for Inactive)
REMARK    1  A    between atoms: C_1  and  N_2
REMARK    2  A    between atoms: C_4  and  C_5
REMARK    3  A    between atoms: C_12  and  C_13
REMARK    4  A    between atoms: C_13  and  C_14
REMARK    5  A    between atoms: C_13  and  N_20
REMARK                            x       y       z     vdW  Elec       q    Type
REMARK                         _______ _______ _______ _____ _____    ______ ____
ROOT
ATOM      1  C   UNL     1       6.034   3.788  13.571  0.00  0.00    +0.000 C 
ATOM      2  N   UNL     1       6.019   4.366  14.895  0.00  0.00    +0.000 N 
ATOM      3  C   UNL     1       6.828   5.373  15.335  0.00  0.00    +0.000 A 
ATOM      4  C   UNL     1       6.503   5.671  16.649  0.00  0.00    +0.000 A 
ATOM      5  C   UNL     1       5.397   4.803  17.005  0.00  0.00    +0.000 A 
ATOM      6  C   UNL     1       5.167   3.996  15.894  0.00  0.00    +0.000 A 
ENDROOT
BRANCH   4   7
ATOM      7  C   UNL     1       7.210   6.722  17.399  0.00  0.00    +0.000 A 
ATOM      8  C   UNL     1       7.237   8.048  16.955  0.00  0.00    +0.000 A 
ATOM      9  C   UNL     1       7.889   9.053  17.676  0.00  0.00    +0.000 A 
ATOM     10  C   UNL     1       8.566   8.732  18.843  0.00  0.00    +0.000 A 
ATOM     11 CL   UNL     1       9.395   9.959  19.714  0.00  0.00    +0.000 Cl
ATOM     12  C   UNL     1       8.581   7.418  19.297  0.00  0.00    +0.000 A 
ATOM     13  C   UNL     1       7.897   6.421  18.586  0.00  0.00    +0.000 A 
ENDBRANCH   4   7
BRANCH   5  14
ATOM     14  C   UNL     1       4.620   4.764  18.311  0.00  0.00    +0.000 C 
BRANCH  14  15
ATOM     15  C   UNL     1       3.812   6.060  18.424  0.00  0.00    +0.000 A 
ATOM     16  C   UNL     1       3.012   6.386  19.536  0.00  0.00    +0.000 A 
ATOM     17  C   UNL     1       2.188   7.514  19.529  0.00  0.00    +0.000 A 
ATOM     18  C   UNL     1       2.164   8.352  18.420  0.00  0.00    +0.000 A 
ATOM     19  C   UNL     1       2.990   8.084  17.331  0.00  0.00    +0.000 A 
ATOM     20  C   UNL     1       3.820   6.959  17.339  0.00  0.00    +0.000 A 
ENDBRANCH  14  15
BRANCH  14  21
ATOM     21  N   UNL     1       3.818   3.545  18.467  0.00  0.00    +0.000 N 
ATOM     22  C   UNL     1       2.600   3.328  17.869  0.00  0.00    +0.000 A 
ATOM     23  C   UNL     1       2.216   2.072  18.278  0.00  0.00    +0.000 A 
ATOM     24  N   UNL     1       3.169   1.518  19.094  0.00  0.00    +0.000 NA
ATOM     25  C   UNL     1       4.120   2.423  19.182  0.00  0.00    +0.000 A 
ENDBRANCH  14  21
ENDBRANCH   5  14
TORSDOF 4
ENDMDL
MODEL 8
REMARK VINA RESULT:      -7.1      4.786      8.547
REMARK  Name = 
REMARK  5 active torsions:
REMARK  status: ('A' for Active; 'I' for Inactive)
REMARK    1  A    between atoms: C_1  and  N_2
REMARK    2  A    between atoms: C_4  and  C_5
REMARK    3  A    between atoms: C_12  and  C_13
REMARK    4  A    between atoms: C_13  and  C_14
REMARK    5  A    between atoms: C_13  and  N_20
REMARK                            x       y       z     vdW  Elec       q    Type
REMARK                         _______ _______ _______ _____ _____    ______ ____
ROOT
ATOM      1  C   UNL     1      -0.268   9.630  23.469  0.00  0.00    +0.000 C 
ATOM      2  N   UNL     1       0.207   9.550  22.106  0.00  0.00    +0.000 N 
ATOM      3  C   UNL     1       0.977   8.551  21.588  0.00  0.00    +0.000 A 
ATOM      4  C   UNL     1       1.211   8.810  20.246  0.00  0.00    +0.000 A 
ATOM      5  C   UNL     1       0.499  10.035  19.936  0.00  0.00    +0.000 A 
ATOM      6  C   UNL     1      -0.071  10.463  21.132  0.00  0.00    +0.000 A 
ENDROOT
BRANCH   4   7
ATOM      7  C   UNL     1       2.016   7.903  19.414  0.00  0.00    +0.000 A 
ATOM      8  C   UNL     1       2.297   6.593  19.815  0.00  0.00    +0.000 A 
ATOM      9  C   UNL     1       3.044   5.721  19.016  0.00  0.00    +0.000 A 
ATOM     10  C   UNL     1       3.561   6.168  17.810  0.00  0.00    +0.000 A 
ATOM     11 CL   UNL     1       4.506   5.110  16.841  0.00  0.00    +0.000 Cl
ATOM     12  C   UNL     1       3.323   7.473  17.394  0.00  0.00    +0.000 A 
ATOM     13  C   UNL     1       2.545   8.332  18.185  0.00  0.00    +0.000 A 
ENDBRANCH   4   7
BRANCH   5  14
ATOM     14  C   UNL     1       0.373  10.730  18.590  0.00  0.00    +0.000 C 
BRANCH  14  15
ATOM     15  C   UNL     1      -1.113  10.796  18.225  0.00  0.00    +0.000 A 
ATOM     16  C   UNL     1      -2.021  11.700  18.812  0.00  0.00    +0.000 A 
ATOM     17  C   UNL     1      -3.389  11.626  18.544  0.00  0.00    +0.000 A 
ATOM     18  C   UNL     1      -3.878  10.663  17.668  0.00  0.00    +0.000 A 
ATOM     19  C   UNL     1      -2.994   9.797  17.030  0.00  0.00    +0.000 A 
ATOM     20  C   UNL     1      -1.623   9.873  17.292  0.00  0.00    +0.000 A 
ENDBRANCH  14  15
BRANCH  14  21
ATOM     21  N   UNL     1       1.056  12.028  18.546  0.00  0.00    +0.000 N 
ATOM     22  C   UNL     1       2.375  12.207  18.205  0.00  0.00    +0.000 A 
ATOM     23  C   UNL     1       2.588  13.563  18.288  0.00  0.00    +0.000 A 
ATOM     24  N   UNL     1       1.438  14.210  18.656  0.00  0.00    +0.000 NA
ATOM     25  C   UNL     1       0.535  13.264  18.796  0.00  0.00    +0.000 A 
ENDBRANCH  14  21
ENDBRANCH   5  14
TORSDOF 4
ENDMDL
MODEL 9
REMARK VINA RESULT:      -7.1      3.119      6.562
REMARK  Name = 
REMARK  5 active torsions:
REMARK  status: ('A' for Active; 'I' for Inactive)
REMARK    1  A    between atoms: C_1  and  N_2
REMARK    2  A    between atoms: C_4  and  C_5
REMARK    3  A    between atoms: C_12  and  C_13
REMARK    4  A    between atoms: C_13  and  C_14
REMARK    5  A    between atoms: C_13  and  N_20
REMARK                            x       y       z     vdW  Elec       q    Type
REMARK                         _______ _______ _______ _____ _____    ______ ____
ROOT
ATOM      1  C   UNL     1       8.065   5.636  20.160  0.00  0.00    +0.000 C 
ATOM      2  N   UNL     1       7.128   5.499  19.069  0.00  0.00    +0.000 N 
ATOM      3  C   UNL     1       7.434   5.100  17.800  0.00  0.00    +0.000 A 
ATOM      4  C   UNL     1       6.273   5.070  17.044  0.00  0.00    +0.000 A 
ATOM      5  C   UNL     1       5.193   5.444  17.936  0.00  0.00    +0.000 A 
ATOM      6  C   UNL     1       5.788   5.733  19.162  0.00  0.00    +0.000 A 
ENDROOT
BRANCH   4   7
ATOM      7  C   UNL     1       6.286   4.674  15.627  0.00  0.00    +0.000 A 
ATOM      8  C   UNL     1       7.314   5.065  14.764  0.00  0.00    +0.000 A 
ATOM      9  C   UNL     1       7.340   4.672  13.422  0.00  0.00    +0.000 A 
ATOM     10  C   UNL     1       6.302   3.909  12.910  0.00  0.00    +0.000 A 
ATOM     11 CL   UNL     1       6.315   3.453  11.254  0.00  0.00    +0.000 Cl
ATOM     12  C   UNL     1       5.250   3.526  13.734  0.00  0.00    +0.000 A 
ATOM     13  C   UNL     1       5.247   3.896  15.087  0.00  0.00    +0.000 A 
ENDBRANCH   4   7
BRANCH   5  14
ATOM     14  C   UNL     1       3.705   5.510  17.631  0.00  0.00    +0.000 C 
BRANCH  14  15
ATOM     15  C   UNL     1       3.081   4.164  18.011  0.00  0.00    +0.000 A 
ATOM     16  C   UNL     1       1.695   3.913  17.991  0.00  0.00    +0.000 A 
ATOM     17  C   UNL     1       1.170   2.715  18.479  0.00  0.00    +0.000 A 
ATOM     18  C   UNL     1       2.019   1.732  18.975  0.00  0.00    +0.000 A 
ATOM     19  C   UNL     1       3.397   1.931  18.951  0.00  0.00    +0.000 A 
ATOM     20  C   UNL     1       3.925   3.128  18.458  0.00  0.00    +0.000 A 
ENDBRANCH  14  15
BRANCH  14  21
ATOM     21  N   UNL     1       3.042   6.669  18.241  0.00  0.00    +0.000 N 
ATOM     22  C   UNL     1       2.503   6.686  19.504  0.00  0.00    +0.000 A 
ATOM     23  C   UNL     1       2.001   7.956  19.664  0.00  0.00    +0.000 A 
ATOM     24  N   UNL     1       2.230   8.710  18.543  0.00  0.00    +0.000 NA
ATOM     25  C   UNL     1       2.863   7.912  17.710  0.00  0.00    +0.000 A 
ENDBRANCH  14  21
ENDBRANCH   5  14
TORSDOF 4
ENDMDL
