MODEL 1
REMARK VINA RESULT:      -8.1      0.000      0.000
REMARK  Name = 
REMARK  5 active torsions:
REMARK  status: ('A' for Active; 'I' for Inactive)
REMARK    1  A    between atoms: C_2  and  C_4
REMARK    2  A    between atoms: C_7  and  C_8
REMARK    3  A    between atoms: C_10  and  C_11
REMARK    4  A    between atoms: C_14  and  N_15
REMARK    5  A    between atoms: C_21  and  C_22
REMARK                            x       y       z     vdW  Elec       q    Type
REMARK                         _______ _______ _______ _____ _____    ______ ____
ROOT
ATOM      1  C   UNL     1      -1.259  11.695  18.803  0.00  0.00    +0.000 A 
ATOM      2  C   UNL     1      -0.600  10.464  18.885  0.00  0.00    +0.000 A 
ATOM      3  C   UNL     1       0.791  10.396  18.850  0.00  0.00    +0.000 A 
ATOM      4  N   UNL     1       1.554  11.511  18.756  0.00  0.00    +0.000 NA
ATOM      5  C   UNL     1       0.937  12.723  18.677  0.00  0.00    +0.000 A 
ATOM      6  C   UNL     1      -0.455  12.834  18.697  0.00  0.00    +0.000 A 
ENDROOT
BRANCH   1  10
ATOM      7  C   UNL     1      -5.569  11.871  18.891  0.00  0.00    +0.000 A 
ATOM      8  C   UNL     1      -4.818  12.527  19.867  0.00  0.00    +0.000 A 
ATOM      9  C   UNL     1      -3.420  12.488  19.818  0.00  0.00    +0.000 A 
ATOM     10  C   UNL     1      -2.737  11.775  18.815  0.00  0.00    +0.000 A 
ATOM     11  C   UNL     1      -3.516  11.116  17.846  0.00  0.00    +0.000 A 
ATOM     12  C   UNL     1      -4.914  11.161  17.882  0.00  0.00    +0.000 A 
BRANCH   7  14
ATOM     13  N   UNL     1      -7.675  10.965  19.703  0.00  0.00    +0.000 N 
ATOM     14  C   UNL     1      -7.053  11.887  18.907  0.00  0.00    +0.000 C 
ATOM     15  O   UNL     1      -7.695  12.705  18.263  0.00  0.00    +0.000 OA
ATOM     16  H   UNL     1      -8.679  11.062  19.790  0.00  0.00    +0.000 HD
ATOM     17  H   UNL     1      -7.186  10.459  20.428  0.00  0.00    +0.000 HD
ENDBRANCH   7  14
ENDBRANCH   1  10
BRANCH   3  18
ATOM     18  C   UNL     1       1.520   9.110  18.910  0.00  0.00    +0.000 A 
ATOM     19  C   UNL     1       1.474   8.285  20.053  0.00  0.00    +0.000 A 
ATOM     20  C   UNL     1       2.168   7.072  20.113  0.00  0.00    +0.000 A 
ATOM     21  C   UNL     1       2.922   6.656  19.012  0.00  0.00    +0.000 A 
ATOM     22  C   UNL     1       2.983   7.445  17.860  0.00  0.00    +0.000 A 
ATOM     23  C   UNL     1       2.286   8.660  17.817  0.00  0.00    +0.000 A 
BRANCH  21  24
ATOM     24  N   UNL     1       3.639   5.376  19.068  0.00  0.00    +0.000 N 
ATOM     25  O   UNL     1       3.024   4.355  18.731  0.00  0.00    +0.000 OA
ATOM     26  O   UNL     1       4.818   5.395  19.454  0.00  0.00    +0.000 OA
ENDBRANCH  21  24
ENDBRANCH   3  18
BRANCH   5  27
ATOM     27  C   UNL     1       1.810  13.921  18.586  0.00  0.00    +0.000 A 
ATOM     28  C   UNL     1       1.333  15.213  18.812  0.00  0.00    +0.000 A 
ATOM     29  C   UNL     1       2.197  16.298  18.671  0.00  0.00    +0.000 A 
ATOM     30  C   UNL     1       3.520  16.075  18.315  0.00  0.00    +0.000 A 
ATOM     31  C   UNL     1       3.928  14.769  18.121  0.00  0.00    +0.000 A 
ATOM     32  N   UNL     1       3.112  13.699  18.248  0.00  0.00    +0.000 NA
ENDBRANCH   5  27
TORSDOF 5
ENDMDL
MODEL 2
REMARK VINA RESULT:      -8.0      0.185      1.060
REMARK  Name = 
REMARK  5 active torsions:
REMARK  status: ('A' for Active; 'I' for Inactive)
REMARK    1  A    between atoms: C_2  and  C_4
REMARK    2  A    between atoms: C_7  and  C_8
REMARK    3  A    between atoms: C_10  and  C_11
REMARK    4  A    between atoms: C_14  and  N_15
REMARK    5  A    between atoms: C_21  and  C_22
REMARK                            x       y       z     vdW  Elec       q    Type
REMARK                         _______ _______ _______ _____ _____    ______ ____
ROOT
ATOM      1  C   UNL     1      -1.355  11.805  18.817  0.00  0.00    +0.000 A 
ATOM      2  C   UNL     1      -0.690  10.576  18.879  0.00  0.00    +0.000 A 
ATOM      3  C   UNL     1       0.700  10.514  18.818  0.00  0.00    +0.000 A 
ATOM      4  N   UNL     1       1.457  11.633  18.717  0.00  0.00    +0.000 NA
ATOM      5  C   UNL     1       0.834  12.842  18.657  0.00  0.00    +0.000 A 
ATOM      6  C   UNL     1      -0.558  12.947  18.703  0.00  0.00    +0.000 A 
ENDROOT
BRANCH   1  10
ATOM      7  C   UNL     1      -5.664  11.959  18.979  0.00  0.00    +0.000 A 
ATOM      8  C   UNL     1      -4.901  12.526  20.001  0.00  0.00    +0.000 A 
ATOM      9  C   UNL     1      -3.504  12.496  19.929  0.00  0.00    +0.000 A 
ATOM     10  C   UNL     1      -2.833  11.879  18.856  0.00  0.00    +0.000 A 
ATOM     11  C   UNL     1      -3.625  11.308  17.842  0.00  0.00    +0.000 A 
ATOM     12  C   UNL     1      -5.022  11.345  17.901  0.00  0.00    +0.000 A 
BRANCH   7  14
ATOM     13  N   UNL     1      -7.754  11.056  19.835  0.00  0.00    +0.000 N 
ATOM     14  C   UNL     1      -7.148  11.969  19.016  0.00  0.00    +0.000 C 
ATOM     15  O   UNL     1      -7.803  12.775  18.371  0.00  0.00    +0.000 OA
ATOM     16  H   UNL     1      -8.757  11.150  19.936  0.00  0.00    +0.000 HD
ATOM     17  H   UNL     1      -7.252  10.562  20.560  0.00  0.00    +0.000 HD
ENDBRANCH   7  14
ENDBRANCH   1  10
BRANCH   3  18
ATOM     18  C   UNL     1       1.434   9.230  18.857  0.00  0.00    +0.000 A 
ATOM     19  C   UNL     1       2.164   8.758  17.746  0.00  0.00    +0.000 A 
ATOM     20  C   UNL     1       2.851   7.541  17.781  0.00  0.00    +0.000 A 
ATOM     21  C   UNL     1       2.828   6.771  18.946  0.00  0.00    +0.000 A 
ATOM     22  C   UNL     1       2.121   7.211  20.069  0.00  0.00    +0.000 A 
ATOM     23  C   UNL     1       1.433   8.431  20.018  0.00  0.00    +0.000 A 
BRANCH  21  24
ATOM     24  N   UNL     1       3.562   5.499  18.989  0.00  0.00    +0.000 N 
ATOM     25  O   UNL     1       4.639   5.476  19.601  0.00  0.00    +0.000 OA
ATOM     26  O   UNL     1       3.060   4.527  18.407  0.00  0.00    +0.000 OA
ENDBRANCH  21  24
ENDBRANCH   3  18
BRANCH   5  27
ATOM     27  C   UNL     1       1.700  14.044  18.557  0.00  0.00    +0.000 A 
ATOM     28  C   UNL     1       1.240  15.325  18.864  0.00  0.00    +0.000 A 
ATOM     29  C   UNL     1       2.095  16.417  18.710  0.00  0.00    +0.000 A 
ATOM     30  C   UNL     1       3.391  16.210  18.261  0.00  0.00    +0.000 A 
ATOM     31  C   UNL     1       3.785  14.913  17.990  0.00  0.00    +0.000 A 
ATOM     32  N   UNL     1       2.978  13.838  18.127  0.00  0.00    +0.000 NA
ENDBRANCH   5  27
TORSDOF 5
ENDMDL
MODEL 3
REMARK VINA RESULT:      -8.0      2.310      2.937
REMARK  Name = 
REMARK  5 active torsions:
REMARK  status: ('A' for Active; 'I' for Inactive)
REMARK    1  A    between atoms: C_2  and  C_4
REMARK    2  A    between atoms: C_7  and  C_8
REMARK    3  A    between atoms: C_10  and  C_11
REMARK    4  A    between atoms: C_14  and  N_15
REMARK    5  A    between atoms: C_21  and  C_22
REMARK                            x       y       z     vdW  Elec       q    Type
REMARK                         _______ _______ _______ _____ _____    ______ ____
ROOT
ATOM      1  C   UNL     1      -0.989  12.267  20.699  0.00  0.00    +0.000 A 
ATOM      2  C   UNL     1      -0.428  11.004  20.481  0.00  0.00    +0.000 A 
ATOM      3  C   UNL     1       0.728  10.860  19.717  0.00  0.00    +0.000 A 
ATOM      4  N   UNL     1       1.361  11.929  19.177  0.00  0.00    +0.000 NA
ATOM      5  C   UNL     1       0.836  13.170  19.376  0.00  0.00    +0.000 A 
ATOM      6  C   UNL     1      -0.328  13.357  20.125  0.00  0.00    +0.000 A 
ENDROOT
BRANCH   1  10
ATOM      7  C   UNL     1      -4.594  12.813  23.005  0.00  0.00    +0.000 A 
ATOM      8  C   UNL     1      -4.595  13.053  21.630  0.00  0.00    +0.000 A 
ATOM      9  C   UNL     1      -3.430  12.849  20.884  0.00  0.00    +0.000 A 
ATOM     10  C   UNL     1      -2.230  12.428  21.489  0.00  0.00    +0.000 A 
ATOM     11  C   UNL     1      -2.252  12.199  22.877  0.00  0.00    +0.000 A 
ATOM     12  C   UNL     1      -3.418  12.390  23.628  0.00  0.00    +0.000 A 
BRANCH   7  14
ATOM     13  N   UNL     1      -6.087  14.300  24.220  0.00  0.00    +0.000 N 
ATOM     14  C   UNL     1      -5.809  13.018  23.834  0.00  0.00    +0.000 C 
ATOM     15  O   UNL     1      -6.547  12.091  24.133  0.00  0.00    +0.000 OA
ATOM     16  H   UNL     1      -6.975  14.439  24.687  0.00  0.00    +0.000 HD
ATOM     17  H   UNL     1      -5.654  15.102  23.785  0.00  0.00    +0.000 HD
ENDBRANCH   7  14
ENDBRANCH   1  10
BRANCH   3  18
ATOM     18  C   UNL     1       1.334   9.538  19.447  0.00  0.00    +0.000 A 
ATOM     19  C   UNL     1       1.880   9.215  18.187  0.00  0.00    +0.000 A 
ATOM     20  C   UNL     1       2.446   7.962  17.930  0.00  0.00    +0.000 A 
ATOM     21  C   UNL     1       2.484   7.003  18.945  0.00  0.00    +0.000 A 
ATOM     22  C   UNL     1       1.959   7.292  20.208  0.00  0.00    +0.000 A 
ATOM     23  C   UNL     1       1.391   8.549  20.450  0.00  0.00    +0.000 A 
BRANCH  21  24
ATOM     24  N   UNL     1       3.092   5.693  18.681  0.00  0.00    +0.000 N 
ATOM     25  O   UNL     1       2.728   5.083  17.666  0.00  0.00    +0.000 OA
ATOM     26  O   UNL     1       3.931   5.274  19.492  0.00  0.00    +0.000 OA
ENDBRANCH  21  24
ENDBRANCH   3  18
BRANCH   5  27
ATOM     27  C   UNL     1       1.565  14.316  18.775  0.00  0.00    +0.000 A 
ATOM     28  C   UNL     1       2.795  14.165  18.133  0.00  0.00    +0.000 A 
ATOM     29  C   UNL     1       3.447  15.289  17.625  0.00  0.00    +0.000 A 
ATOM     30  C   UNL     1       2.858  16.539  17.762  0.00  0.00    +0.000 A 
ATOM     31  C   UNL     1       1.632  16.613  18.396  0.00  0.00    +0.000 A 
ATOM     32  N   UNL     1       0.980  15.541  18.899  0.00  0.00    +0.000 NA
ENDBRANCH   5  27
TORSDOF 5
ENDMDL
MODEL 4
REMARK VINA RESULT:      -8.0      2.332      2.758
REMARK  Name = 
REMARK  5 active torsions:
REMARK  status: ('A' for Active; 'I' for Inactive)
REMARK    1  A    between atoms: C_2  and  C_4
REMARK    2  A    between atoms: C_7  and  C_8
REMARK    3  A    between atoms: C_10  and  C_11
REMARK    4  A    between atoms: C_14  and  N_15
REMARK    5  A    between atoms: C_21  and  C_22
REMARK                            x       y       z     vdW  Elec       q    Type
REMARK                         _______ _______ _______ _____ _____    ______ ____
ROOT
ATOM      1  C   UNL     1      -0.977  12.374  20.733  0.00  0.00    +0.000 A 
ATOM      2  C   UNL     1      -0.432  11.105  20.510  0.00  0.00    +0.000 A 
ATOM      3  C   UNL     1       0.711  10.947  19.729  0.00  0.00    +0.000 A 
ATOM      4  N   UNL     1       1.345  12.008  19.176  0.00  0.00    +0.000 NA
ATOM      5  C   UNL     1       0.835  13.255  19.379  0.00  0.00    +0.000 A 
ATOM      6  C   UNL     1      -0.315  13.456  20.146  0.00  0.00    +0.000 A 
ENDROOT
BRANCH   1  10
ATOM      7  C   UNL     1      -4.570  12.809  23.081  0.00  0.00    +0.000 A 
ATOM      8  C   UNL     1      -3.392  12.352  23.676  0.00  0.00    +0.000 A 
ATOM      9  C   UNL     1      -2.224  12.238  22.914  0.00  0.00    +0.000 A 
ATOM     10  C   UNL     1      -2.204  12.549  21.541  0.00  0.00    +0.000 A 
ATOM     11  C   UNL     1      -3.406  13.002  20.964  0.00  0.00    +0.000 A 
ATOM     12  C   UNL     1      -4.575  13.129  21.722  0.00  0.00    +0.000 A 
BRANCH   7  14
ATOM     13  N   UNL     1      -6.219  14.210  24.191  0.00  0.00    +0.000 N 
ATOM     14  C   UNL     1      -5.831  12.944  23.853  0.00  0.00    +0.000 C 
ATOM     15  O   UNL     1      -6.511  11.972  24.148  0.00  0.00    +0.000 OA
ATOM     16  H   UNL     1      -7.134  14.294  24.617  0.00  0.00    +0.000 HD
ATOM     17  H   UNL     1      -5.828  15.032  23.752  0.00  0.00    +0.000 HD
ENDBRANCH   7  14
ENDBRANCH   1  10
BRANCH   3  18
ATOM     18  C   UNL     1       1.300   9.618  19.454  0.00  0.00    +0.000 A 
ATOM     19  C   UNL     1       1.368   8.618  20.446  0.00  0.00    +0.000 A 
ATOM     20  C   UNL     1       1.931   7.364  20.188  0.00  0.00    +0.000 A 
ATOM     21  C   UNL     1       2.434   7.084  18.915  0.00  0.00    +0.000 A 
ATOM     22  C   UNL     1       2.376   8.050  17.905  0.00  0.00    +0.000 A 
ATOM     23  C   UNL     1       1.812   9.303  18.180  0.00  0.00    +0.000 A 
BRANCH  21  24
ATOM     24  N   UNL     1       3.012   5.763  18.638  0.00  0.00    +0.000 N 
ATOM     25  O   UNL     1       2.433   5.041  17.815  0.00  0.00    +0.000 OA
ATOM     26  O   UNL     1       4.044   5.448  19.250  0.00  0.00    +0.000 OA
ENDBRANCH  21  24
ENDBRANCH   3  18
BRANCH   5  27
ATOM     27  C   UNL     1       1.567  14.392  18.764  0.00  0.00    +0.000 A 
ATOM     28  C   UNL     1       2.790  14.229  18.112  0.00  0.00    +0.000 A 
ATOM     29  C   UNL     1       3.444  15.345  17.590  0.00  0.00    +0.000 A 
ATOM     30  C   UNL     1       2.864  16.599  17.723  0.00  0.00    +0.000 A 
ATOM     31  C   UNL     1       1.644  16.685  18.367  0.00  0.00    +0.000 A 
ATOM     32  N   UNL     1       0.990  15.621  18.884  0.00  0.00    +0.000 NA
ENDBRANCH   5  27
TORSDOF 5
ENDMDL
MODEL 5
REMARK VINA RESULT:      -8.0      1.012      7.879
REMARK  Name = 
REMARK  5 active torsions:
REMARK  status: ('A' for Active; 'I' for Inactive)
REMARK    1  A    between atoms: C_2  and  C_4
REMARK    2  A    between atoms: C_7  and  C_8
REMARK    3  A    between atoms: C_10  and  C_11
REMARK    4  A    between atoms: C_14  and  N_15
REMARK    5  A    between atoms: C_21  and  C_22
REMARK                            x       y       z     vdW  Elec       q    Type
REMARK                         _______ _______ _______ _____ _____    ______ ____
ROOT
ATOM      1  C   UNL     1       0.800  10.351  18.817  0.00  0.00    +0.000 A 
ATOM      2  C   UNL     1      -0.598  10.395  18.823  0.00  0.00    +0.000 A 
ATOM      3  C   UNL     1      -1.273  11.612  18.754  0.00  0.00    +0.000 A 
ATOM      4  N   UNL     1      -0.608  12.788  18.659  0.00  0.00    +0.000 NA
ATOM      5  C   UNL     1       0.754  12.772  18.650  0.00  0.00    +0.000 A 
ATOM      6  C   UNL     1       1.469  11.575  18.729  0.00  0.00    +0.000 A 
ENDROOT
BRANCH   1  10
ATOM      7  C   UNL     1       2.858   6.567  19.066  0.00  0.00    +0.000 A 
ATOM      8  C   UNL     1       2.903   7.316  17.889  0.00  0.00    +0.000 A 
ATOM      9  C   UNL     1       2.256   8.555  17.824  0.00  0.00    +0.000 A 
ATOM     10  C   UNL     1       1.527   9.065  18.915  0.00  0.00    +0.000 A 
ATOM     11  C   UNL     1       1.490   8.288  20.087  0.00  0.00    +0.000 A 
ATOM     12  C   UNL     1       2.145   7.054  20.164  0.00  0.00    +0.000 A 
BRANCH   7  14
ATOM     13  N   UNL     1       4.883   5.256  19.374  0.00  0.00    +0.000 N 
ATOM     14  C   UNL     1       3.530   5.248  19.177  0.00  0.00    +0.000 C 
ATOM     15  O   UNL     1       2.903   4.200  19.126  0.00  0.00    +0.000 OA
ATOM     16  H   UNL     1       5.309   4.356  19.560  0.00  0.00    +0.000 HD
ATOM     17  H   UNL     1       5.381   6.083  19.673  0.00  0.00    +0.000 HD
ENDBRANCH   7  14
ENDBRANCH   1  10
BRANCH   3  18
ATOM     18  C   UNL     1      -2.749  11.696  18.781  0.00  0.00    +0.000 A 
ATOM     19  C   UNL     1      -3.549  11.007  17.846  0.00  0.00    +0.000 A 
ATOM     20  C   UNL     1      -4.945  11.092  17.867  0.00  0.00    +0.000 A 
ATOM     21  C   UNL     1      -5.571  11.872  18.842  0.00  0.00    +0.000 A 
ATOM     22  C   UNL     1      -4.810  12.564  19.789  0.00  0.00    +0.000 A 
ATOM     23  C   UNL     1      -3.412  12.472  19.753  0.00  0.00    +0.000 A 
BRANCH  21  24
ATOM     24  N   UNL     1      -7.037  11.951  18.875  0.00  0.00    +0.000 N 
ATOM     25  O   UNL     1      -7.592  12.706  18.064  0.00  0.00    +0.000 OA
ATOM     26  O   UNL     1      -7.632  11.260  19.715  0.00  0.00    +0.000 OA
ENDBRANCH  21  24
ENDBRANCH   3  18
BRANCH   5  27
ATOM     27  C   UNL     1       1.443  14.083  18.535  0.00  0.00    +0.000 A 
ATOM     28  C   UNL     1       2.775  14.194  18.133  0.00  0.00    +0.000 A 
ATOM     29  C   UNL     1       3.375  15.453  18.084  0.00  0.00    +0.000 A 
ATOM     30  C   UNL     1       2.635  16.574  18.430  0.00  0.00    +0.000 A 
ATOM     31  C   UNL     1       1.317  16.392  18.805  0.00  0.00    +0.000 A 
ATOM     32  N   UNL     1       0.712  15.185  18.864  0.00  0.00    +0.000 NA
ENDBRANCH   5  27
TORSDOF 5
ENDMDL
MODEL 6
REMARK VINA RESULT:      -8.0      1.016      7.826
REMARK  Name = 
REMARK  5 active torsions:
REMARK  status: ('A' for Active; 'I' for Inactive)
REMARK    1  A    between atoms: C_2  and  C_4
REMARK    2  A    between atoms: C_7  and  C_8
REMARK    3  A    between atoms: C_10  and  C_11
REMARK    4  A    between atoms: C_14  and  N_15
REMARK    5  A    between atoms: C_21  and  C_22
REMARK                            x       y       z     vdW  Elec       q    Type
REMARK                         _______ _______ _______ _____ _____    ______ ____
ROOT
ATOM      1  C   UNL     1       0.842  10.391  18.786  0.00  0.00    +0.000 A 
ATOM      2  C   UNL     1      -0.556  10.447  18.771  0.00  0.00    +0.000 A 
ATOM      3  C   UNL     1      -1.219  11.669  18.688  0.00  0.00    +0.000 A 
ATOM      4  N   UNL     1      -0.544  12.840  18.599  0.00  0.00    +0.000 NA
ATOM      5  C   UNL     1       0.818  12.812  18.611  0.00  0.00    +0.000 A 
ATOM      6  C   UNL     1       1.522  11.610  18.705  0.00  0.00    +0.000 A 
ENDROOT
BRANCH   1  10
ATOM      7  C   UNL     1       2.864   6.591  19.077  0.00  0.00    +0.000 A 
ATOM      8  C   UNL     1       2.945   7.343  17.904  0.00  0.00    +0.000 A 
ATOM      9  C   UNL     1       2.308   8.586  17.826  0.00  0.00    +0.000 A 
ATOM     10  C   UNL     1       1.556   9.099  18.899  0.00  0.00    +0.000 A 
ATOM     11  C   UNL     1       1.484   8.320  20.069  0.00  0.00    +0.000 A 
ATOM     12  C   UNL     1       2.127   7.080  20.158  0.00  0.00    +0.000 A 
BRANCH   7  14
ATOM     13  N   UNL     1       2.752   4.164  18.959  0.00  0.00    +0.000 N 
ATOM     14  C   UNL     1       3.523   5.267  19.202  0.00  0.00    +0.000 C 
ATOM     15  O   UNL     1       4.709   5.162  19.478  0.00  0.00    +0.000 OA
ATOM     16  H   UNL     1       3.241   3.278  18.937  0.00  0.00    +0.000 HD
ATOM     17  H   UNL     1       1.860   4.221  18.487  0.00  0.00    +0.000 HD
ENDBRANCH   7  14
ENDBRANCH   1  10
BRANCH   3  18
ATOM     18  C   UNL     1      -2.696  11.766  18.692  0.00  0.00    +0.000 A 
ATOM     19  C   UNL     1      -3.394  12.393  19.744  0.00  0.00    +0.000 A 
ATOM     20  C   UNL     1      -4.790  12.478  19.753  0.00  0.00    +0.000 A 
ATOM     21  C   UNL     1      -5.518  11.938  18.689  0.00  0.00    +0.000 A 
ATOM     22  C   UNL     1      -4.858  11.316  17.626  0.00  0.00    +0.000 A 
ATOM     23  C   UNL     1      -3.459  11.235  17.634  0.00  0.00    +0.000 A 
BRANCH  21  24
ATOM     24  N   UNL     1      -6.983  12.040  18.689  0.00  0.00    +0.000 N 
ATOM     25  O   UNL     1      -7.518  12.661  17.760  0.00  0.00    +0.000 OA
ATOM     26  O   UNL     1      -7.597  11.500  19.622  0.00  0.00    +0.000 OA
ENDBRANCH  21  24
ENDBRANCH   3  18
BRANCH   5  27
ATOM     27  C   UNL     1       1.520  14.116  18.502  0.00  0.00    +0.000 A 
ATOM     28  C   UNL     1       2.845  14.219  18.076  0.00  0.00    +0.000 A 
ATOM     29  C   UNL     1       3.458  15.471  18.035  0.00  0.00    +0.000 A 
ATOM     30  C   UNL     1       2.738  16.596  18.412  0.00  0.00    +0.000 A 
ATOM     31  C   UNL     1       1.425  16.423  18.809  0.00  0.00    +0.000 A 
ATOM     32  N   UNL     1       0.808  15.222  18.862  0.00  0.00    +0.000 NA
ENDBRANCH   5  27
TORSDOF 5
ENDMDL
MODEL 7
REMARK VINA RESULT:      -8.0      0.873      7.771
REMARK  Name = 
REMARK  5 active torsions:
REMARK  status: ('A' for Active; 'I' for Inactive)
REMARK    1  A    between atoms: C_2  and  C_4
REMARK    2  A    between atoms: C_7  and  C_8
REMARK    3  A    between atoms: C_10  and  C_11
REMARK    4  A    between atoms: C_14  and  N_15
REMARK    5  A    between atoms: C_21  and  C_22
REMARK                            x       y       z     vdW  Elec       q    Type
REMARK                         _______ _______ _______ _____ _____    ______ ____
ROOT
ATOM      1  C   UNL     1       0.834  10.357  18.772  0.00  0.00    +0.000 A 
ATOM      2  C   UNL     1      -0.562  10.433  18.737  0.00  0.00    +0.000 A 
ATOM      3  C   UNL     1      -1.207  11.665  18.650  0.00  0.00    +0.000 A 
ATOM      4  N   UNL     1      -0.514  12.826  18.577  0.00  0.00    +0.000 NA
ATOM      5  C   UNL     1       0.847  12.780  18.608  0.00  0.00    +0.000 A 
ATOM      6  C   UNL     1       1.532  11.567  18.706  0.00  0.00    +0.000 A 
ENDROOT
BRANCH   1  10
ATOM      7  C   UNL     1       2.914   6.597  19.151  0.00  0.00    +0.000 A 
ATOM      8  C   UNL     1       2.149   7.087  20.210  0.00  0.00    +0.000 A 
ATOM      9  C   UNL     1       1.456   8.294  20.071  0.00  0.00    +0.000 A 
ATOM     10  C   UNL     1       1.528   9.055  18.889  0.00  0.00    +0.000 A 
ATOM     11  C   UNL     1       2.311   8.543  17.838  0.00  0.00    +0.000 A 
ATOM     12  C   UNL     1       2.997   7.330  17.965  0.00  0.00    +0.000 A 
BRANCH   7  14
ATOM     13  N   UNL     1       2.946   4.165  19.135  0.00  0.00    +0.000 N 
ATOM     14  C   UNL     1       3.666   5.321  19.257  0.00  0.00    +0.000 C 
ATOM     15  O   UNL     1       4.878   5.299  19.414  0.00  0.00    +0.000 OA
ATOM     16  H   UNL     1       3.486   3.309  19.097  0.00  0.00    +0.000 HD
ATOM     17  H   UNL     1       2.010   4.148  18.755  0.00  0.00    +0.000 HD
ENDBRANCH   7  14
ENDBRANCH   1  10
BRANCH   3  18
ATOM     18  C   UNL     1      -2.682  11.783  18.633  0.00  0.00    +0.000 A 
ATOM     19  C   UNL     1      -3.391  12.365  19.704  0.00  0.00    +0.000 A 
ATOM     20  C   UNL     1      -4.786  12.470  19.692  0.00  0.00    +0.000 A 
ATOM     21  C   UNL     1      -5.501  11.996  18.590  0.00  0.00    +0.000 A 
ATOM     22  C   UNL     1      -4.830  11.420  17.507  0.00  0.00    +0.000 A 
ATOM     23  C   UNL     1      -3.433  11.318  17.536  0.00  0.00    +0.000 A 
BRANCH  21  24
ATOM     24  N   UNL     1      -6.965  12.119  18.569  0.00  0.00    +0.000 N 
ATOM     25  O   UNL     1      -7.480  12.711  17.611  0.00  0.00    +0.000 OA
ATOM     26  O   UNL     1      -7.596  11.625  19.515  0.00  0.00    +0.000 OA
ENDBRANCH  21  24
ENDBRANCH   3  18
BRANCH   5  27
ATOM     27  C   UNL     1       1.569  14.074  18.515  0.00  0.00    +0.000 A 
ATOM     28  C   UNL     1       0.982  15.286  18.883  0.00  0.00    +0.000 A 
ATOM     29  C   UNL     1       1.703  16.471  18.733  0.00  0.00    +0.000 A 
ATOM     30  C   UNL     1       2.994  16.425  18.227  0.00  0.00    +0.000 A 
ATOM     31  C   UNL     1       3.518  15.189  17.897  0.00  0.00    +0.000 A 
ATOM     32  N   UNL     1       2.842  14.026  18.029  0.00  0.00    +0.000 NA
ENDBRANCH   5  27
TORSDOF 5
ENDMDL
MODEL 8
REMARK VINA RESULT:      -8.0      0.855      7.795
REMARK  Name = 
REMARK  5 active torsions:
REMARK  status: ('A' for Active; 'I' for Inactive)
REMARK    1  A    between atoms: C_2  and  C_4
REMARK    2  A    between atoms: C_7  and  C_8
REMARK    3  A    between atoms: C_10  and  C_11
REMARK    4  A    between atoms: C_14  and  N_15
REMARK    5  A    between atoms: C_21  and  C_22
REMARK                            x       y       z     vdW  Elec       q    Type
REMARK                         _______ _______ _______ _____ _____    ______ ____
ROOT
ATOM      1  C   UNL     1       0.848  10.321  18.793  0.00  0.00    +0.000 A 
ATOM      2  C   UNL     1      -0.550  10.367  18.787  0.00  0.00    +0.000 A 
ATOM      3  C   UNL     1      -1.223  11.584  18.712  0.00  0.00    +0.000 A 
ATOM      4  N   UNL     1      -0.557  12.760  18.622  0.00  0.00    +0.000 NA
ATOM      5  C   UNL     1       0.805  12.743  18.623  0.00  0.00    +0.000 A 
ATOM      6  C   UNL     1       1.519  11.545  18.709  0.00  0.00    +0.000 A 
ENDROOT
BRANCH   1  10
ATOM      7  C   UNL     1       2.900   6.536  19.058  0.00  0.00    +0.000 A 
ATOM      8  C   UNL     1       2.985   7.301  17.894  0.00  0.00    +0.000 A 
ATOM      9  C   UNL     1       2.338   8.540  17.824  0.00  0.00    +0.000 A 
ATOM     10  C   UNL     1       1.572   9.034  18.897  0.00  0.00    +0.000 A 
ATOM     11  C   UNL     1       1.497   8.241  20.057  0.00  0.00    +0.000 A 
ATOM     12  C   UNL     1       2.151   7.007  20.138  0.00  0.00    +0.000 A 
BRANCH   7  14
ATOM     13  N   UNL     1       4.932   5.220  19.303  0.00  0.00    +0.000 N 
ATOM     14  C   UNL     1       3.570   5.216  19.173  0.00  0.00    +0.000 C 
ATOM     15  O   UNL     1       2.936   4.171  19.183  0.00  0.00    +0.000 OA
ATOM     16  H   UNL     1       5.361   4.323  19.493  0.00  0.00    +0.000 HD
ATOM     17  H   UNL     1       5.448   6.052  19.553  0.00  0.00    +0.000 HD
ENDBRANCH   7  14
ENDBRANCH   1  10
BRANCH   3  18
ATOM     18  C   UNL     1      -2.700  11.670  18.728  0.00  0.00    +0.000 A 
ATOM     19  C   UNL     1      -3.389  12.419  19.704  0.00  0.00    +0.000 A 
ATOM     20  C   UNL     1      -4.785  12.494  19.724  0.00  0.00    +0.000 A 
ATOM     21  C   UNL     1      -5.524  11.820  18.748  0.00  0.00    +0.000 A 
ATOM     22  C   UNL     1      -4.873  11.075  17.760  0.00  0.00    +0.000 A 
ATOM     23  C   UNL     1      -3.474  11.005  17.757  0.00  0.00    +0.000 A 
BRANCH  21  24
ATOM     24  N   UNL     1      -6.990  11.911  18.758  0.00  0.00    +0.000 N 
ATOM     25  O   UNL     1      -7.532  12.578  17.866  0.00  0.00    +0.000 OA
ATOM     26  O   UNL     1      -7.596  11.316  19.662  0.00  0.00    +0.000 OA
ENDBRANCH  21  24
ENDBRANCH   3  18
BRANCH   5  27
ATOM     27  C   UNL     1       1.497  14.052  18.513  0.00  0.00    +0.000 A 
ATOM     28  C   UNL     1       0.874  15.257  18.840  0.00  0.00    +0.000 A 
ATOM     29  C   UNL     1       1.567  16.456  18.675  0.00  0.00    +0.000 A 
ATOM     30  C   UNL     1       2.869  16.430  18.194  0.00  0.00    +0.000 A 
ATOM     31  C   UNL     1       3.429  15.200  17.903  0.00  0.00    +0.000 A 
ATOM     32  N   UNL     1       2.780  14.025  18.051  0.00  0.00    +0.000 NA
ENDBRANCH   5  27
TORSDOF 5
ENDMDL
MODEL 9
REMARK VINA RESULT:      -7.9      1.010      7.855
REMARK  Name = 
REMARK  5 active torsions:
REMARK  status: ('A' for Active; 'I' for Inactive)
REMARK    1  A    between atoms: C_2  and  C_4
REMARK    2  A    between atoms: C_7  and  C_8
REMARK    3  A    between atoms: C_10  and  C_11
REMARK    4  A    between atoms: C_14  and  N_15
REMARK    5  A    between atoms: C_21  and  C_22
REMARK                            x       y       z     vdW  Elec       q    Type
REMARK                         _______ _______ _______ _____ _____    ______ ____
ROOT
ATOM      1  C   UNL     1       0.828  10.288  18.806  0.00  0.00    +0.000 A 
ATOM      2  C   UNL     1      -0.569  10.361  18.783  0.00  0.00    +0.000 A 
ATOM      3  C   UNL     1      -1.216  11.592  18.691  0.00  0.00    +0.000 A 
ATOM      4  N   UNL     1      -0.525  12.753  18.601  0.00  0.00    +0.000 NA
ATOM      5  C   UNL     1       0.836  12.708  18.620  0.00  0.00    +0.000 A 
ATOM      6  C   UNL     1       1.524  11.497  18.723  0.00  0.00    +0.000 A 
ENDROOT
BRANCH   1  10
ATOM      7  C   UNL     1       2.916   6.533  19.200  0.00  0.00    +0.000 A 
ATOM      8  C   UNL     1       2.150   7.026  20.257  0.00  0.00    +0.000 A 
ATOM      9  C   UNL     1       1.454   8.231  20.114  0.00  0.00    +0.000 A 
ATOM     10  C   UNL     1       1.524   8.987  18.928  0.00  0.00    +0.000 A 
ATOM     11  C   UNL     1       2.309   8.473  17.879  0.00  0.00    +0.000 A 
ATOM     12  C   UNL     1       2.998   7.262  18.012  0.00  0.00    +0.000 A 
BRANCH   7  14
ATOM     13  N   UNL     1       2.948   4.132  19.589  0.00  0.00    +0.000 N 
ATOM     14  C   UNL     1       3.670   5.259  19.311  0.00  0.00    +0.000 C 
ATOM     15  O   UNL     1       4.879   5.209  19.132  0.00  0.00    +0.000 OA
ATOM     16  H   UNL     1       3.458   3.258  19.550  0.00  0.00    +0.000 HD
ATOM     17  H   UNL     1       1.943   4.096  19.488  0.00  0.00    +0.000 HD
ENDBRANCH   7  14
ENDBRANCH   1  10
BRANCH   3  18
ATOM     18  C   UNL     1      -2.691  11.708  18.687  0.00  0.00    +0.000 A 
ATOM     19  C   UNL     1      -3.478  11.130  17.669  0.00  0.00    +0.000 A 
ATOM     20  C   UNL     1      -4.872  11.246  17.661  0.00  0.00    +0.000 A 
ATOM     21  C   UNL     1      -5.509  11.942  18.691  0.00  0.00    +0.000 A 
ATOM     22  C   UNL     1      -4.761  12.521  19.720  0.00  0.00    +0.000 A 
ATOM     23  C   UNL     1      -3.366  12.401  19.712  0.00  0.00    +0.000 A 
BRANCH  21  24
ATOM     24  N   UNL     1      -6.974  12.052  18.692  0.00  0.00    +0.000 N 
ATOM     25  O   UNL     1      -7.592  11.503  19.614  0.00  0.00    +0.000 OA
ATOM     26  O   UNL     1      -7.503  12.686  17.767  0.00  0.00    +0.000 OA
ENDBRANCH  21  24
ENDBRANCH   3  18
BRANCH   5  27
ATOM     27  C   UNL     1       1.556  14.003  18.509  0.00  0.00    +0.000 A 
ATOM     28  C   UNL     1       2.895  14.083  18.125  0.00  0.00    +0.000 A 
ATOM     29  C   UNL     1       3.522  15.328  18.079  0.00  0.00    +0.000 A 
ATOM     30  C   UNL     1       2.803  16.467  18.411  0.00  0.00    +0.000 A 
ATOM     31  C   UNL     1       1.476  16.316  18.769  0.00  0.00    +0.000 A 
ATOM     32  N   UNL     1       0.844  15.122  18.824  0.00  0.00    +0.000 NA
ENDBRANCH   5  27
TORSDOF 5
ENDMDL
