MODEL 1
REMARK VINA RESULT:      -8.3      0.000      0.000
REMARK  Name = 
REMARK  8 active torsions:
REMARK  status: ('A' for Active; 'I' for Inactive)
REMARK    1  A    between atoms: C_5  and  C_6
REMARK    2  A    between atoms: N_13  and  C_14
REMARK    3  A    between atoms: C_14  and  C_15
REMARK    4  A    between atoms: C_15  and  C_16
REMARK    5  A    between atoms: C_16  and  C_17
REMARK    6  A    between atoms: C_17  and  C_18
REMARK    7  A    between atoms: C_18  and  N_19
REMARK    8  A    between atoms: C_20  and  C_21
REMARK                            x       y       z     vdW  Elec       q    Type
REMARK                         _______ _______ _______ _____ _____    ______ ____
ROOT
ATOM      1  C   UNL     1       8.389   8.874  17.579  0.00  0.00    +0.000 C 
ENDROOT
BRANCH   1   2
ATOM      2  C   UNL     1       7.738   7.514  17.868  0.00  0.00    +0.000 C 
BRANCH   2   3
ATOM      3  C   UNL     1       6.406   7.355  17.137  0.00  0.00    +0.000 C 
BRANCH   3   9
ATOM      4  N   UNL     1       7.608   5.293  15.166  0.00  0.00    +0.000 N 
ATOM      5  C   UNL     1       6.496   5.123  15.893  0.00  0.00    +0.000 A 
ATOM      6  N   UNL     1       5.804   4.013  15.868  0.00  0.00    +0.000 NA
ATOM      7  C   UNL     1       4.738   4.216  16.692  0.00  0.00    +0.000 A 
ATOM      8  C   UNL     1       4.743   5.483  17.251  0.00  0.00    +0.000 A 
ATOM      9  N   UNL     1       5.917   6.053  16.732  0.00  0.00    +0.000 N 
ATOM     10  H   UNL     1       7.971   4.445  14.736  0.00  0.00    +0.000 HD
ATOM     11  H   UNL     1       8.323   5.981  15.331  0.00  0.00    +0.000 HD
BRANCH   8  12
ATOM     12  C   UNL     1       3.775   6.067  18.207  0.00  0.00    +0.000 A 
ATOM     13  C   UNL     1       3.143   7.285  17.901  0.00  0.00    +0.000 A 
ATOM     14  C   UNL     1       2.241   7.884  18.794  0.00  0.00    +0.000 A 
ATOM     15  C   UNL     1       1.940   7.260  19.998  0.00  0.00    +0.000 A 
ATOM     16 CL   UNL     1       0.833   7.982  21.098  0.00  0.00    +0.000 Cl
ATOM     17  C   UNL     1       2.552   6.058  20.328  0.00  0.00    +0.000 A 
ATOM     18  C   UNL     1       3.485   5.490  19.451  0.00  0.00    +0.000 A 
ENDBRANCH   8  12
ENDBRANCH   3   9
ENDBRANCH   2   3
ENDBRANCH   1   2
BRANCH   1  19
ATOM     19  C   UNL     1       8.858   9.619  18.836  0.00  0.00    +0.000 C 
BRANCH  19  20
ATOM     20  C   UNL     1       9.083  11.103  18.559  0.00  0.00    +0.000 C 
BRANCH  20  21
ATOM     21  N   UNL     1      10.223  11.815  19.094  0.00  0.00    +0.000 N 
ATOM     22  C   UNL     1      10.170  12.570  20.280  0.00  0.00    +0.000 A 
ATOM     23  C   UNL     1      11.430  13.152  20.334  0.00  0.00    +0.000 A 
ATOM     24  N   UNL     1      12.200  12.809  19.259  0.00  0.00    +0.000 NA
ATOM     25  C   UNL     1      11.456  12.038  18.520  0.00  0.00    +0.000 A 
ATOM     26  N   UNL     1      11.858  11.559  17.328  0.00  0.00    +0.000 N 
ATOM     27  H   UNL     1      12.843  11.731  17.129  0.00  0.00    +0.000 HD
ATOM     28  H   UNL     1      11.551  10.677  16.961  0.00  0.00    +0.000 HD
BRANCH  22  29
ATOM     29  C   UNL     1       9.019  12.772  21.190  0.00  0.00    +0.000 A 
ATOM     30  C   UNL     1       8.204  13.912  21.155  0.00  0.00    +0.000 A 
ATOM     31  C   UNL     1       7.162  14.107  22.070  0.00  0.00    +0.000 A 
ATOM     32  C   UNL     1       6.868  13.119  22.999  0.00  0.00    +0.000 A 
ATOM     33 CL   UNL     1       5.564  13.345  24.098  0.00  0.00    +0.000 Cl
ATOM     34  C   UNL     1       7.615  11.948  23.024  0.00  0.00    +0.000 A 
ATOM     35  C   UNL     1       8.689  11.783  22.134  0.00  0.00    +0.000 A 
ENDBRANCH  22  29
ENDBRANCH  20  21
ENDBRANCH  19  20
ENDBRANCH   1  19
TORSDOF 8
ENDMDL
MODEL 2
REMARK VINA RESULT:      -8.3      5.791      9.738
REMARK  Name = 
REMARK  8 active torsions:
REMARK  status: ('A' for Active; 'I' for Inactive)
REMARK    1  A    between atoms: C_5  and  C_6
REMARK    2  A    between atoms: N_13  and  C_14
REMARK    3  A    between atoms: C_14  and  C_15
REMARK    4  A    between atoms: C_15  and  C_16
REMARK    5  A    between atoms: C_16  and  C_17
REMARK    6  A    between atoms: C_17  and  C_18
REMARK    7  A    between atoms: C_18  and  N_19
REMARK    8  A    between atoms: C_20  and  C_21
REMARK                            x       y       z     vdW  Elec       q    Type
REMARK                         _______ _______ _______ _____ _____    ______ ____
ROOT
ATOM      1  C   UNL     1       2.124   7.449  19.903  0.00  0.00    +0.000 C 
ENDROOT
BRANCH   1   2
ATOM      2  C   UNL     1       1.280   8.730  19.941  0.00  0.00    +0.000 C 
BRANCH   2   3
ATOM      3  C   UNL     1       1.466   9.494  21.251  0.00  0.00    +0.000 C 
BRANCH   3   9
ATOM      4  N   UNL     1      -0.905   9.097  23.200  0.00  0.00    +0.000 N 
ATOM      5  C   UNL     1      -0.542  10.257  22.636  0.00  0.00    +0.000 A 
ATOM      6  N   UNL     1      -1.155  11.383  22.893  0.00  0.00    +0.000 NA
ATOM      7  C   UNL     1      -0.544  12.327  22.124  0.00  0.00    +0.000 A 
ATOM      8  C   UNL     1       0.476  11.794  21.354  0.00  0.00    +0.000 A 
ATOM      9  N   UNL     1       0.475  10.439  21.723  0.00  0.00    +0.000 N 
ATOM     10  H   UNL     1      -1.567   9.184  23.969  0.00  0.00    +0.000 HD
ATOM     11  H   UNL     1      -0.336   8.270  23.269  0.00  0.00    +0.000 HD
BRANCH   8  12
ATOM     12  C   UNL     1       1.380  12.498  20.417  0.00  0.00    +0.000 A 
ATOM     13  C   UNL     1       2.282  13.459  20.908  0.00  0.00    +0.000 A 
ATOM     14  C   UNL     1       3.135  14.166  20.047  0.00  0.00    +0.000 A 
ATOM     15  C   UNL     1       3.115  13.906  18.683  0.00  0.00    +0.000 A 
ATOM     16 CL   UNL     1       4.159  14.764  17.620  0.00  0.00    +0.000 Cl
ATOM     17  C   UNL     1       2.232  12.965  18.170  0.00  0.00    +0.000 A 
ATOM     18  C   UNL     1       1.353  12.296  19.029  0.00  0.00    +0.000 A 
ENDBRANCH   8  12
ENDBRANCH   3   9
ENDBRANCH   2   3
ENDBRANCH   1   2
BRANCH   1  19
ATOM     19  C   UNL     1       1.521   6.282  20.697  0.00  0.00    +0.000 C 
BRANCH  19  20
ATOM     20  C   UNL     1       2.392   5.032  20.610  0.00  0.00    +0.000 C 
BRANCH  20  21
ATOM     21  N   UNL     1       2.299   4.113  19.497  0.00  0.00    +0.000 N 
ATOM     22  C   UNL     1       3.173   4.149  18.395  0.00  0.00    +0.000 A 
ATOM     23  C   UNL     1       2.643   3.185  17.547  0.00  0.00    +0.000 A 
ATOM     24  N   UNL     1       1.517   2.609  18.064  0.00  0.00    +0.000 NA
ATOM     25  C   UNL     1       1.313   3.193  19.209  0.00  0.00    +0.000 A 
ATOM     26  N   UNL     1       0.241   2.933  19.980  0.00  0.00    +0.000 N 
ATOM     27  H   UNL     1      -0.310   2.138  19.660  0.00  0.00    +0.000 HD
ATOM     28  H   UNL     1       0.260   2.996  20.983  0.00  0.00    +0.000 HD
BRANCH  22  29
ATOM     29  C   UNL     1       4.315   5.062  18.157  0.00  0.00    +0.000 A 
ATOM     30  C   UNL     1       4.281   6.104  17.220  0.00  0.00    +0.000 A 
ATOM     31  C   UNL     1       5.398   6.912  16.970  0.00  0.00    +0.000 A 
ATOM     32  C   UNL     1       6.555   6.735  17.714  0.00  0.00    +0.000 A 
ATOM     33 CL   UNL     1       7.913   7.752  17.430  0.00  0.00    +0.000 Cl
ATOM     34  C   UNL     1       6.605   5.753  18.695  0.00  0.00    +0.000 A 
ATOM     35  C   UNL     1       5.497   4.915  18.905  0.00  0.00    +0.000 A 
ENDBRANCH  22  29
ENDBRANCH  20  21
ENDBRANCH  19  20
ENDBRANCH   1  19
TORSDOF 8
ENDMDL
MODEL 3
REMARK VINA RESULT:      -8.3      0.809      8.380
REMARK  Name = 
REMARK  8 active torsions:
REMARK  status: ('A' for Active; 'I' for Inactive)
REMARK    1  A    between atoms: C_5  and  C_6
REMARK    2  A    between atoms: N_13  and  C_14
REMARK    3  A    between atoms: C_14  and  C_15
REMARK    4  A    between atoms: C_15  and  C_16
REMARK    5  A    between atoms: C_16  and  C_17
REMARK    6  A    between atoms: C_17  and  C_18
REMARK    7  A    between atoms: C_18  and  N_19
REMARK    8  A    between atoms: C_20  and  C_21
REMARK                            x       y       z     vdW  Elec       q    Type
REMARK                         _______ _______ _______ _____ _____    ______ ____
ROOT
ATOM      1  C   UNL     1       8.543   8.548  18.512  0.00  0.00    +0.000 C 
ENDROOT
BRANCH   1   2
ATOM      2  C   UNL     1       8.769  10.046  18.266  0.00  0.00    +0.000 C 
BRANCH   2   3
ATOM      3  C   UNL     1       9.802  10.630  19.227  0.00  0.00    +0.000 C 
BRANCH   3   9
ATOM      4  N   UNL     1      11.868  11.832  17.259  0.00  0.00    +0.000 N 
ATOM      5  C   UNL     1      11.161  12.519  18.167  0.00  0.00    +0.000 A 
ATOM      6  N   UNL     1      11.252  13.817  18.289  0.00  0.00    +0.000 NA
ATOM      7  C   UNL     1      10.429  14.156  19.320  0.00  0.00    +0.000 A 
ATOM      8  C   UNL     1       9.803  13.052  19.875  0.00  0.00    +0.000 A 
ATOM      9  N   UNL     1      10.281  11.991  19.088  0.00  0.00    +0.000 N 
ATOM     10  H   UNL     1      12.338  12.404  16.561  0.00  0.00    +0.000 HD
ATOM     11  H   UNL     1      11.659  10.906  16.925  0.00  0.00    +0.000 HD
BRANCH   8  12
ATOM     12  C   UNL     1       8.828  13.013  20.987  0.00  0.00    +0.000 A 
ATOM     13  C   UNL     1       7.851  14.019  21.093  0.00  0.00    +0.000 A 
ATOM     14  C   UNL     1       6.927  14.032  22.149  0.00  0.00    +0.000 A 
ATOM     15  C   UNL     1       6.951  13.024  23.104  0.00  0.00    +0.000 A 
ATOM     16 CL   UNL     1       5.821  13.028  24.399  0.00  0.00    +0.000 Cl
ATOM     17  C   UNL     1       7.908  12.020  23.027  0.00  0.00    +0.000 A 
ATOM     18  C   UNL     1       8.854  12.039  21.996  0.00  0.00    +0.000 A 
ENDBRANCH   8  12
ENDBRANCH   3   9
ENDBRANCH   2   3
ENDBRANCH   1   2
BRANCH   1  19
ATOM     19  C   UNL     1       7.620   7.880  17.483  0.00  0.00    +0.000 C 
BRANCH  19  20
ATOM     20  C   UNL     1       6.791   6.763  18.112  0.00  0.00    +0.000 C 
BRANCH  20  21
ATOM     21  N   UNL     1       6.078   5.797  17.307  0.00  0.00    +0.000 N 
ATOM     22  C   UNL     1       4.674   5.697  17.291  0.00  0.00    +0.000 A 
ATOM     23  C   UNL     1       4.451   4.585  16.489  0.00  0.00    +0.000 A 
ATOM     24  N   UNL     1       5.619   4.021  16.057  0.00  0.00    +0.000 NA
ATOM     25  C   UNL     1       6.573   4.739  16.575  0.00  0.00    +0.000 A 
ATOM     26  N   UNL     1       7.876   4.437  16.427  0.00  0.00    +0.000 N 
ATOM     27  H   UNL     1       8.050   3.692  15.754  0.00  0.00    +0.000 HD
ATOM     28  H   UNL     1       8.600   5.133  16.410  0.00  0.00    +0.000 HD
BRANCH  22  29
ATOM     29  C   UNL     1       3.686   6.515  18.031  0.00  0.00    +0.000 A 
ATOM     30  C   UNL     1       3.188   7.735  17.551  0.00  0.00    +0.000 A 
ATOM     31  C   UNL     1       2.303   8.521  18.301  0.00  0.00    +0.000 A 
ATOM     32  C   UNL     1       1.840   8.058  19.524  0.00  0.00    +0.000 A 
ATOM     33 CL   UNL     1       0.725   9.009  20.425  0.00  0.00    +0.000 Cl
ATOM     34  C   UNL     1       2.263   6.826  20.004  0.00  0.00    +0.000 A 
ATOM     35  C   UNL     1       3.189   6.067  19.267  0.00  0.00    +0.000 A 
ENDBRANCH  22  29
ENDBRANCH  20  21
ENDBRANCH  19  20
ENDBRANCH   1  19
TORSDOF 8
ENDMDL
MODEL 4
REMARK VINA RESULT:      -8.2      6.694      9.534
REMARK  Name = 
REMARK  8 active torsions:
REMARK  status: ('A' for Active; 'I' for Inactive)
REMARK    1  A    between atoms: C_5  and  C_6
REMARK    2  A    between atoms: N_13  and  C_14
REMARK    3  A    between atoms: C_14  and  C_15
REMARK    4  A    between atoms: C_15  and  C_16
REMARK    5  A    between atoms: C_16  and  C_17
REMARK    6  A    between atoms: C_17  and  C_18
REMARK    7  A    between atoms: C_18  and  N_19
REMARK    8  A    between atoms: C_20  and  C_21
REMARK                            x       y       z     vdW  Elec       q    Type
REMARK                         _______ _______ _______ _____ _____    ______ ____
ROOT
ATOM      1  C   UNL     1       2.911   8.057  17.900  0.00  0.00    +0.000 C 
ENDROOT
BRANCH   1   2
ATOM      2  C   UNL     1       1.805   9.048  18.286  0.00  0.00    +0.000 C 
BRANCH   2   3
ATOM      3  C   UNL     1       1.018   8.573  19.506  0.00  0.00    +0.000 C 
BRANCH   3   9
ATOM      4  N   UNL     1       1.853   9.056  22.448  0.00  0.00    +0.000 N 
ATOM      5  C   UNL     1       0.924   9.749  21.775  0.00  0.00    +0.000 A 
ATOM      6  N   UNL     1       0.283  10.758  22.304  0.00  0.00    +0.000 NA
ATOM      7  C   UNL     1      -0.594  11.186  21.353  0.00  0.00    +0.000 A 
ATOM      8  C   UNL     1      -0.517  10.432  20.194  0.00  0.00    +0.000 A 
ATOM      9  N   UNL     1       0.501   9.509  20.484  0.00  0.00    +0.000 N 
ATOM     10  H   UNL     1       2.148   9.478  23.326  0.00  0.00    +0.000 HD
ATOM     11  H   UNL     1       2.561   8.469  22.042  0.00  0.00    +0.000 HD
BRANCH   8  12
ATOM     12  C   UNL     1      -1.284  10.600  18.939  0.00  0.00    +0.000 A 
ATOM     13  C   UNL     1      -2.177   9.594  18.528  0.00  0.00    +0.000 A 
ATOM     14  C   UNL     1      -2.900   9.704  17.331  0.00  0.00    +0.000 A 
ATOM     15  C   UNL     1      -2.759  10.834  16.536  0.00  0.00    +0.000 A 
ATOM     16 CL   UNL     1      -3.642  10.982  15.069  0.00  0.00    +0.000 Cl
ATOM     17  C   UNL     1      -1.880  11.842  16.915  0.00  0.00    +0.000 A 
ATOM     18  C   UNL     1      -1.129  11.704  18.088  0.00  0.00    +0.000 A 
ENDBRANCH   8  12
ENDBRANCH   3   9
ENDBRANCH   2   3
ENDBRANCH   1   2
BRANCH   1  19
ATOM     19  C   UNL     1       2.590   6.597  18.248  0.00  0.00    +0.000 C 
BRANCH  19  20
ATOM     20  C   UNL     1       3.540   6.049  19.309  0.00  0.00    +0.000 C 
BRANCH  20  21
ATOM     21  N   UNL     1       3.659   4.631  19.567  0.00  0.00    +0.000 N 
ATOM     22  C   UNL     1       4.413   3.763  18.755  0.00  0.00    +0.000 A 
ATOM     23  C   UNL     1       4.146   2.515  19.304  0.00  0.00    +0.000 A 
ATOM     24  N   UNL     1       3.279   2.592  20.357  0.00  0.00    +0.000 NA
ATOM     25  C   UNL     1       2.980   3.853  20.480  0.00  0.00    +0.000 A 
ATOM     26  N   UNL     1       2.084   4.307  21.375  0.00  0.00    +0.000 N 
ATOM     27  H   UNL     1       1.778   3.600  22.043  0.00  0.00    +0.000 HD
ATOM     28  H   UNL     1       2.144   5.217  21.796  0.00  0.00    +0.000 HD
BRANCH  22  29
ATOM     29  C   UNL     1       5.212   4.092  17.552  0.00  0.00    +0.000 A 
ATOM     30  C   UNL     1       6.563   4.462  17.607  0.00  0.00    +0.000 A 
ATOM     31  C   UNL     1       7.277   4.831  16.460  0.00  0.00    +0.000 A 
ATOM     32  C   UNL     1       6.665   4.763  15.217  0.00  0.00    +0.000 A 
ATOM     33 CL   UNL     1       7.556   5.181  13.806  0.00  0.00    +0.000 Cl
ATOM     34  C   UNL     1       5.346   4.340  15.117  0.00  0.00    +0.000 A 
ATOM     35  C   UNL     1       4.622   4.019  16.278  0.00  0.00    +0.000 A 
ENDBRANCH  22  29
ENDBRANCH  20  21
ENDBRANCH  19  20
ENDBRANCH   1  19
TORSDOF 8
ENDMDL
MODEL 5
REMARK VINA RESULT:      -8.1      0.159      8.422
REMARK  Name = 
REMARK  8 active torsions:
REMARK  status: ('A' for Active; 'I' for Inactive)
REMARK    1  A    between atoms: C_5  and  C_6
REMARK    2  A    between atoms: N_13  and  C_14
REMARK    3  A    between atoms: C_14  and  C_15
REMARK    4  A    between atoms: C_15  and  C_16
REMARK    5  A    between atoms: C_16  and  C_17
REMARK    6  A    between atoms: C_17  and  C_18
REMARK    7  A    between atoms: C_18  and  N_19
REMARK    8  A    between atoms: C_20  and  C_21
REMARK                            x       y       z     vdW  Elec       q    Type
REMARK                         _______ _______ _______ _____ _____    ______ ____
ROOT
ATOM      1  C   UNL     1       8.426   8.796  17.619  0.00  0.00    +0.000 C 
ENDROOT
BRANCH   1   2
ATOM      2  C   UNL     1       8.869   9.589  18.856  0.00  0.00    +0.000 C 
BRANCH   2   3
ATOM      3  C   UNL     1       9.012  11.080  18.555  0.00  0.00    +0.000 C 
BRANCH   3   9
ATOM      4  N   UNL     1      11.823  11.482  17.321  0.00  0.00    +0.000 N 
ATOM      5  C   UNL     1      11.372  12.057  18.445  0.00  0.00    +0.000 A 
ATOM      6  N   UNL     1      12.090  12.904  19.135  0.00  0.00    +0.000 NA
ATOM      7  C   UNL     1      11.332  13.247  20.214  0.00  0.00    +0.000 A 
ATOM      8  C   UNL     1      10.107  12.602  20.219  0.00  0.00    +0.000 A 
ATOM      9  N   UNL     1      10.145  11.843  19.037  0.00  0.00    +0.000 N 
ATOM     10  H   UNL     1      12.682  11.884  16.951  0.00  0.00    +0.000 HD
ATOM     11  H   UNL     1      11.257  11.053  16.610  0.00  0.00    +0.000 HD
BRANCH   8  12
ATOM     12  C   UNL     1       9.008  12.729  21.201  0.00  0.00    +0.000 A 
ATOM     13  C   UNL     1       8.789  11.703  22.139  0.00  0.00    +0.000 A 
ATOM     14  C   UNL     1       7.740  11.775  23.068  0.00  0.00    +0.000 A 
ATOM     15  C   UNL     1       6.907  12.885  23.089  0.00  0.00    +0.000 A 
ATOM     16 CL   UNL     1       5.621  12.986  24.225  0.00  0.00    +0.000 Cl
ATOM     17  C   UNL     1       7.096  13.911  22.172  0.00  0.00    +0.000 A 
ATOM     18  C   UNL     1       8.117  13.812  21.219  0.00  0.00    +0.000 A 
ENDBRANCH   8  12
ENDBRANCH   3   9
ENDBRANCH   2   3
ENDBRANCH   1   2
BRANCH   1  19
ATOM     19  C   UNL     1       7.613   7.536  17.945  0.00  0.00    +0.000 C 
BRANCH  19  20
ATOM     20  C   UNL     1       6.379   7.416  17.055  0.00  0.00    +0.000 C 
BRANCH  20  21
ATOM     21  N   UNL     1       5.843   6.132  16.663  0.00  0.00    +0.000 N 
ATOM     22  C   UNL     1       4.650   5.602  17.191  0.00  0.00    +0.000 A 
ATOM     23  C   UNL     1       4.597   4.335  16.626  0.00  0.00    +0.000 A 
ATOM     24  N   UNL     1       5.678   4.081  15.829  0.00  0.00    +0.000 NA
ATOM     25  C   UNL     1       6.419   5.149  15.886  0.00  0.00    +0.000 A 
ATOM     26  N   UNL     1       7.616   5.241  15.278  0.00  0.00    +0.000 N 
ATOM     27  H   UNL     1       7.817   4.462  14.651  0.00  0.00    +0.000 HD
ATOM     28  H   UNL     1       7.989   6.106  14.930  0.00  0.00    +0.000 HD
BRANCH  22  29
ATOM     29  C   UNL     1       3.735   6.211  18.183  0.00  0.00    +0.000 A 
ATOM     30  C   UNL     1       3.464   5.635  19.432  0.00  0.00    +0.000 A 
ATOM     31  C   UNL     1       2.544   6.200  20.325  0.00  0.00    +0.000 A 
ATOM     32  C   UNL     1       1.928   7.402  20.009  0.00  0.00    +0.000 A 
ATOM     33 CL   UNL     1       0.826   8.111  21.123  0.00  0.00    +0.000 Cl
ATOM     34  C   UNL     1       2.218   8.034  18.807  0.00  0.00    +0.000 A 
ATOM     35  C   UNL     1       3.105   7.436  17.896  0.00  0.00    +0.000 A 
ENDBRANCH  22  29
ENDBRANCH  20  21
ENDBRANCH  19  20
ENDBRANCH   1  19
TORSDOF 8
ENDMDL
MODEL 6
REMARK VINA RESULT:      -8.1      6.385      9.703
REMARK  Name = 
REMARK  8 active torsions:
REMARK  status: ('A' for Active; 'I' for Inactive)
REMARK    1  A    between atoms: C_5  and  C_6
REMARK    2  A    between atoms: N_13  and  C_14
REMARK    3  A    between atoms: C_14  and  C_15
REMARK    4  A    between atoms: C_15  and  C_16
REMARK    5  A    between atoms: C_16  and  C_17
REMARK    6  A    between atoms: C_17  and  C_18
REMARK    7  A    between atoms: C_18  and  N_19
REMARK    8  A    between atoms: C_20  and  C_21
REMARK                            x       y       z     vdW  Elec       q    Type
REMARK                         _______ _______ _______ _____ _____    ______ ____
ROOT
ATOM      1  C   UNL     1       2.112   7.202  19.779  0.00  0.00    +0.000 C 
ENDROOT
BRANCH   1   2
ATOM      2  C   UNL     1       1.690   8.591  20.278  0.00  0.00    +0.000 C 
BRANCH   2   3
ATOM      3  C   UNL     1       0.253   8.596  20.796  0.00  0.00    +0.000 C 
BRANCH   3   9
ATOM      4  N   UNL     1       0.530   9.471  23.752  0.00  0.00    +0.000 N 
ATOM      5  C   UNL     1      -0.117  10.148  22.794  0.00  0.00    +0.000 A 
ATOM      6  N   UNL     1      -0.684  11.306  23.014  0.00  0.00    +0.000 NA
ATOM      7  C   UNL     1      -1.265  11.669  21.836  0.00  0.00    +0.000 A 
ATOM      8  C   UNL     1      -1.073  10.723  20.844  0.00  0.00    +0.000 A 
ATOM      9  N   UNL     1      -0.298   9.744  21.487  0.00  0.00    +0.000 N 
ATOM     10  H   UNL     1       0.701   9.999  24.606  0.00  0.00    +0.000 HD
ATOM     11  H   UNL     1       1.203   8.739  23.606  0.00  0.00    +0.000 HD
BRANCH   8  12
ATOM     12  C   UNL     1      -1.527  10.766  19.436  0.00  0.00    +0.000 A 
ATOM     13  C   UNL     1      -2.552  11.652  19.061  0.00  0.00    +0.000 A 
ATOM     14  C   UNL     1      -3.029  11.702  17.743  0.00  0.00    +0.000 A 
ATOM     15  C   UNL     1      -2.470  10.881  16.771  0.00  0.00    +0.000 A 
ATOM     16 CL   UNL     1      -3.043  10.937  15.152  0.00  0.00    +0.000 Cl
ATOM     17  C   UNL     1      -1.459   9.993  17.114  0.00  0.00    +0.000 A 
ATOM     18  C   UNL     1      -1.020   9.917  18.441  0.00  0.00    +0.000 A 
ENDBRANCH   8  12
ENDBRANCH   3   9
ENDBRANCH   2   3
ENDBRANCH   1   2
BRANCH   1  19
ATOM     19  C   UNL     1       1.631   6.048  20.668  0.00  0.00    +0.000 C 
BRANCH  19  20
ATOM     20  C   UNL     1       2.522   4.817  20.524  0.00  0.00    +0.000 C 
BRANCH  20  21
ATOM     21  N   UNL     1       2.425   3.936  19.381  0.00  0.00    +0.000 N 
ATOM     22  C   UNL     1       3.306   3.999  18.285  0.00  0.00    +0.000 A 
ATOM     23  C   UNL     1       2.771   3.069  17.403  0.00  0.00    +0.000 A 
ATOM     24  N   UNL     1       1.637   2.488  17.895  0.00  0.00    +0.000 NA
ATOM     25  C   UNL     1       1.433   3.035  19.058  0.00  0.00    +0.000 A 
ATOM     26  N   UNL     1       0.354   2.762  19.815  0.00  0.00    +0.000 N 
ATOM     27  H   UNL     1      -0.204   1.983  19.467  0.00  0.00    +0.000 HD
ATOM     28  H   UNL     1       0.368   2.792  20.819  0.00  0.00    +0.000 HD
BRANCH  22  29
ATOM     29  C   UNL     1       4.458   4.908  18.083  0.00  0.00    +0.000 A 
ATOM     30  C   UNL     1       5.675   4.765  18.764  0.00  0.00    +0.000 A 
ATOM     31  C   UNL     1       6.726   5.677  18.602  0.00  0.00    +0.000 A 
ATOM     32  C   UNL     1       6.602   6.716  17.691  0.00  0.00    +0.000 A 
ATOM     33 CL   UNL     1       7.907   7.813  17.468  0.00  0.00    +0.000 Cl
ATOM     34  C   UNL     1       5.433   6.853  16.953  0.00  0.00    +0.000 A 
ATOM     35  C   UNL     1       4.366   5.962  17.157  0.00  0.00    +0.000 A 
ENDBRANCH  22  29
ENDBRANCH  20  21
ENDBRANCH  19  20
ENDBRANCH   1  19
TORSDOF 8
ENDMDL
MODEL 7
REMARK VINA RESULT:      -8.1      5.926      8.064
REMARK  Name = 
REMARK  8 active torsions:
REMARK  status: ('A' for Active; 'I' for Inactive)
REMARK    1  A    between atoms: C_5  and  C_6
REMARK    2  A    between atoms: N_13  and  C_14
REMARK    3  A    between atoms: C_14  and  C_15
REMARK    4  A    between atoms: C_15  and  C_16
REMARK    5  A    between atoms: C_16  and  C_17
REMARK    6  A    between atoms: C_17  and  C_18
REMARK    7  A    between atoms: C_18  and  N_19
REMARK    8  A    between atoms: C_20  and  C_21
REMARK                            x       y       z     vdW  Elec       q    Type
REMARK                         _______ _______ _______ _____ _____    ______ ____
ROOT
ATOM      1  C   UNL     1       1.894   7.866  20.629  0.00  0.00    +0.000 C 
ENDROOT
BRANCH   1   2
ATOM      2  C   UNL     1       1.436   6.458  20.222  0.00  0.00    +0.000 C 
BRANCH   2   3
ATOM      3  C   UNL     1       2.410   5.383  20.701  0.00  0.00    +0.000 C 
BRANCH   3   9
ATOM      4  N   UNL     1       0.835   2.722  20.848  0.00  0.00    +0.000 N 
ATOM      5  C   UNL     1       1.843   2.989  20.007  0.00  0.00    +0.000 A 
ATOM      6  N   UNL     1       2.251   2.131  19.108  0.00  0.00    +0.000 NA
ATOM      7  C   UNL     1       3.299   2.724  18.471  0.00  0.00    +0.000 A 
ATOM      8  C   UNL     1       3.574   3.985  18.977  0.00  0.00    +0.000 A 
ATOM      9  N   UNL     1       2.592   4.147  19.968  0.00  0.00    +0.000 N 
ATOM     10  H   UNL     1       0.298   1.888  20.621  0.00  0.00    +0.000 HD
ATOM     11  H   UNL     1       0.298   3.402  21.360  0.00  0.00    +0.000 HD
BRANCH   8  12
ATOM     12  C   UNL     1       4.612   4.943  18.538  0.00  0.00    +0.000 A 
ATOM     13  C   UNL     1       5.879   4.925  19.147  0.00  0.00    +0.000 A 
ATOM     14  C   UNL     1       6.880   5.836  18.776  0.00  0.00    +0.000 A 
ATOM     15  C   UNL     1       6.636   6.765  17.773  0.00  0.00    +0.000 A 
ATOM     16 CL   UNL     1       7.856   7.883  17.309  0.00  0.00    +0.000 Cl
ATOM     17  C   UNL     1       5.392   6.808  17.157  0.00  0.00    +0.000 A 
ATOM     18  C   UNL     1       4.384   5.926  17.564  0.00  0.00    +0.000 A 
ENDBRANCH   8  12
ENDBRANCH   3   9
ENDBRANCH   2   3
ENDBRANCH   1   2
BRANCH   1  19
ATOM     19  C   UNL     1       0.767   8.755  21.173  0.00  0.00    +0.000 C 
BRANCH  19  20
ATOM     20  C   UNL     1       0.072   9.528  20.055  0.00  0.00    +0.000 C 
BRANCH  20  21
ATOM     21  N   UNL     1       0.505  10.849  19.658  0.00  0.00    +0.000 N 
ATOM     22  C   UNL     1      -0.059  12.031  20.175  0.00  0.00    +0.000 A 
ATOM     23  C   UNL     1       0.572  13.024  19.437  0.00  0.00    +0.000 A 
ATOM     24  N   UNL     1       1.442  12.507  18.519  0.00  0.00    +0.000 NA
ATOM     25  C   UNL     1       1.367  11.215  18.647  0.00  0.00    +0.000 A 
ATOM     26  N   UNL     1       2.036  10.362  17.849  0.00  0.00    +0.000 N 
ATOM     27  H   UNL     1       2.716  10.818  17.241  0.00  0.00    +0.000 HD
ATOM     28  H   UNL     1       2.356   9.461  18.156  0.00  0.00    +0.000 HD
BRANCH  22  29
ATOM     29  C   UNL     1      -1.134  12.171  21.184  0.00  0.00    +0.000 A 
ATOM     30  C   UNL     1      -0.977  11.801  22.527  0.00  0.00    +0.000 A 
ATOM     31  C   UNL     1      -2.031  11.884  23.446  0.00  0.00    +0.000 A 
ATOM     32  C   UNL     1      -3.250  12.413  23.050  0.00  0.00    +0.000 A 
ATOM     33 CL   UNL     1      -4.531  12.546  24.190  0.00  0.00    +0.000 Cl
ATOM     34  C   UNL     1      -3.424  12.847  21.742  0.00  0.00    +0.000 A 
ATOM     35  C   UNL     1      -2.377  12.715  20.814  0.00  0.00    +0.000 A 
ENDBRANCH  22  29
ENDBRANCH  20  21
ENDBRANCH  19  20
ENDBRANCH   1  19
TORSDOF 8
ENDMDL
MODEL 8
REMARK VINA RESULT:      -8.1      1.217      1.478
REMARK  Name = 
REMARK  8 active torsions:
REMARK  status: ('A' for Active; 'I' for Inactive)
REMARK    1  A    between atoms: C_5  and  C_6
REMARK    2  A    between atoms: N_13  and  C_14
REMARK    3  A    between atoms: C_14  and  C_15
REMARK    4  A    between atoms: C_15  and  C_16
REMARK    5  A    between atoms: C_16  and  C_17
REMARK    6  A    between atoms: C_17  and  C_18
REMARK    7  A    between atoms: C_18  and  N_19
REMARK    8  A    between atoms: C_20  and  C_21
REMARK                            x       y       z     vdW  Elec       q    Type
REMARK                         _______ _______ _______ _____ _____    ______ ____
ROOT
ATOM      1  C   UNL     1       8.150   8.244  18.270  0.00  0.00    +0.000 C 
ENDROOT
BRANCH   1   2
ATOM      2  C   UNL     1       7.328   7.678  17.105  0.00  0.00    +0.000 C 
BRANCH   2   3
ATOM      3  C   UNL     1       7.303   6.150  17.116  0.00  0.00    +0.000 C 
BRANCH   3   9
ATOM      4  N   UNL     1       8.106   5.582  14.181  0.00  0.00    +0.000 N 
ATOM      5  C   UNL     1       7.017   5.108  14.799  0.00  0.00    +0.000 A 
ATOM      6  N   UNL     1       6.174   4.298  14.212  0.00  0.00    +0.000 NA
ATOM      7  C   UNL     1       5.188   4.058  15.120  0.00  0.00    +0.000 A 
ATOM      8  C   UNL     1       5.398   4.734  16.311  0.00  0.00    +0.000 A 
ATOM      9  N   UNL     1       6.616   5.397  16.087  0.00  0.00    +0.000 N 
ATOM     10  H   UNL     1       8.325   5.132  13.294  0.00  0.00    +0.000 HD
ATOM     11  H   UNL     1       8.918   5.970  14.630  0.00  0.00    +0.000 HD
BRANCH   8  12
ATOM     12  C   UNL     1       4.569   4.711  17.537  0.00  0.00    +0.000 A 
ATOM     13  C   UNL     1       3.770   5.822  17.858  0.00  0.00    +0.000 A 
ATOM     14  C   UNL     1       2.992   5.849  19.025  0.00  0.00    +0.000 A 
ATOM     15  C   UNL     1       2.983   4.753  19.879  0.00  0.00    +0.000 A 
ATOM     16 CL   UNL     1       2.031   4.774  21.310  0.00  0.00    +0.000 Cl
ATOM     17  C   UNL     1       3.767   3.644  19.589  0.00  0.00    +0.000 A 
ATOM     18  C   UNL     1       4.575   3.643  18.446  0.00  0.00    +0.000 A 
ENDBRANCH   8  12
ENDBRANCH   3   9
ENDBRANCH   2   3
ENDBRANCH   1   2
BRANCH   1  19
ATOM     19  C   UNL     1       8.495   9.732  18.124  0.00  0.00    +0.000 C 
BRANCH  19  20
ATOM     20  C   UNL     1       9.259  10.255  19.337  0.00  0.00    +0.000 C 
BRANCH  20  21
ATOM     21  N   UNL     1       9.970  11.514  19.307  0.00  0.00    +0.000 N 
ATOM     22  C   UNL     1       9.718  12.562  20.213  0.00  0.00    +0.000 A 
ATOM     23  C   UNL     1      10.530  13.583  19.739  0.00  0.00    +0.000 A 
ATOM     24  N   UNL     1      11.217  13.215  18.617  0.00  0.00    +0.000 NA
ATOM     25  C   UNL     1      10.850  11.993  18.361  0.00  0.00    +0.000 A 
ATOM     26  N   UNL     1      11.269  11.317  17.275  0.00  0.00    +0.000 N 
ATOM     27  H   UNL     1      12.009  11.791  16.758  0.00  0.00    +0.000 HD
ATOM     28  H   UNL     1      11.383  10.320  17.260  0.00  0.00    +0.000 HD
BRANCH  22  29
ATOM     29  C   UNL     1       8.748  12.595  21.332  0.00  0.00    +0.000 A 
ATOM     30  C   UNL     1       7.763  13.584  21.464  0.00  0.00    +0.000 A 
ATOM     31  C   UNL     1       6.901  13.628  22.566  0.00  0.00    +0.000 A 
ATOM     32  C   UNL     1       6.962  12.631  23.529  0.00  0.00    +0.000 A 
ATOM     33 CL   UNL     1       5.877  12.668  24.863  0.00  0.00    +0.000 Cl
ATOM     34  C   UNL     1       7.884  11.600  23.399  0.00  0.00    +0.000 A 
ATOM     35  C   UNL     1       8.778  11.590  22.316  0.00  0.00    +0.000 A 
ENDBRANCH  22  29
ENDBRANCH  20  21
ENDBRANCH  19  20
ENDBRANCH   1  19
TORSDOF 8
ENDMDL
MODEL 9
REMARK VINA RESULT:      -8.0      1.268      8.741
REMARK  Name = 
REMARK  8 active torsions:
REMARK  status: ('A' for Active; 'I' for Inactive)
REMARK    1  A    between atoms: C_5  and  C_6
REMARK    2  A    between atoms: N_13  and  C_14
REMARK    3  A    between atoms: C_14  and  C_15
REMARK    4  A    between atoms: C_15  and  C_16
REMARK    5  A    between atoms: C_16  and  C_17
REMARK    6  A    between atoms: C_17  and  C_18
REMARK    7  A    between atoms: C_18  and  N_19
REMARK    8  A    between atoms: C_20  and  C_21
REMARK                            x       y       z     vdW  Elec       q    Type
REMARK                         _______ _______ _______ _____ _____    ______ ____
ROOT
ATOM      1  C   UNL     1       8.247   8.186  18.208  0.00  0.00    +0.000 C 
ENDROOT
BRANCH   1   2
ATOM      2  C   UNL     1       8.492   9.692  18.038  0.00  0.00    +0.000 C 
BRANCH   2   3
ATOM      3  C   UNL     1       9.164  10.301  19.267  0.00  0.00    +0.000 C 
BRANCH   3   9
ATOM      4  N   UNL     1      11.266  11.360  17.256  0.00  0.00    +0.000 N 
ATOM      5  C   UNL     1      10.729  12.058  18.267  0.00  0.00    +0.000 A 
ATOM      6  N   UNL     1      11.025  13.312  18.487  0.00  0.00    +0.000 NA
ATOM      7  C   UNL     1      10.327  13.673  19.600  0.00  0.00    +0.000 A 
ATOM      8  C   UNL     1       9.575  12.626  20.108  0.00  0.00    +0.000 A 
ATOM      9  N   UNL     1       9.836  11.583  19.204  0.00  0.00    +0.000 N 
ATOM     10  H   UNL     1      11.775  11.919  16.575  0.00  0.00    +0.000 HD
ATOM     11  H   UNL     1      10.898  10.510  16.865  0.00  0.00    +0.000 HD
BRANCH   8  12
ATOM     12  C   UNL     1       8.674  12.630  21.282  0.00  0.00    +0.000 A 
ATOM     13  C   UNL     1       8.816  11.642  22.272  0.00  0.00    +0.000 A 
ATOM     14  C   UNL     1       7.964  11.596  23.386  0.00  0.00    +0.000 A 
ATOM     15  C   UNL     1       6.969  12.553  23.538  0.00  0.00    +0.000 A 
ATOM     16 CL   UNL     1       5.921  12.509  24.900  0.00  0.00    +0.000 Cl
ATOM     17  C   UNL     1       6.803  13.538  22.573  0.00  0.00    +0.000 A 
ATOM     18  C   UNL     1       7.629  13.550  21.442  0.00  0.00    +0.000 A 
ENDBRANCH   8  12
ENDBRANCH   3   9
ENDBRANCH   2   3
ENDBRANCH   1   2
BRANCH   1  19
ATOM     19  C   UNL     1       7.099   7.641  17.348  0.00  0.00    +0.000 C 
BRANCH  19  20
ATOM     20  C   UNL     1       7.282   6.157  17.041  0.00  0.00    +0.000 C 
BRANCH  20  21
ATOM     21  N   UNL     1       6.524   5.494  16.003  0.00  0.00    +0.000 N 
ATOM     22  C   UNL     1       5.279   4.880  16.232  0.00  0.00    +0.000 A 
ATOM     23  C   UNL     1       4.993   4.289  15.008  0.00  0.00    +0.000 A 
ATOM     24  N   UNL     1       5.988   4.496  14.095  0.00  0.00    +0.000 NA
ATOM     25  C   UNL     1       6.900   5.189  14.712  0.00  0.00    +0.000 A 
ATOM     26  N   UNL     1       8.073   5.523  14.144  0.00  0.00    +0.000 N 
ATOM     27  H   UNL     1       8.119   5.315  13.146  0.00  0.00    +0.000 HD
ATOM     28  H   UNL     1       8.574   6.362  14.373  0.00  0.00    +0.000 HD
BRANCH  22  29
ATOM     29  C   UNL     1       4.513   4.800  17.498  0.00  0.00    +0.000 A 
ATOM     30  C   UNL     1       4.727   3.804  18.461  0.00  0.00    +0.000 A 
ATOM     31  C   UNL     1       3.945   3.714  19.620  0.00  0.00    +0.000 A 
ATOM     32  C   UNL     1       2.974   4.673  19.871  0.00  0.00    +0.000 A 
ATOM     33 CL   UNL     1       2.040   4.581  21.312  0.00  0.00    +0.000 Cl
ATOM     34  C   UNL     1       2.776   5.711  18.969  0.00  0.00    +0.000 A 
ATOM     35  C   UNL     1       3.532   5.765  17.786  0.00  0.00    +0.000 A 
ENDBRANCH  22  29
ENDBRANCH  20  21
ENDBRANCH  19  20
ENDBRANCH   1  19
TORSDOF 8
ENDMDL
