MODEL 1
REMARK VINA RESULT:      -8.7      0.000      0.000
REMARK  Name = 
REMARK  6 active torsions:
REMARK  status: ('A' for Active; 'I' for Inactive)
REMARK    1  A    between atoms: C_1  and  S_2
REMARK    2  A    between atoms: S_2  and  C_5
REMARK    3  A    between atoms: C_8  and  C_9
REMARK    4  A    between atoms: C_9  and  C_10
REMARK    5  A    between atoms: C_9  and  C_16
REMARK    6  A    between atoms: C_10  and  C_11
REMARK                            x       y       z     vdW  Elec       q    Type
REMARK                         _______ _______ _______ _____ _____    ______ ____
ROOT
ATOM      1  C   UNL     1       2.220   6.874  19.100  0.00  0.00    +0.000 C 
ENDROOT
BRANCH   1   2
ATOM      2  C   UNL     1       1.814   8.361  19.102  0.00  0.00    +0.000 C 
ATOM      3  O   UNL     1       2.192   9.112  18.184  0.00  0.00    +0.000 OA
ATOM      4  N   UNL     1       1.111   8.859  20.173  0.00  0.00    +0.000 N 
ATOM      5  C   UNL     1       0.719  10.216  20.136  0.00  0.00    +0.000 A 
ATOM      6  C   UNL     1      -0.017  10.705  19.075  0.00  0.00    +0.000 A 
ATOM      7  C   UNL     1      -0.205  12.063  19.038  0.00  0.00    +0.000 A 
ATOM      8  N   UNL     1       0.288  12.890  19.974  0.00  0.00    +0.000 NA
ATOM      9  C   UNL     1       0.957  12.300  20.978  0.00  0.00    +0.000 A 
ATOM     10  N   UNL     1       1.163  10.983  21.142  0.00  0.00    +0.000 NA
ATOM     11  H   UNL     1       1.418   8.541  21.081  0.00  0.00    +0.000 HD
ENDBRANCH   1   2
BRANCH   1  15
ATOM     12  C   UNL     1       5.825   5.538  17.038  0.00  0.00    +0.000 A 
ATOM     13  C   UNL     1       4.935   6.403  16.401  0.00  0.00    +0.000 A 
ATOM     14  C   UNL     1       3.835   6.912  17.106  0.00  0.00    +0.000 A 
ATOM     15  C   UNL     1       3.556   6.507  18.432  0.00  0.00    +0.000 A 
ATOM     16  C   UNL     1       4.515   5.695  19.058  0.00  0.00    +0.000 A 
ATOM     17  C   UNL     1       5.635   5.215  18.381  0.00  0.00    +0.000 A 
BRANCH  12  19
ATOM     18  C   UNL     1       6.417   3.614  15.120  0.00  0.00    +0.000 C 
ATOM     19  S   UNL     1       7.195   4.836  16.142  0.00  0.00    +0.000 S 
ATOM     20  O   UNL     1       8.044   4.152  17.096  0.00  0.00    +0.000 OA
ATOM     21  O   UNL     1       7.729   5.871  15.275  0.00  0.00    +0.000 OA
ENDBRANCH  12  19
ENDBRANCH   1  15
BRANCH   1  22
ATOM     22  C   UNL     1       2.084   6.312  20.574  0.00  0.00    +0.000 C 
BRANCH  22  23
ATOM     23  C   UNL     1       1.441   4.913  20.691  0.00  0.00    +0.000 C 
ATOM     24  C   UNL     1       1.282   4.157  19.377  0.00  0.00    +0.000 C 
ATOM     25  C   UNL     1       0.856   2.767  19.799  0.00  0.00    +0.000 C 
ATOM     26  C   UNL     1       1.520   2.546  21.156  0.00  0.00    +0.000 C 
ATOM     27  C   UNL     1       2.199   3.875  21.527  0.00  0.00    +0.000 C 
ENDBRANCH  22  23
ENDBRANCH   1  22
TORSDOF 5
ENDMDL
MODEL 2
REMARK VINA RESULT:      -8.5      3.877      7.365
REMARK  Name = 
REMARK  6 active torsions:
REMARK  status: ('A' for Active; 'I' for Inactive)
REMARK    1  A    between atoms: C_1  and  S_2
REMARK    2  A    between atoms: S_2  and  C_5
REMARK    3  A    between atoms: C_8  and  C_9
REMARK    4  A    between atoms: C_9  and  C_10
REMARK    5  A    between atoms: C_9  and  C_16
REMARK    6  A    between atoms: C_10  and  C_11
REMARK                            x       y       z     vdW  Elec       q    Type
REMARK                         _______ _______ _______ _____ _____    ______ ____
ROOT
ATOM      1  C   UNL     1       3.078   5.870  18.406  0.00  0.00    +0.000 C 
ENDROOT
BRANCH   1   2
ATOM      2  C   UNL     1       4.130   5.787  17.282  0.00  0.00    +0.000 C 
ATOM      3  O   UNL     1       4.603   6.828  16.792  0.00  0.00    +0.000 OA
ATOM      4  N   UNL     1       4.465   4.554  16.772  0.00  0.00    +0.000 N 
ATOM      5  C   UNL     1       5.457   4.499  15.768  0.00  0.00    +0.000 A 
ATOM      6  C   UNL     1       6.703   5.055  15.981  0.00  0.00    +0.000 A 
ATOM      7  C   UNL     1       7.541   5.107  14.897  0.00  0.00    +0.000 A 
ATOM      8  N   UNL     1       7.190   4.646  13.685  0.00  0.00    +0.000 NA
ATOM      9  C   UNL     1       5.968   4.095  13.603  0.00  0.00    +0.000 A 
ATOM     10  N   UNL     1       5.084   3.948  14.604  0.00  0.00    +0.000 NA
ATOM     11  H   UNL     1       3.693   3.919  16.628  0.00  0.00    +0.000 HD
ENDBRANCH   1   2
BRANCH   1  15
ATOM     12  C   UNL     1       1.002   9.622  19.211  0.00  0.00    +0.000 A 
ATOM     13  C   UNL     1       1.278   8.738  20.255  0.00  0.00    +0.000 A 
ATOM     14  C   UNL     1       2.038   7.585  20.007  0.00  0.00    +0.000 A 
ATOM     15  C   UNL     1       2.470   7.251  18.702  0.00  0.00    +0.000 A 
ATOM     16  C   UNL     1       2.233   8.202  17.697  0.00  0.00    +0.000 A 
ATOM     17  C   UNL     1       1.514   9.372  17.938  0.00  0.00    +0.000 A 
BRANCH  12  19
ATOM     18  C   UNL     1       0.157  11.326  21.238  0.00  0.00    +0.000 C 
ATOM     19  S   UNL     1      -0.010  11.059  19.494  0.00  0.00    +0.000 S 
ATOM     20  O   UNL     1      -1.385  10.694  19.223  0.00  0.00    +0.000 OA
ATOM     21  O   UNL     1       0.614  12.177  18.808  0.00  0.00    +0.000 OA
ENDBRANCH  12  19
ENDBRANCH   1  15
BRANCH   1  22
ATOM     22  C   UNL     1       1.990   4.747  18.163  0.00  0.00    +0.000 C 
BRANCH  22  23
ATOM     23  C   UNL     1       1.901   3.665  19.261  0.00  0.00    +0.000 C 
ATOM     24  C   UNL     1       3.174   3.453  20.073  0.00  0.00    +0.000 C 
ATOM     25  C   UNL     1       2.747   2.533  21.197  0.00  0.00    +0.000 C 
ATOM     26  C   UNL     1       1.285   2.884  21.460  0.00  0.00    +0.000 C 
ATOM     27  C   UNL     1       0.884   3.906  20.383  0.00  0.00    +0.000 C 
ENDBRANCH  22  23
ENDBRANCH   1  22
TORSDOF 5
ENDMDL
MODEL 3
REMARK VINA RESULT:      -8.3      1.092      1.268
REMARK  Name = 
REMARK  6 active torsions:
REMARK  status: ('A' for Active; 'I' for Inactive)
REMARK    1  A    between atoms: C_1  and  S_2
REMARK    2  A    between atoms: S_2  and  C_5
REMARK    3  A    between atoms: C_8  and  C_9
REMARK    4  A    between atoms: C_9  and  C_10
REMARK    5  A    between atoms: C_9  and  C_16
REMARK    6  A    between atoms: C_10  and  C_11
REMARK                            x       y       z     vdW  Elec       q    Type
REMARK                         _______ _______ _______ _____ _____    ______ ____
ROOT
ATOM      1  C   UNL     1       2.110   6.789  19.255  0.00  0.00    +0.000 C 
ENDROOT
BRANCH   1   2
ATOM      2  C   UNL     1       1.707   8.275  19.340  0.00  0.00    +0.000 C 
ATOM      3  O   UNL     1       1.859   8.902  20.404  0.00  0.00    +0.000 OA
ATOM      4  N   UNL     1       1.098   8.864  18.257  0.00  0.00    +0.000 N 
ATOM      5  C   UNL     1       0.771  10.235  18.345  0.00  0.00    +0.000 A 
ATOM      6  C   UNL     1       1.739  11.169  18.655  0.00  0.00    +0.000 A 
ATOM      7  C   UNL     1       1.302  12.448  18.887  0.00  0.00    +0.000 A 
ATOM      8  N   UNL     1       0.006  12.795  18.818  0.00  0.00    +0.000 NA
ATOM      9  C   UNL     1      -0.843  11.812  18.473  0.00  0.00    +0.000 A 
ATOM     10  N   UNL     1      -0.524  10.541  18.180  0.00  0.00    +0.000 NA
ATOM     11  H   UNL     1       0.403   8.300  17.790  0.00  0.00    +0.000 HD
ENDBRANCH   1   2
BRANCH   1  15
ATOM     12  C   UNL     1       5.778   5.569  17.234  0.00  0.00    +0.000 A 
ATOM     13  C   UNL     1       4.906   6.467  16.618  0.00  0.00    +0.000 A 
ATOM     14  C   UNL     1       3.784   6.936  17.316  0.00  0.00    +0.000 A 
ATOM     15  C   UNL     1       3.466   6.460  18.609  0.00  0.00    +0.000 A 
ATOM     16  C   UNL     1       4.407   5.615  19.219  0.00  0.00    +0.000 A 
ATOM     17  C   UNL     1       5.548   5.173  18.551  0.00  0.00    +0.000 A 
BRANCH  12  19
ATOM     18  C   UNL     1       6.436   3.726  15.259  0.00  0.00    +0.000 C 
ATOM     19  S   UNL     1       7.176   4.917  16.343  0.00  0.00    +0.000 S 
ATOM     20  O   UNL     1       8.013   4.208  17.289  0.00  0.00    +0.000 OA
ATOM     21  O   UNL     1       7.715   5.991  15.527  0.00  0.00    +0.000 OA
ENDBRANCH  12  19
ENDBRANCH   1  15
BRANCH   1  22
ATOM     22  C   UNL     1       1.923   6.134  20.684  0.00  0.00    +0.000 C 
BRANCH  22  23
ATOM     23  C   UNL     1       1.342   4.703  20.684  0.00  0.00    +0.000 C 
ATOM     24  C   UNL     1       1.253   4.035  19.316  0.00  0.00    +0.000 C 
ATOM     25  C   UNL     1       0.880   2.601  19.628  0.00  0.00    +0.000 C 
ATOM     26  C   UNL     1       1.517   2.315  20.986  0.00  0.00    +0.000 C 
ATOM     27  C   UNL     1       2.124   3.642  21.469  0.00  0.00    +0.000 C 
ENDBRANCH  22  23
ENDBRANCH   1  22
TORSDOF 5
ENDMDL
MODEL 4
REMARK VINA RESULT:      -8.3      3.772      7.282
REMARK  Name = 
REMARK  6 active torsions:
REMARK  status: ('A' for Active; 'I' for Inactive)
REMARK    1  A    between atoms: C_1  and  S_2
REMARK    2  A    between atoms: S_2  and  C_5
REMARK    3  A    between atoms: C_8  and  C_9
REMARK    4  A    between atoms: C_9  and  C_10
REMARK    5  A    between atoms: C_9  and  C_16
REMARK    6  A    between atoms: C_10  and  C_11
REMARK                            x       y       z     vdW  Elec       q    Type
REMARK                         _______ _______ _______ _____ _____    ______ ____
ROOT
ATOM      1  C   UNL     1       2.755   6.147  18.763  0.00  0.00    +0.000 C 
ENDROOT
BRANCH   1   2
ATOM      2  C   UNL     1       4.010   5.966  17.886  0.00  0.00    +0.000 C 
ATOM      3  O   UNL     1       4.868   6.866  17.833  0.00  0.00    +0.000 OA
ATOM      4  N   UNL     1       4.118   4.844  17.099  0.00  0.00    +0.000 N 
ATOM      5  C   UNL     1       5.292   4.683  16.331  0.00  0.00    +0.000 A 
ATOM      6  C   UNL     1       6.534   4.716  16.934  0.00  0.00    +0.000 A 
ATOM      7  C   UNL     1       7.620   4.723  16.095  0.00  0.00    +0.000 A 
ATOM      8  N   UNL     1       7.502   4.698  14.757  0.00  0.00    +0.000 NA
ATOM      9  C   UNL     1       6.247   4.631  14.283  0.00  0.00    +0.000 A 
ATOM     10  N   UNL     1       5.117   4.572  15.007  0.00  0.00    +0.000 NA
ATOM     11  H   UNL     1       3.271   4.561  16.627  0.00  0.00    +0.000 HD
ENDBRANCH   1   2
BRANCH   1  15
ATOM     12  C   UNL     1       0.803  10.031  19.131  0.00  0.00    +0.000 A 
ATOM     13  C   UNL     1       0.997   9.236  20.261  0.00  0.00    +0.000 A 
ATOM     14  C   UNL     1       1.718   8.038  20.154  0.00  0.00    +0.000 A 
ATOM     15  C   UNL     1       2.192   7.570  18.906  0.00  0.00    +0.000 A 
ATOM     16  C   UNL     1       2.039   8.434  17.810  0.00  0.00    +0.000 A 
ATOM     17  C   UNL     1       1.359   9.648  17.911  0.00  0.00    +0.000 A 
BRANCH  12  19
ATOM     18  C   UNL     1       1.029  12.791  18.879  0.00  0.00    +0.000 C 
ATOM     19  S   UNL     1      -0.160  11.526  19.237  0.00  0.00    +0.000 S 
ATOM     20  O   UNL     1      -0.586  11.682  20.612  0.00  0.00    +0.000 OA
ATOM     21  O   UNL     1      -1.127  11.501  18.154  0.00  0.00    +0.000 OA
ENDBRANCH  12  19
ENDBRANCH   1  15
BRANCH   1  22
ATOM     22  C   UNL     1       1.668   5.087  18.313  0.00  0.00    +0.000 C 
BRANCH  22  23
ATOM     23  C   UNL     1       1.334   3.999  19.357  0.00  0.00    +0.000 C 
ATOM     24  C   UNL     1       2.110   2.695  19.210  0.00  0.00    +0.000 C 
ATOM     25  C   UNL     1       1.767   1.917  20.463  0.00  0.00    +0.000 C 
ATOM     26  C   UNL     1       1.536   2.980  21.535  0.00  0.00    +0.000 C 
ATOM     27  C   UNL     1       1.625   4.340  20.823  0.00  0.00    +0.000 C 
ENDBRANCH  22  23
ENDBRANCH   1  22
TORSDOF 5
ENDMDL
MODEL 5
REMARK VINA RESULT:      -8.3      3.821      7.140
REMARK  Name = 
REMARK  6 active torsions:
REMARK  status: ('A' for Active; 'I' for Inactive)
REMARK    1  A    between atoms: C_1  and  S_2
REMARK    2  A    between atoms: S_2  and  C_5
REMARK    3  A    between atoms: C_8  and  C_9
REMARK    4  A    between atoms: C_9  and  C_10
REMARK    5  A    between atoms: C_9  and  C_16
REMARK    6  A    between atoms: C_10  and  C_11
REMARK                            x       y       z     vdW  Elec       q    Type
REMARK                         _______ _______ _______ _____ _____    ______ ____
ROOT
ATOM      1  C   UNL     1       3.006   5.936  18.658  0.00  0.00    +0.000 C 
ENDROOT
BRANCH   1   2
ATOM      2  C   UNL     1       4.165   5.914  17.642  0.00  0.00    +0.000 C 
ATOM      3  O   UNL     1       4.796   6.957  17.392  0.00  0.00    +0.000 OA
ATOM      4  N   UNL     1       4.427   4.752  16.953  0.00  0.00    +0.000 N 
ATOM      5  C   UNL     1       5.516   4.746  16.054  0.00  0.00    +0.000 A 
ATOM      6  C   UNL     1       6.780   5.103  16.479  0.00  0.00    +0.000 A 
ATOM      7  C   UNL     1       7.737   5.233  15.505  0.00  0.00    +0.000 A 
ATOM      8  N   UNL     1       7.481   5.026  14.204  0.00  0.00    +0.000 NA
ATOM      9  C   UNL     1       6.226   4.649  13.910  0.00  0.00    +0.000 A 
ATOM     10  N   UNL     1       5.223   4.446  14.780  0.00  0.00    +0.000 NA
ATOM     11  H   UNL     1       3.615   4.248  16.627  0.00  0.00    +0.000 HD
ENDBRANCH   1   2
BRANCH   1  15
ATOM     12  C   UNL     1       1.318   9.899  19.343  0.00  0.00    +0.000 A 
ATOM     13  C   UNL     1       1.722   9.524  18.062  0.00  0.00    +0.000 A 
ATOM     14  C   UNL     1       2.164   8.213  17.828  0.00  0.00    +0.000 A 
ATOM     15  C   UNL     1       2.288   7.277  18.881  0.00  0.00    +0.000 A 
ATOM     16  C   UNL     1       1.804   7.673  20.138  0.00  0.00    +0.000 A 
ATOM     17  C   UNL     1       1.323   8.961  20.374  0.00  0.00    +0.000 A 
BRANCH  12  19
ATOM     18  C   UNL     1       1.818  12.521  18.562  0.00  0.00    +0.000 C 
ATOM     19  S   UNL     1       0.810  11.574  19.671  0.00  0.00    +0.000 S 
ATOM     20  O   UNL     1       1.202  11.899  21.027  0.00  0.00    +0.000 OA
ATOM     21  O   UNL     1      -0.572  11.705  19.242  0.00  0.00    +0.000 OA
ENDBRANCH  12  19
ENDBRANCH   1  15
BRANCH   1  22
ATOM     22  C   UNL     1       2.018   4.746  18.322  0.00  0.00    +0.000 C 
BRANCH  22  23
ATOM     23  C   UNL     1       1.923   3.642  19.398  0.00  0.00    +0.000 C 
ATOM     24  C   UNL     1       3.193   3.413  20.211  0.00  0.00    +0.000 C 
ATOM     25  C   UNL     1       2.760   2.470  21.313  0.00  0.00    +0.000 C 
ATOM     26  C   UNL     1       1.297   2.816  21.577  0.00  0.00    +0.000 C 
ATOM     27  C   UNL     1       0.901   3.860  20.520  0.00  0.00    +0.000 C 
ENDBRANCH  22  23
ENDBRANCH   1  22
TORSDOF 5
ENDMDL
MODEL 6
REMARK VINA RESULT:      -8.1      3.776      7.304
REMARK  Name = 
REMARK  6 active torsions:
REMARK  status: ('A' for Active; 'I' for Inactive)
REMARK    1  A    between atoms: C_1  and  S_2
REMARK    2  A    between atoms: S_2  and  C_5
REMARK    3  A    between atoms: C_8  and  C_9
REMARK    4  A    between atoms: C_9  and  C_10
REMARK    5  A    between atoms: C_9  and  C_16
REMARK    6  A    between atoms: C_10  and  C_11
REMARK                            x       y       z     vdW  Elec       q    Type
REMARK                         _______ _______ _______ _____ _____    ______ ____
ROOT
ATOM      1  C   UNL     1       3.073   6.368  18.943  0.00  0.00    +0.000 C 
ENDROOT
BRANCH   1   2
ATOM      2  C   UNL     1       4.126   6.148  17.838  0.00  0.00    +0.000 C 
ATOM      3  O   UNL     1       4.767   7.114  17.387  0.00  0.00    +0.000 OA
ATOM      4  N   UNL     1       4.276   4.892  17.300  0.00  0.00    +0.000 N 
ATOM      5  C   UNL     1       5.271   4.707  16.315  0.00  0.00    +0.000 A 
ATOM      6  C   UNL     1       6.583   5.055  16.568  0.00  0.00    +0.000 A 
ATOM      7  C   UNL     1       7.445   5.002  15.502  0.00  0.00    +0.000 A 
ATOM      8  N   UNL     1       7.055   4.632  14.272  0.00  0.00    +0.000 NA
ATOM      9  C   UNL     1       5.764   4.281  14.150  0.00  0.00    +0.000 A 
ATOM     10  N   UNL     1       4.844   4.250  15.129  0.00  0.00    +0.000 NA
ATOM     11  H   UNL     1       3.419   4.388  17.124  0.00  0.00    +0.000 HD
ENDBRANCH   1   2
BRANCH   1  15
ATOM     12  C   UNL     1       0.651   9.996  18.943  0.00  0.00    +0.000 A 
ATOM     13  C   UNL     1       0.874   9.304  20.134  0.00  0.00    +0.000 A 
ATOM     14  C   UNL     1       1.740   8.201  20.146  0.00  0.00    +0.000 A 
ATOM     15  C   UNL     1       2.336   7.717  18.958  0.00  0.00    +0.000 A 
ATOM     16  C   UNL     1       2.143   8.484  17.798  0.00  0.00    +0.000 A 
ATOM     17  C   UNL     1       1.317   9.608  17.781  0.00  0.00    +0.000 A 
BRANCH  12  19
ATOM     18  C   UNL     1      -1.029  11.488  20.580  0.00  0.00    +0.000 C 
ATOM     19  S   UNL     1      -0.489  11.363  18.897  0.00  0.00    +0.000 S 
ATOM     20  O   UNL     1      -1.623  10.967  18.087  0.00  0.00    +0.000 OA
ATOM     21  O   UNL     1       0.273  12.559  18.581  0.00  0.00    +0.000 OA
ENDBRANCH  12  19
ENDBRANCH   1  15
BRANCH   1  22
ATOM     22  C   UNL     1       2.097   5.122  18.965  0.00  0.00    +0.000 C 
BRANCH  22  23
ATOM     23  C   UNL     1       2.127   4.281  20.260  0.00  0.00    +0.000 C 
ATOM     24  C   UNL     1       0.894   3.419  20.506  0.00  0.00    +0.000 C 
ATOM     25  C   UNL     1       1.279   2.551  21.685  0.00  0.00    +0.000 C 
ATOM     26  C   UNL     1       2.787   2.354  21.554  0.00  0.00    +0.000 C 
ATOM     27  C   UNL     1       3.237   3.230  20.373  0.00  0.00    +0.000 C 
ENDBRANCH  22  23
ENDBRANCH   1  22
TORSDOF 5
ENDMDL
MODEL 7
REMARK VINA RESULT:      -8.1      1.541      1.723
REMARK  Name = 
REMARK  6 active torsions:
REMARK  status: ('A' for Active; 'I' for Inactive)
REMARK    1  A    between atoms: C_1  and  S_2
REMARK    2  A    between atoms: S_2  and  C_5
REMARK    3  A    between atoms: C_8  and  C_9
REMARK    4  A    between atoms: C_9  and  C_10
REMARK    5  A    between atoms: C_9  and  C_16
REMARK    6  A    between atoms: C_10  and  C_11
REMARK                            x       y       z     vdW  Elec       q    Type
REMARK                         _______ _______ _______ _____ _____    ______ ____
ROOT
ATOM      1  C   UNL     1       1.941   6.205  19.808  0.00  0.00    +0.000 C 
ENDROOT
BRANCH   1   2
ATOM      2  C   UNL     1       1.494   7.558  20.396  0.00  0.00    +0.000 C 
ATOM      3  O   UNL     1       2.242   8.549  20.319  0.00  0.00    +0.000 OA
ATOM      4  N   UNL     1       0.304   7.627  21.081  0.00  0.00    +0.000 N 
ATOM      5  C   UNL     1      -0.103   8.884  21.580  0.00  0.00    +0.000 A 
ATOM      6  C   UNL     1      -0.209   9.973  20.736  0.00  0.00    +0.000 A 
ATOM      7  C   UNL     1      -0.443  11.186  21.332  0.00  0.00    +0.000 A 
ATOM      8  N   UNL     1      -0.566  11.329  22.661  0.00  0.00    +0.000 NA
ATOM      9  C   UNL     1      -0.480  10.198  23.380  0.00  0.00    +0.000 A 
ATOM     10  N   UNL     1      -0.300   8.955  22.904  0.00  0.00    +0.000 NA
ATOM     11  H   UNL     1       0.114   6.853  21.702  0.00  0.00    +0.000 HD
ENDBRANCH   1   2
BRANCH   1  15
ATOM     12  C   UNL     1       5.669   5.766  17.586  0.00  0.00    +0.000 A 
ATOM     13  C   UNL     1       4.603   6.473  17.029  0.00  0.00    +0.000 A 
ATOM     14  C   UNL     1       3.447   6.701  17.790  0.00  0.00    +0.000 A 
ATOM     15  C   UNL     1       3.300   6.162  19.090  0.00  0.00    +0.000 A 
ATOM     16  C   UNL     1       4.423   5.520  19.637  0.00  0.00    +0.000 A 
ATOM     17  C   UNL     1       5.593   5.323  18.906  0.00  0.00    +0.000 A 
BRANCH  12  19
ATOM     18  C   UNL     1       6.447   4.746  15.119  0.00  0.00    +0.000 C 
ATOM     19  S   UNL     1       7.121   5.417  16.615  0.00  0.00    +0.000 S 
ATOM     20  O   UNL     1       7.861   4.368  17.287  0.00  0.00    +0.000 OA
ATOM     21  O   UNL     1       7.750   6.686  16.294  0.00  0.00    +0.000 OA
ENDBRANCH  12  19
ENDBRANCH   1  15
BRANCH   1  22
ATOM     22  C   UNL     1       1.790   5.095  20.926  0.00  0.00    +0.000 C 
BRANCH  22  23
ATOM     23  C   UNL     1       1.470   3.675  20.409  0.00  0.00    +0.000 C 
ATOM     24  C   UNL     1       0.788   3.616  19.047  0.00  0.00    +0.000 C 
ATOM     25  C   UNL     1       0.804   2.145  18.690  0.00  0.00    +0.000 C 
ATOM     26  C   UNL     1       2.068   1.593  19.345  0.00  0.00    +0.000 C 
ATOM     27  C   UNL     1       2.665   2.745  20.170  0.00  0.00    +0.000 C 
ENDBRANCH  22  23
ENDBRANCH   1  22
TORSDOF 5
ENDMDL
MODEL 8
REMARK VINA RESULT:      -8.1      0.837      1.022
REMARK  Name = 
REMARK  6 active torsions:
REMARK  status: ('A' for Active; 'I' for Inactive)
REMARK    1  A    between atoms: C_1  and  S_2
REMARK    2  A    between atoms: S_2  and  C_5
REMARK    3  A    between atoms: C_8  and  C_9
REMARK    4  A    between atoms: C_9  and  C_10
REMARK    5  A    between atoms: C_9  and  C_16
REMARK    6  A    between atoms: C_10  and  C_11
REMARK                            x       y       z     vdW  Elec       q    Type
REMARK                         _______ _______ _______ _____ _____    ______ ____
ROOT
ATOM      1  C   UNL     1       2.179   6.769  18.870  0.00  0.00    +0.000 C 
ENDROOT
BRANCH   1   2
ATOM      2  C   UNL     1       1.654   8.213  18.739  0.00  0.00    +0.000 C 
ATOM      3  O   UNL     1       1.767   8.823  17.661  0.00  0.00    +0.000 OA
ATOM      4  N   UNL     1       1.147   8.842  19.852  0.00  0.00    +0.000 N 
ATOM      5  C   UNL     1       0.639  10.151  19.701  0.00  0.00    +0.000 A 
ATOM      6  C   UNL     1      -0.339  10.420  18.765  0.00  0.00    +0.000 A 
ATOM      7  C   UNL     1      -0.649  11.742  18.569  0.00  0.00    +0.000 A 
ATOM      8  N   UNL     1      -0.046  12.736  19.242  0.00  0.00    +0.000 NA
ATOM      9  C   UNL     1       0.865  12.354  20.152  0.00  0.00    +0.000 A 
ATOM     10  N   UNL     1       1.214  11.095  20.461  0.00  0.00    +0.000 NA
ATOM     11  H   UNL     1       1.662   8.692  20.708  0.00  0.00    +0.000 HD
ENDBRANCH   1   2
BRANCH   1  15
ATOM     12  C   UNL     1       5.566   5.407  16.482  0.00  0.00    +0.000 A 
ATOM     13  C   UNL     1       4.505   4.541  16.748  0.00  0.00    +0.000 A 
ATOM     14  C   UNL     1       3.372   5.016  17.425  0.00  0.00    +0.000 A 
ATOM     15  C   UNL     1       3.308   6.340  17.919  0.00  0.00    +0.000 A 
ATOM     16  C   UNL     1       4.364   7.196  17.567  0.00  0.00    +0.000 A 
ATOM     17  C   UNL     1       5.478   6.747  16.859  0.00  0.00    +0.000 A 
BRANCH  12  19
ATOM     18  C   UNL     1       6.400   3.643  14.501  0.00  0.00    +0.000 C 
ATOM     19  S   UNL     1       7.037   4.807  15.677  0.00  0.00    +0.000 S 
ATOM     20  O   UNL     1       7.814   4.078  16.658  0.00  0.00    +0.000 OA
ATOM     21  O   UNL     1       7.616   5.916  14.940  0.00  0.00    +0.000 OA
ENDBRANCH  12  19
ENDBRANCH   1  15
BRANCH   1  22
ATOM     22  C   UNL     1       2.502   6.486  20.393  0.00  0.00    +0.000 C 
BRANCH  22  23
ATOM     23  C   UNL     1       2.119   5.079  20.900  0.00  0.00    +0.000 C 
ATOM     24  C   UNL     1       0.957   4.416  20.167  0.00  0.00    +0.000 C 
ATOM     25  C   UNL     1       0.948   2.997  20.696  0.00  0.00    +0.000 C 
ATOM     26  C   UNL     1       2.408   2.686  21.013  0.00  0.00    +0.000 C 
ATOM     27  C   UNL     1       3.190   3.988  20.780  0.00  0.00    +0.000 C 
ENDBRANCH  22  23
ENDBRANCH   1  22
TORSDOF 5
ENDMDL
MODEL 9
REMARK VINA RESULT:      -7.9      1.172      1.356
REMARK  Name = 
REMARK  6 active torsions:
REMARK  status: ('A' for Active; 'I' for Inactive)
REMARK    1  A    between atoms: C_1  and  S_2
REMARK    2  A    between atoms: S_2  and  C_5
REMARK    3  A    between atoms: C_8  and  C_9
REMARK    4  A    between atoms: C_9  and  C_10
REMARK    5  A    between atoms: C_9  and  C_16
REMARK    6  A    between atoms: C_10  and  C_11
REMARK                            x       y       z     vdW  Elec       q    Type
REMARK                         _______ _______ _______ _____ _____    ______ ____
ROOT
ATOM      1  C   UNL     1       1.938   6.562  19.610  0.00  0.00    +0.000 C 
ENDROOT
BRANCH   1   2
ATOM      2  C   UNL     1       1.509   7.969  20.075  0.00  0.00    +0.000 C 
ATOM      3  O   UNL     1       1.581   8.277  21.278  0.00  0.00    +0.000 OA
ATOM      4  N   UNL     1       0.964   8.837  19.159  0.00  0.00    +0.000 N 
ATOM      5  C   UNL     1       0.612  10.132  19.600  0.00  0.00    +0.000 A 
ATOM      6  C   UNL     1       1.544  10.939  20.221  0.00  0.00    +0.000 A 
ATOM      7  C   UNL     1       1.073  12.106  20.767  0.00  0.00    +0.000 A 
ATOM      8  N   UNL     1      -0.220  12.464  20.709  0.00  0.00    +0.000 NA
ATOM      9  C   UNL     1      -1.029  11.619  20.050  0.00  0.00    +0.000 A 
ATOM     10  N   UNL     1      -0.674  10.477  19.439  0.00  0.00    +0.000 NA
ATOM     11  H   UNL     1       0.309   8.428  18.508  0.00  0.00    +0.000 HD
ENDBRANCH   1   2
BRANCH   1  15
ATOM     12  C   UNL     1       5.726   5.888  17.556  0.00  0.00    +0.000 A 
ATOM     13  C   UNL     1       4.776   6.747  17.005  0.00  0.00    +0.000 A 
ATOM     14  C   UNL     1       3.607   7.042  17.721  0.00  0.00    +0.000 A 
ATOM     15  C   UNL     1       3.325   6.426  18.963  0.00  0.00    +0.000 A 
ATOM     16  C   UNL     1       4.339   5.626  19.513  0.00  0.00    +0.000 A 
ATOM     17  C   UNL     1       5.525   5.357  18.830  0.00  0.00    +0.000 A 
BRANCH  12  19
ATOM     18  C   UNL     1       6.531   4.746  15.152  0.00  0.00    +0.000 C 
ATOM     19  S   UNL     1       7.190   5.456  16.637  0.00  0.00    +0.000 S 
ATOM     20  O   UNL     1       7.881   4.414  17.368  0.00  0.00    +0.000 OA
ATOM     21  O   UNL     1       7.865   6.692  16.281  0.00  0.00    +0.000 OA
ENDBRANCH  12  19
ENDBRANCH   1  15
BRANCH   1  22
ATOM     22  C   UNL     1       1.699   5.544  20.799  0.00  0.00    +0.000 C 
BRANCH  22  23
ATOM     23  C   UNL     1       1.287   4.118  20.374  0.00  0.00    +0.000 C 
ATOM     24  C   UNL     1       1.099   3.913  18.875  0.00  0.00    +0.000 C 
ATOM     25  C   UNL     1       0.932   2.416  18.725  0.00  0.00    +0.000 C 
ATOM     26  C   UNL     1       1.766   1.811  19.852  0.00  0.00    +0.000 C 
ATOM     27  C   UNL     1       2.277   2.992  20.694  0.00  0.00    +0.000 C 
ENDBRANCH  22  23
ENDBRANCH   1  22
TORSDOF 5
ENDMDL
