MODEL 1
REMARK VINA RESULT:      -7.0      0.000      0.000
REMARK  Name = 
REMARK  6 active torsions:
REMARK  status: ('A' for Active; 'I' for Inactive)
REMARK    1  A    between atoms: C_1  and  C_2
REMARK    2  A    between atoms: C_5  and  O_6
REMARK    3  A    between atoms: O_6  and  C_7
REMARK    4  A    between atoms: C_9  and  C_10
REMARK    5  A    between atoms: C_10  and  N_11
REMARK    6  A    between atoms: C_16  and  C_17
REMARK                            x       y       z     vdW  Elec       q    Type
REMARK                         _______ _______ _______ _____ _____    ______ ____
ROOT
ATOM      1  C   UNL     1       6.827   4.421  14.701  0.00  0.00    +0.000 A 
ATOM      2  C   UNL     1       6.009   3.596  13.936  0.00  0.00    +0.000 A 
ATOM      3  C   UNL     1       6.134   3.633  12.543  0.00  0.00    +0.000 A 
ATOM      4  C   UNL     1       7.074   4.504  11.985  0.00  0.00    +0.000 A 
ATOM      5  C   UNL     1       7.860   5.270  12.829  0.00  0.00    +0.000 A 
ATOM      6  N   UNL     1       7.769   5.233  14.173  0.00  0.00    +0.000 NA
ENDROOT
BRANCH   1   7
ATOM      7  O   UNL     1       6.668   4.341  16.083  0.00  0.00    +0.000 OA
BRANCH   7  12
ATOM      8  C   UNL     1       2.202   6.947  18.469  0.00  0.00    +0.000 C 
ATOM      9  C   UNL     1       3.367   6.249  17.824  0.00  0.00    +0.000 A 
ATOM     10  C   UNL     1       4.431   7.015  17.327  0.00  0.00    +0.000 A 
ATOM     11  C   UNL     1       5.535   6.404  16.733  0.00  0.00    +0.000 A 
ATOM     12  C   UNL     1       5.616   5.017  16.663  0.00  0.00    +0.000 A 
ATOM     13  C   UNL     1       4.545   4.241  17.119  0.00  0.00    +0.000 A 
ATOM     14  C   UNL     1       3.412   4.845  17.699  0.00  0.00    +0.000 A 
ATOM     15  C   UNL     1       2.271   3.985  18.167  0.00  0.00    +0.000 C 
ENDBRANCH   7  12
ENDBRANCH   1   7
BRANCH   3  16
ATOM     16  C   UNL     1       5.312   2.734  11.658  0.00  0.00    +0.000 C 
BRANCH  16  17
ATOM     17  N   UNL     1       5.956   1.442  11.451  0.00  0.00    +0.000 NA
ATOM     18  H   UNL     1       5.502   0.748  12.043  0.00  0.00    +0.000 HD
ATOM     19  H   UNL     1       6.922   1.498  11.763  0.00  0.00    +0.000 HD
ENDBRANCH  16  17
ENDBRANCH   3  16
TORSDOF 4
ENDMDL
MODEL 2
REMARK VINA RESULT:      -6.9      0.594      1.651
REMARK  Name = 
REMARK  6 active torsions:
REMARK  status: ('A' for Active; 'I' for Inactive)
REMARK    1  A    between atoms: C_1  and  C_2
REMARK    2  A    between atoms: C_5  and  O_6
REMARK    3  A    between atoms: O_6  and  C_7
REMARK    4  A    between atoms: C_9  and  C_10
REMARK    5  A    between atoms: C_10  and  N_11
REMARK    6  A    between atoms: C_16  and  C_17
REMARK                            x       y       z     vdW  Elec       q    Type
REMARK                         _______ _______ _______ _____ _____    ______ ____
ROOT
ATOM      1  C   UNL     1       6.955   4.875  14.691  0.00  0.00    +0.000 A 
ATOM      2  C   UNL     1       6.096   3.975  14.069  0.00  0.00    +0.000 A 
ATOM      3  C   UNL     1       6.243   3.747  12.696  0.00  0.00    +0.000 A 
ATOM      4  C   UNL     1       7.247   4.441  12.013  0.00  0.00    +0.000 A 
ATOM      5  C   UNL     1       8.067   5.301  12.724  0.00  0.00    +0.000 A 
ATOM      6  N   UNL     1       7.955   5.517  14.048  0.00  0.00    +0.000 NA
ENDROOT
BRANCH   1   7
ATOM      7  O   UNL     1       6.771   5.061  16.060  0.00  0.00    +0.000 OA
BRANCH   7  12
ATOM      8  C   UNL     1       1.565   4.514  18.304  0.00  0.00    +0.000 C 
ATOM      9  C   UNL     1       2.946   4.669  17.730  0.00  0.00    +0.000 A 
ATOM     10  C   UNL     1       3.641   3.527  17.307  0.00  0.00    +0.000 A 
ATOM     11  C   UNL     1       4.919   3.630  16.758  0.00  0.00    +0.000 A 
ATOM     12  C   UNL     1       5.509   4.878  16.583  0.00  0.00    +0.000 A 
ATOM     13  C   UNL     1       4.845   6.023  17.037  0.00  0.00    +0.000 A 
ATOM     14  C   UNL     1       3.564   5.932  17.616  0.00  0.00    +0.000 A 
ATOM     15  C   UNL     1       2.881   7.179  18.107  0.00  0.00    +0.000 C 
ENDBRANCH   7  12
ENDBRANCH   1   7
BRANCH   3  16
ATOM     16  C   UNL     1       5.378   2.752  11.969  0.00  0.00    +0.000 C 
BRANCH  16  17
ATOM     17  N   UNL     1       6.149   1.610  11.493  0.00  0.00    +0.000 NA
ATOM     18  H   UNL     1       5.888   0.786  12.035  0.00  0.00    +0.000 HD
ATOM     19  H   UNL     1       7.136   1.773  11.677  0.00  0.00    +0.000 HD
ENDBRANCH  16  17
ENDBRANCH   3  16
TORSDOF 4
ENDMDL
MODEL 3
REMARK VINA RESULT:      -6.8      3.843      6.492
REMARK  Name = 
REMARK  6 active torsions:
REMARK  status: ('A' for Active; 'I' for Inactive)
REMARK    1  A    between atoms: C_1  and  C_2
REMARK    2  A    between atoms: C_5  and  O_6
REMARK    3  A    between atoms: O_6  and  C_7
REMARK    4  A    between atoms: C_9  and  C_10
REMARK    5  A    between atoms: C_10  and  N_11
REMARK    6  A    between atoms: C_16  and  C_17
REMARK                            x       y       z     vdW  Elec       q    Type
REMARK                         _______ _______ _______ _____ _____    ______ ____
ROOT
ATOM      1  C   UNL     1       3.299   3.328  17.992  0.00  0.00    +0.000 A 
ATOM      2  C   UNL     1       3.466   3.272  19.372  0.00  0.00    +0.000 A 
ATOM      3  C   UNL     1       2.327   3.219  20.184  0.00  0.00    +0.000 A 
ATOM      4  C   UNL     1       1.073   3.231  19.566  0.00  0.00    +0.000 A 
ATOM      5  C   UNL     1       1.008   3.266  18.184  0.00  0.00    +0.000 A 
ATOM      6  N   UNL     1       2.092   3.295  17.385  0.00  0.00    +0.000 NA
ENDROOT
BRANCH   1   7
ATOM      7  O   UNL     1       4.464   3.372  17.229  0.00  0.00    +0.000 OA
BRANCH   7  12
ATOM      8  C   UNL     1       7.680   8.063  17.523  0.00  0.00    +0.000 C 
ATOM      9  C   UNL     1       6.826   6.826  17.467  0.00  0.00    +0.000 A 
ATOM     10  C   UNL     1       5.772   6.767  16.545  0.00  0.00    +0.000 A 
ATOM     11  C   UNL     1       4.964   5.633  16.455  0.00  0.00    +0.000 A 
ATOM     12  C   UNL     1       5.222   4.523  17.253  0.00  0.00    +0.000 A 
ATOM     13  C   UNL     1       6.246   4.582  18.205  0.00  0.00    +0.000 A 
ATOM     14  C   UNL     1       7.053   5.730  18.325  0.00  0.00    +0.000 A 
ATOM     15  C   UNL     1       8.137   5.769  19.367  0.00  0.00    +0.000 C 
ENDBRANCH   7  12
ENDBRANCH   1   7
BRANCH   3  16
ATOM     16  C   UNL     1       2.437   3.111  21.681  0.00  0.00    +0.000 C 
BRANCH  16  17
ATOM     17  N   UNL     1       1.307   2.392  22.257  0.00  0.00    +0.000 NA
ATOM     18  H   UNL     1       1.179   1.517  21.750  0.00  0.00    +0.000 HD
ATOM     19  H   UNL     1       0.458   2.934  22.111  0.00  0.00    +0.000 HD
ENDBRANCH  16  17
ENDBRANCH   3  16
TORSDOF 4
ENDMDL
MODEL 4
REMARK VINA RESULT:      -6.8      2.209      4.019
REMARK  Name = 
REMARK  6 active torsions:
REMARK  status: ('A' for Active; 'I' for Inactive)
REMARK    1  A    between atoms: C_1  and  C_2
REMARK    2  A    between atoms: C_5  and  O_6
REMARK    3  A    between atoms: O_6  and  C_7
REMARK    4  A    between atoms: C_9  and  C_10
REMARK    5  A    between atoms: C_10  and  N_11
REMARK    6  A    between atoms: C_16  and  C_17
REMARK                            x       y       z     vdW  Elec       q    Type
REMARK                         _______ _______ _______ _____ _____    ______ ____
ROOT
ATOM      1  C   UNL     1       4.907   4.344  17.819  0.00  0.00    +0.000 A 
ATOM      2  C   UNL     1       5.057   4.341  16.436  0.00  0.00    +0.000 A 
ATOM      3  C   UNL     1       6.339   4.508  15.901  0.00  0.00    +0.000 A 
ATOM      4  C   UNL     1       7.410   4.676  16.784  0.00  0.00    +0.000 A 
ATOM      5  C   UNL     1       7.164   4.642  18.146  0.00  0.00    +0.000 A 
ATOM      6  N   UNL     1       5.941   4.462  18.681  0.00  0.00    +0.000 NA
ENDROOT
BRANCH   1   7
ATOM      7  O   UNL     1       3.612   4.167  18.301  0.00  0.00    +0.000 OA
BRANCH   7  12
ATOM      8  C   UNL     1       1.093   8.718  20.619  0.00  0.00    +0.000 C 
ATOM      9  C   UNL     1       1.777   7.529  20.004  0.00  0.00    +0.000 A 
ATOM     10  C   UNL     1       1.870   6.340  20.740  0.00  0.00    +0.000 A 
ATOM     11  C   UNL     1       2.486   5.210  20.200  0.00  0.00    +0.000 A 
ATOM     12  C   UNL     1       2.981   5.236  18.900  0.00  0.00    +0.000 A 
ATOM     13  C   UNL     1       2.932   6.428  18.168  0.00  0.00    +0.000 A 
ATOM     14  C   UNL     1       2.335   7.583  18.710  0.00  0.00    +0.000 A 
ATOM     15  C   UNL     1       2.309   8.852  17.903  0.00  0.00    +0.000 C 
ENDBRANCH   7  12
ENDBRANCH   1   7
BRANCH   3  16
ATOM     16  C   UNL     1       6.579   4.469  14.415  0.00  0.00    +0.000 C 
BRANCH  16  17
ATOM     17  N   UNL     1       7.626   5.399  14.010  0.00  0.00    +0.000 NA
ATOM     18  H   UNL     1       8.457   5.228  14.575  0.00  0.00    +0.000 HD
ATOM     19  H   UNL     1       7.328   6.349  14.220  0.00  0.00    +0.000 HD
ENDBRANCH  16  17
ENDBRANCH   3  16
TORSDOF 4
ENDMDL
MODEL 5
REMARK VINA RESULT:      -6.8      3.868      6.433
REMARK  Name = 
REMARK  6 active torsions:
REMARK  status: ('A' for Active; 'I' for Inactive)
REMARK    1  A    between atoms: C_1  and  C_2
REMARK    2  A    between atoms: C_5  and  O_6
REMARK    3  A    between atoms: O_6  and  C_7
REMARK    4  A    between atoms: C_9  and  C_10
REMARK    5  A    between atoms: C_10  and  N_11
REMARK    6  A    between atoms: C_16  and  C_17
REMARK                            x       y       z     vdW  Elec       q    Type
REMARK                         _______ _______ _______ _____ _____    ______ ____
ROOT
ATOM      1  C   UNL     1       3.149   3.362  18.032  0.00  0.00    +0.000 A 
ATOM      2  C   UNL     1       2.960   4.456  18.870  0.00  0.00    +0.000 A 
ATOM      3  C   UNL     1       1.853   4.461  19.726  0.00  0.00    +0.000 A 
ATOM      4  C   UNL     1       0.986   3.365  19.695  0.00  0.00    +0.000 A 
ATOM      5  C   UNL     1       1.270   2.312  18.842  0.00  0.00    +0.000 A 
ATOM      6  N   UNL     1       2.341   2.279  18.026  0.00  0.00    +0.000 NA
ENDROOT
BRANCH   1   7
ATOM      7  O   UNL     1       4.269   3.402  17.204  0.00  0.00    +0.000 OA
BRANCH   7  12
ATOM      8  C   UNL     1       7.663   7.963  17.550  0.00  0.00    +0.000 C 
ATOM      9  C   UNL     1       6.762   6.761  17.480  0.00  0.00    +0.000 A 
ATOM     10  C   UNL     1       5.728   6.738  16.534  0.00  0.00    +0.000 A 
ATOM     11  C   UNL     1       4.878   5.637  16.429  0.00  0.00    +0.000 A 
ATOM     12  C   UNL     1       5.072   4.522  17.240  0.00  0.00    +0.000 A 
ATOM     13  C   UNL     1       6.074   4.547  18.216  0.00  0.00    +0.000 A 
ATOM     14  C   UNL     1       6.924   5.662  18.349  0.00  0.00    +0.000 A 
ATOM     15  C   UNL     1       7.983   5.665  19.417  0.00  0.00    +0.000 C 
ENDBRANCH   7  12
ENDBRANCH   1   7
BRANCH   3  16
ATOM     16  C   UNL     1       1.615   5.593  20.691  0.00  0.00    +0.000 C 
BRANCH  16  17
ATOM     17  N   UNL     1       2.340   6.796  20.304  0.00  0.00    +0.000 NA
ATOM     18  H   UNL     1       2.565   7.331  21.143  0.00  0.00    +0.000 HD
ATOM     19  H   UNL     1       1.731   7.387  19.743  0.00  0.00    +0.000 HD
ENDBRANCH  16  17
ENDBRANCH   3  16
TORSDOF 4
ENDMDL
MODEL 6
REMARK VINA RESULT:      -6.8      2.225      3.583
REMARK  Name = 
REMARK  6 active torsions:
REMARK  status: ('A' for Active; 'I' for Inactive)
REMARK    1  A    between atoms: C_1  and  C_2
REMARK    2  A    between atoms: C_5  and  O_6
REMARK    3  A    between atoms: O_6  and  C_7
REMARK    4  A    between atoms: C_9  and  C_10
REMARK    5  A    between atoms: C_10  and  N_11
REMARK    6  A    between atoms: C_16  and  C_17
REMARK                            x       y       z     vdW  Elec       q    Type
REMARK                         _______ _______ _______ _____ _____    ______ ____
ROOT
ATOM      1  C   UNL     1       5.083   5.524  17.077  0.00  0.00    +0.000 A 
ATOM      2  C   UNL     1       5.260   5.342  15.710  0.00  0.00    +0.000 A 
ATOM      3  C   UNL     1       6.506   4.902  15.248  0.00  0.00    +0.000 A 
ATOM      4  C   UNL     1       7.516   4.670  16.186  0.00  0.00    +0.000 A 
ATOM      5  C   UNL     1       7.237   4.857  17.529  0.00  0.00    +0.000 A 
ATOM      6  N   UNL     1       6.039   5.260  17.995  0.00  0.00    +0.000 NA
ENDROOT
BRANCH   1   7
ATOM      7  O   UNL     1       3.823   5.957  17.486  0.00  0.00    +0.000 OA
BRANCH   7  12
ATOM      8  C   UNL     1       1.071   2.935  21.452  0.00  0.00    +0.000 C 
ATOM      9  C   UNL     1       1.779   3.732  20.392  0.00  0.00    +0.000 A 
ATOM     10  C   UNL     1       2.351   4.965  20.735  0.00  0.00    +0.000 A 
ATOM     11  C   UNL     1       3.026   5.730  19.783  0.00  0.00    +0.000 A 
ATOM     12  C   UNL     1       3.179   5.256  18.483  0.00  0.00    +0.000 A 
ATOM     13  C   UNL     1       2.580   4.046  18.117  0.00  0.00    +0.000 A 
ATOM     14  C   UNL     1       1.874   3.276  19.061  0.00  0.00    +0.000 A 
ATOM     15  C   UNL     1       1.229   1.986  18.633  0.00  0.00    +0.000 C 
ENDBRANCH   7  12
ENDBRANCH   1   7
BRANCH   3  16
ATOM     16  C   UNL     1       6.752   4.642  13.785  0.00  0.00    +0.000 C 
BRANCH  16  17
ATOM     17  N   UNL     1       6.195   3.363  13.362  0.00  0.00    +0.000 NA
ATOM     18  H   UNL     1       6.433   3.207  12.383  0.00  0.00    +0.000 HD
ATOM     19  H   UNL     1       5.179   3.411  13.405  0.00  0.00    +0.000 HD
ENDBRANCH  16  17
ENDBRANCH   3  16
TORSDOF 4
ENDMDL
MODEL 7
REMARK VINA RESULT:      -6.8      5.950      8.652
REMARK  Name = 
REMARK  6 active torsions:
REMARK  status: ('A' for Active; 'I' for Inactive)
REMARK    1  A    between atoms: C_1  and  C_2
REMARK    2  A    between atoms: C_5  and  O_6
REMARK    3  A    between atoms: O_6  and  C_7
REMARK    4  A    between atoms: C_9  and  C_10
REMARK    5  A    between atoms: C_10  and  N_11
REMARK    6  A    between atoms: C_16  and  C_17
REMARK                            x       y       z     vdW  Elec       q    Type
REMARK                         _______ _______ _______ _____ _____    ______ ____
ROOT
ATOM      1  C   UNL     1       1.793   8.185  19.870  0.00  0.00    +0.000 A 
ATOM      2  C   UNL     1       1.136   8.193  21.096  0.00  0.00    +0.000 A 
ATOM      3  C   UNL     1       0.195   9.199  21.346  0.00  0.00    +0.000 A 
ATOM      4  C   UNL     1      -0.035  10.152  20.350  0.00  0.00    +0.000 A 
ATOM      5  C   UNL     1       0.652  10.048  19.152  0.00  0.00    +0.000 A 
ATOM      6  N   UNL     1       1.546   9.076  18.885  0.00  0.00    +0.000 NA
ENDROOT
BRANCH   1   7
ATOM      7  O   UNL     1       2.714   7.159  19.669  0.00  0.00    +0.000 OA
BRANCH   7  12
ATOM      8  C   UNL     1       0.803   1.874  18.746  0.00  0.00    +0.000 C 
ATOM      9  C   UNL     1       1.325   3.261  19.001  0.00  0.00    +0.000 A 
ATOM     10  C   UNL     1       1.567   4.109  17.911  0.00  0.00    +0.000 A 
ATOM     11  C   UNL     1       2.040   5.407  18.107  0.00  0.00    +0.000 A 
ATOM     12  C   UNL     1       2.239   5.894  19.395  0.00  0.00    +0.000 A 
ATOM     13  C   UNL     1       2.041   5.046  20.490  0.00  0.00    +0.000 A 
ATOM     14  C   UNL     1       1.587   3.725  20.306  0.00  0.00    +0.000 A 
ATOM     15  C   UNL     1       1.396   2.833  21.502  0.00  0.00    +0.000 C 
ENDBRANCH   7  12
ENDBRANCH   1   7
BRANCH   3  16
ATOM     16  C   UNL     1      -0.585   9.240  22.633  0.00  0.00    +0.000 C 
BRANCH  16  17
ATOM     17  N   UNL     1       0.219   9.747  23.738  0.00  0.00    +0.000 NA
ATOM     18  H   UNL     1       1.016  10.258  23.359  0.00  0.00    +0.000 HD
ATOM     19  H   UNL     1       0.603   8.962  24.259  0.00  0.00    +0.000 HD
ENDBRANCH  16  17
ENDBRANCH   3  16
TORSDOF 4
ENDMDL
MODEL 8
REMARK VINA RESULT:      -6.7      2.986      4.952
REMARK  Name = 
REMARK  6 active torsions:
REMARK  status: ('A' for Active; 'I' for Inactive)
REMARK    1  A    between atoms: C_1  and  C_2
REMARK    2  A    between atoms: C_5  and  O_6
REMARK    3  A    between atoms: O_6  and  C_7
REMARK    4  A    between atoms: C_9  and  C_10
REMARK    5  A    between atoms: C_10  and  N_11
REMARK    6  A    between atoms: C_16  and  C_17
REMARK                            x       y       z     vdW  Elec       q    Type
REMARK                         _______ _______ _______ _____ _____    ______ ____
ROOT
ATOM      1  C   UNL     1       4.569   5.835  17.098  0.00  0.00    +0.000 A 
ATOM      2  C   UNL     1       5.420   6.839  17.548  0.00  0.00    +0.000 A 
ATOM      3  C   UNL     1       6.775   6.775  17.204  0.00  0.00    +0.000 A 
ATOM      4  C   UNL     1       7.210   5.698  16.425  0.00  0.00    +0.000 A 
ATOM      5  C   UNL     1       6.283   4.759  16.005  0.00  0.00    +0.000 A 
ATOM      6  N   UNL     1       4.972   4.815  16.309  0.00  0.00    +0.000 NA
ENDROOT
BRANCH   1   7
ATOM      7  O   UNL     1       3.229   5.950  17.462  0.00  0.00    +0.000 OA
BRANCH   7  12
ATOM      8  C   UNL     1       1.188   2.716  21.682  0.00  0.00    +0.000 C 
ATOM      9  C   UNL     1       1.706   3.572  20.560  0.00  0.00    +0.000 A 
ATOM     10  C   UNL     1       2.450   4.720  20.866  0.00  0.00    +0.000 A 
ATOM     11  C   UNL     1       2.958   5.534  19.853  0.00  0.00    +0.000 A 
ATOM     12  C   UNL     1       2.768   5.192  18.518  0.00  0.00    +0.000 A 
ATOM     13  C   UNL     1       1.994   4.072  18.197  0.00  0.00    +0.000 A 
ATOM     14  C   UNL     1       1.454   3.255  19.209  0.00  0.00    +0.000 A 
ATOM     15  C   UNL     1       0.614   2.065  18.833  0.00  0.00    +0.000 C 
ENDBRANCH   7  12
ENDBRANCH   1   7
BRANCH   3  16
ATOM     16  C   UNL     1       7.741   7.852  17.620  0.00  0.00    +0.000 C 
BRANCH  16  17
ATOM     17  N   UNL     1       8.476   7.485  18.825  0.00  0.00    +0.000 NA
ATOM     18  H   UNL     1       8.946   8.313  19.190  0.00  0.00    +0.000 HD
ATOM     19  H   UNL     1       9.210   6.824  18.579  0.00  0.00    +0.000 HD
ENDBRANCH  16  17
ENDBRANCH   3  16
TORSDOF 4
ENDMDL
MODEL 9
REMARK VINA RESULT:      -6.7      3.739      5.344
REMARK  Name = 
REMARK  6 active torsions:
REMARK  status: ('A' for Active; 'I' for Inactive)
REMARK    1  A    between atoms: C_1  and  C_2
REMARK    2  A    between atoms: C_5  and  O_6
REMARK    3  A    between atoms: O_6  and  C_7
REMARK    4  A    between atoms: C_9  and  C_10
REMARK    5  A    between atoms: C_10  and  N_11
REMARK    6  A    between atoms: C_16  and  C_17
REMARK                            x       y       z     vdW  Elec       q    Type
REMARK                         _______ _______ _______ _____ _____    ______ ____
ROOT
ATOM      1  C   UNL     1       5.900   5.843  17.393  0.00  0.00    +0.000 A 
ATOM      2  C   UNL     1       6.352   7.152  17.267  0.00  0.00    +0.000 A 
ATOM      3  C   UNL     1       7.527   7.523  17.931  0.00  0.00    +0.000 A 
ATOM      4  C   UNL     1       8.189   6.558  18.695  0.00  0.00    +0.000 A 
ATOM      5  C   UNL     1       7.674   5.273  18.741  0.00  0.00    +0.000 A 
ATOM      6  N   UNL     1       6.557   4.892  18.093  0.00  0.00    +0.000 NA
ENDROOT
BRANCH   1   7
ATOM      7  O   UNL     1       4.730   5.523  16.707  0.00  0.00    +0.000 OA
BRANCH   7  12
ATOM      8  C   UNL     1       0.654   2.866  19.667  0.00  0.00    +0.000 C 
ATOM      9  C   UNL     1       1.743   3.569  18.904  0.00  0.00    +0.000 A 
ATOM     10  C   UNL     1       2.290   2.950  17.772  0.00  0.00    +0.000 A 
ATOM     11  C   UNL     1       3.294   3.575  17.030  0.00  0.00    +0.000 A 
ATOM     12  C   UNL     1       3.737   4.846  17.382  0.00  0.00    +0.000 A 
ATOM     13  C   UNL     1       3.228   5.459  18.533  0.00  0.00    +0.000 A 
ATOM     14  C   UNL     1       2.233   4.829  19.305  0.00  0.00    +0.000 A 
ATOM     15  C   UNL     1       1.715   5.507  20.544  0.00  0.00    +0.000 C 
ENDBRANCH   7  12
ENDBRANCH   1   7
BRANCH   3  16
ATOM     16  C   UNL     1       8.095   8.911  17.801  0.00  0.00    +0.000 C 
BRANCH  16  17
ATOM     17  N   UNL     1       8.908   9.275  18.955  0.00  0.00    +0.000 NA
ATOM     18  H   UNL     1       9.080  10.279  18.935  0.00  0.00    +0.000 HD
ATOM     19  H   UNL     1       9.818   8.827  18.876  0.00  0.00    +0.000 HD
ENDBRANCH  16  17
ENDBRANCH   3  16
TORSDOF 4
ENDMDL
