MODEL 1
REMARK VINA RESULT:      -7.9      0.000      0.000
REMARK  Name = 
REMARK  12 active torsions:
REMARK  status: ('A' for Active; 'I' for Inactive)
REMARK    1  A    between atoms: C_1  and  O_2
REMARK    2  A    between atoms: O_2  and  C_3
REMARK    3  A    between atoms: C_8  and  C_9
REMARK    4  A    between atoms: C_12  and  O_13
REMARK    5  A    between atoms: O_13  and  C_14
REMARK    6  A    between atoms: C_14  and  C_15
REMARK    7  A    between atoms: C_15  and  C_16
REMARK    8  A    between atoms: C_16  and  O_17
REMARK    9  A    between atoms: O_17  and  C_18
REMARK   10  A    between atoms: C_26  and  C_27
REMARK   11  A    between atoms: C_27  and  C_28
REMARK   12  A    between atoms: C_28  and  O_30
REMARK                            x       y       z     vdW  Elec       q    Type
REMARK                         _______ _______ _______ _____ _____    ______ ____
ROOT
ATOM      1  C   UNL     1       1.538   3.203  20.694  0.00  0.00    +0.000 C 
ENDROOT
BRANCH   1   2
ATOM      2  C   UNL     1       0.990   4.577  20.335  0.00  0.00    +0.000 C 
BRANCH   2   3
ATOM      3  O   UNL     1       1.853   5.558  20.898  0.00  0.00    +0.000 OA
BRANCH   3   7
ATOM      4  C   UNL     1       0.927   9.489  19.713  0.00  0.00    +0.000 A 
ATOM      5  C   UNL     1       1.632   8.578  18.904  0.00  0.00    +0.000 A 
ATOM      6  C   UNL     1       1.910   7.275  19.327  0.00  0.00    +0.000 A 
ATOM      7  C   UNL     1       1.529   6.852  20.593  0.00  0.00    +0.000 A 
ATOM      8  C   UNL     1       0.831   7.725  21.421  0.00  0.00    +0.000 A 
ATOM      9  C   UNL     1       0.525   9.018  20.979  0.00  0.00    +0.000 A 
BRANCH   4  15
ATOM     10  C   UNL     1      -0.612  11.211  18.587  0.00  0.00    +0.000 A 
ATOM     11  C   UNL     1      -0.835  12.538  18.195  0.00  0.00    +0.000 A 
ATOM     12  C   UNL     1       0.141  13.479  18.447  0.00  0.00    +0.000 A 
ATOM     13  N   UNL     1       1.314  13.191  19.040  0.00  0.00    +0.000 NA
ATOM     14  C   UNL     1       1.501  11.906  19.416  0.00  0.00    +0.000 A 
ATOM     15  C   UNL     1       0.586  10.854  19.238  0.00  0.00    +0.000 A 
BRANCH  10  17
ATOM     16  C   UNL     1      -2.014  10.023  17.089  0.00  0.00    +0.000 C 
ATOM     17  O   UNL     1      -1.579  10.246  18.423  0.00  0.00    +0.000 OA
ENDBRANCH  10  17
ENDBRANCH   4  15
ENDBRANCH   3   7
ENDBRANCH   2   3
ENDBRANCH   1   2
BRANCH   1  18
ATOM     18  C   UNL     1       1.843   2.399  19.443  0.00  0.00    +0.000 C 
BRANCH  18  19
ATOM     19  O   UNL     1       3.260   2.300  19.301  0.00  0.00    +0.000 OA
BRANCH  19  20
ATOM     20  C   UNL     1       3.862   3.295  18.585  0.00  0.00    +0.000 A 
ATOM     21  C   UNL     1       4.316   4.376  19.357  0.00  0.00    +0.000 A 
ATOM     22  C   UNL     1       5.053   5.411  18.780  0.00  0.00    +0.000 A 
ATOM     23  C   UNL     1       5.354   5.323  17.431  0.00  0.00    +0.000 A 
ATOM     24  C   UNL     1       4.920   4.224  16.676  0.00  0.00    +0.000 A 
ATOM     25  C   UNL     1       4.113   3.244  17.214  0.00  0.00    +0.000 A 
ATOM     26  C   UNL     1       5.683   4.169  15.381  0.00  0.00    +0.000 C 
ATOM     27  C   UNL     1       6.970   4.898  15.872  0.00  0.00    +0.000 C 
ATOM     28  C   UNL     1       6.340   6.130  16.598  0.00  0.00    +0.000 C 
BRANCH  28  29
ATOM     29  C   UNL     1       7.046   7.213  17.375  0.00  0.00    +0.000 C 
BRANCH  29  30
ATOM     30  C   UNL     1       8.021   6.825  18.448  0.00  0.00    +0.000 C 
ATOM     31  O   UNL     1       8.178   5.694  18.876  0.00  0.00    +0.000 OA
BRANCH  30  32
ATOM     32  O   UNL     1       8.684   7.900  18.950  0.00  0.00    +0.000 OA
ATOM     33  H   UNL     1       8.737   7.931  19.932  0.00  0.00    +0.000 HD
ENDBRANCH  30  32
ENDBRANCH  29  30
ENDBRANCH  28  29
ENDBRANCH  19  20
ENDBRANCH  18  19
ENDBRANCH   1  18
TORSDOF 11
ENDMDL
MODEL 2
REMARK VINA RESULT:      -7.9      1.697      2.523
REMARK  Name = 
REMARK  12 active torsions:
REMARK  status: ('A' for Active; 'I' for Inactive)
REMARK    1  A    between atoms: C_1  and  O_2
REMARK    2  A    between atoms: O_2  and  C_3
REMARK    3  A    between atoms: C_8  and  C_9
REMARK    4  A    between atoms: C_12  and  O_13
REMARK    5  A    between atoms: O_13  and  C_14
REMARK    6  A    between atoms: C_14  and  C_15
REMARK    7  A    between atoms: C_15  and  C_16
REMARK    8  A    between atoms: C_16  and  O_17
REMARK    9  A    between atoms: O_17  and  C_18
REMARK   10  A    between atoms: C_26  and  C_27
REMARK   11  A    between atoms: C_27  and  C_28
REMARK   12  A    between atoms: C_28  and  O_30
REMARK                            x       y       z     vdW  Elec       q    Type
REMARK                         _______ _______ _______ _____ _____    ______ ____
ROOT
ATOM      1  C   UNL     1       1.486   3.941  21.041  0.00  0.00    +0.000 C 
ENDROOT
BRANCH   1   2
ATOM      2  C   UNL     1       1.471   5.256  20.274  0.00  0.00    +0.000 C 
BRANCH   2   3
ATOM      3  O   UNL     1       1.646   6.315  21.209  0.00  0.00    +0.000 OA
BRANCH   3   7
ATOM      4  C   UNL     1       0.929  10.249  19.893  0.00  0.00    +0.000 A 
ATOM      5  C   UNL     1       0.573   9.778  21.172  0.00  0.00    +0.000 A 
ATOM      6  C   UNL     1       0.839   8.467  21.578  0.00  0.00    +0.000 A 
ATOM      7  C   UNL     1       1.434   7.568  20.703  0.00  0.00    +0.000 A 
ATOM      8  C   UNL     1       1.799   7.997  19.430  0.00  0.00    +0.000 A 
ATOM      9  C   UNL     1       1.561   9.321  19.041  0.00  0.00    +0.000 A 
BRANCH   4  15
ATOM     10  C   UNL     1      -0.368  12.099  18.671  0.00  0.00    +0.000 A 
ATOM     11  C   UNL     1      -0.504  13.458  18.362  0.00  0.00    +0.000 A 
ATOM     12  C   UNL     1       0.425  14.349  18.858  0.00  0.00    +0.000 A 
ATOM     13  N   UNL     1       1.473  13.981  19.618  0.00  0.00    +0.000 NA
ATOM     14  C   UNL     1       1.576  12.665  19.909  0.00  0.00    +0.000 A 
ATOM     15  C   UNL     1       0.694  11.657  19.486  0.00  0.00    +0.000 A 
BRANCH  10  17
ATOM     16  C   UNL     1      -2.649  11.633  18.216  0.00  0.00    +0.000 C 
ATOM     17  O   UNL     1      -1.304  11.176  18.261  0.00  0.00    +0.000 OA
ENDBRANCH  10  17
ENDBRANCH   4  15
ENDBRANCH   3   7
ENDBRANCH   2   3
ENDBRANCH   1   2
BRANCH   1  18
ATOM     18  C   UNL     1       1.358   2.763  20.093  0.00  0.00    +0.000 C 
BRANCH  18  19
ATOM     19  O   UNL     1       2.627   2.115  20.000  0.00  0.00    +0.000 OA
BRANCH  19  20
ATOM     20  C   UNL     1       3.561   2.735  19.221  0.00  0.00    +0.000 A 
ATOM     21  C   UNL     1       3.341   2.613  17.839  0.00  0.00    +0.000 A 
ATOM     22  C   UNL     1       4.145   3.291  16.922  0.00  0.00    +0.000 A 
ATOM     23  C   UNL     1       5.144   4.114  17.413  0.00  0.00    +0.000 A 
ATOM     24  C   UNL     1       5.335   4.250  18.796  0.00  0.00    +0.000 A 
ATOM     25  C   UNL     1       4.609   3.515  19.708  0.00  0.00    +0.000 A 
ATOM     26  C   UNL     1       6.188   5.459  19.070  0.00  0.00    +0.000 C 
ATOM     27  C   UNL     1       5.814   6.265  17.790  0.00  0.00    +0.000 C 
ATOM     28  C   UNL     1       5.984   5.162  16.698  0.00  0.00    +0.000 C 
BRANCH  28  29
ATOM     29  C   UNL     1       5.697   5.263  15.220  0.00  0.00    +0.000 C 
BRANCH  29  30
ATOM     30  C   UNL     1       6.713   4.751  14.242  0.00  0.00    +0.000 C 
ATOM     31  O   UNL     1       7.704   5.361  13.878  0.00  0.00    +0.000 OA
BRANCH  30  32
ATOM     32  O   UNL     1       6.375   3.533  13.744  0.00  0.00    +0.000 OA
ATOM     33  H   UNL     1       5.422   3.301  13.830  0.00  0.00    +0.000 HD
ENDBRANCH  30  32
ENDBRANCH  29  30
ENDBRANCH  28  29
ENDBRANCH  19  20
ENDBRANCH  18  19
ENDBRANCH   1  18
TORSDOF 11
ENDMDL
MODEL 3
REMARK VINA RESULT:      -7.8      6.045      9.139
REMARK  Name = 
REMARK  12 active torsions:
REMARK  status: ('A' for Active; 'I' for Inactive)
REMARK    1  A    between atoms: C_1  and  O_2
REMARK    2  A    between atoms: O_2  and  C_3
REMARK    3  A    between atoms: C_8  and  C_9
REMARK    4  A    between atoms: C_12  and  O_13
REMARK    5  A    between atoms: O_13  and  C_14
REMARK    6  A    between atoms: C_14  and  C_15
REMARK    7  A    between atoms: C_15  and  C_16
REMARK    8  A    between atoms: C_16  and  O_17
REMARK    9  A    between atoms: O_17  and  C_18
REMARK   10  A    between atoms: C_26  and  C_27
REMARK   11  A    between atoms: C_27  and  C_28
REMARK   12  A    between atoms: C_28  and  O_30
REMARK                            x       y       z     vdW  Elec       q    Type
REMARK                         _______ _______ _______ _____ _____    ______ ____
ROOT
ATOM      1  C   UNL     1       7.906   8.562  17.520  0.00  0.00    +0.000 C 
ENDROOT
BRANCH   1   2
ATOM      2  C   UNL     1       8.622   9.544  18.436  0.00  0.00    +0.000 C 
BRANCH   2   3
ATOM      3  O   UNL     1       9.701  10.121  17.708  0.00  0.00    +0.000 OA
BRANCH   3   7
ATOM      4  C   UNL     1      10.481  14.221  18.257  0.00  0.00    +0.000 A 
ATOM      5  C   UNL     1      11.490  13.246  18.127  0.00  0.00    +0.000 A 
ATOM      6  C   UNL     1      11.192  11.895  17.933  0.00  0.00    +0.000 A 
ATOM      7  C   UNL     1       9.872  11.464  17.904  0.00  0.00    +0.000 A 
ATOM      8  C   UNL     1       8.848  12.398  18.030  0.00  0.00    +0.000 A 
ATOM      9  C   UNL     1       9.152  13.756  18.191  0.00  0.00    +0.000 A 
BRANCH   4  15
ATOM     10  C   UNL     1      10.874  16.352  19.636  0.00  0.00    +0.000 A 
ATOM     11  C   UNL     1      11.203  17.714  19.664  0.00  0.00    +0.000 A 
ATOM     12  C   UNL     1      11.443  18.364  18.471  0.00  0.00    +0.000 A 
ATOM     13  N   UNL     1      11.363  17.763  17.269  0.00  0.00    +0.000 NA
ATOM     14  C   UNL     1      11.052  16.447  17.271  0.00  0.00    +0.000 A 
ATOM     15  C   UNL     1      10.803  15.662  18.409  0.00  0.00    +0.000 A 
BRANCH  10  17
ATOM     16  C   UNL     1      10.765  16.386  22.005  0.00  0.00    +0.000 C 
ATOM     17  O   UNL     1      10.694  15.638  20.799  0.00  0.00    +0.000 OA
ENDBRANCH  10  17
ENDBRANCH   4  15
ENDBRANCH   3   7
ENDBRANCH   2   3
ENDBRANCH   1   2
BRANCH   1  18
ATOM     18  C   UNL     1       7.905   7.167  18.120  0.00  0.00    +0.000 C 
BRANCH  18  19
ATOM     19  O   UNL     1       7.077   6.327  17.316  0.00  0.00    +0.000 OA
BRANCH  19  20
ATOM     20  C   UNL     1       5.842   6.041  17.823  0.00  0.00    +0.000 A 
ATOM     21  C   UNL     1       5.839   5.070  18.838  0.00  0.00    +0.000 A 
ATOM     22  C   UNL     1       4.669   4.759  19.531  0.00  0.00    +0.000 A 
ATOM     23  C   UNL     1       3.517   5.458  19.212  0.00  0.00    +0.000 A 
ATOM     24  C   UNL     1       3.538   6.446  18.216  0.00  0.00    +0.000 A 
ATOM     25  C   UNL     1       4.665   6.696  17.462  0.00  0.00    +0.000 A 
ATOM     26  C   UNL     1       2.307   7.302  18.329  0.00  0.00    +0.000 C 
ATOM     27  C   UNL     1       2.051   7.090  19.852  0.00  0.00    +0.000 C 
ATOM     28  C   UNL     1       2.189   5.537  19.950  0.00  0.00    +0.000 C 
BRANCH  28  29
ATOM     29  C   UNL     1       2.130   4.675  21.187  0.00  0.00    +0.000 C 
BRANCH  29  30
ATOM     30  C   UNL     1       1.464   3.332  21.109  0.00  0.00    +0.000 C 
ATOM     31  O   UNL     1       1.708   2.387  21.840  0.00  0.00    +0.000 OA
BRANCH  30  32
ATOM     32  O   UNL     1       0.584   3.256  20.077  0.00  0.00    +0.000 OA
ATOM     33  H   UNL     1       0.307   2.343  19.836  0.00  0.00    +0.000 HD
ENDBRANCH  30  32
ENDBRANCH  29  30
ENDBRANCH  28  29
ENDBRANCH  19  20
ENDBRANCH  18  19
ENDBRANCH   1  18
TORSDOF 11
ENDMDL
MODEL 4
REMARK VINA RESULT:      -7.7      2.180      3.003
REMARK  Name = 
REMARK  12 active torsions:
REMARK  status: ('A' for Active; 'I' for Inactive)
REMARK    1  A    between atoms: C_1  and  O_2
REMARK    2  A    between atoms: O_2  and  C_3
REMARK    3  A    between atoms: C_8  and  C_9
REMARK    4  A    between atoms: C_12  and  O_13
REMARK    5  A    between atoms: O_13  and  C_14
REMARK    6  A    between atoms: C_14  and  C_15
REMARK    7  A    between atoms: C_15  and  C_16
REMARK    8  A    between atoms: C_16  and  O_17
REMARK    9  A    between atoms: O_17  and  C_18
REMARK   10  A    between atoms: C_26  and  C_27
REMARK   11  A    between atoms: C_27  and  C_28
REMARK   12  A    between atoms: C_28  and  O_30
REMARK                            x       y       z     vdW  Elec       q    Type
REMARK                         _______ _______ _______ _____ _____    ______ ____
ROOT
ATOM      1  C   UNL     1       1.149   4.501  20.227  0.00  0.00    +0.000 C 
ENDROOT
BRANCH   1   2
ATOM      2  C   UNL     1       2.147   5.503  20.790  0.00  0.00    +0.000 C 
BRANCH   2   3
ATOM      3  O   UNL     1       2.454   6.444  19.768  0.00  0.00    +0.000 OA
BRANCH   3   7
ATOM      4  C   UNL     1       0.657  10.245  19.980  0.00  0.00    +0.000 A 
ATOM      5  C   UNL     1       1.263   9.734  18.816  0.00  0.00    +0.000 A 
ATOM      6  C   UNL     1       1.839   8.461  18.780  0.00  0.00    +0.000 A 
ATOM      7  C   UNL     1       1.865   7.670  19.921  0.00  0.00    +0.000 A 
ATOM      8  C   UNL     1       1.277   8.142  21.091  0.00  0.00    +0.000 A 
ATOM      9  C   UNL     1       0.671   9.405  21.112  0.00  0.00    +0.000 A 
BRANCH   4  15
ATOM     10  C   UNL     1       0.669  12.813  19.918  0.00  0.00    +0.000 A 
ATOM     11  C   UNL     1      -0.056  14.012  19.928  0.00  0.00    +0.000 A 
ATOM     12  C   UNL     1      -1.431  13.957  20.029  0.00  0.00    +0.000 A 
ATOM     13  N   UNL     1      -2.121  12.806  20.134  0.00  0.00    +0.000 NA
ATOM     14  C   UNL     1      -1.399  11.664  20.114  0.00  0.00    +0.000 A 
ATOM     15  C   UNL     1      -0.001  11.576  19.998  0.00  0.00    +0.000 A 
BRANCH  10  17
ATOM     16  C   UNL     1       2.783  13.537  20.713  0.00  0.00    +0.000 C 
ATOM     17  O   UNL     1       2.035  12.806  19.750  0.00  0.00    +0.000 OA
ENDBRANCH  10  17
ENDBRANCH   4  15
ENDBRANCH   3   7
ENDBRANCH   2   3
ENDBRANCH   1   2
BRANCH   1  18
ATOM     18  C   UNL     1       1.862   3.276  19.685  0.00  0.00    +0.000 C 
BRANCH  18  19
ATOM     19  O   UNL     1       3.227   3.324  20.099  0.00  0.00    +0.000 OA
BRANCH  19  20
ATOM     20  C   UNL     1       4.140   3.611  19.125  0.00  0.00    +0.000 A 
ATOM     21  C   UNL     1       3.697   3.353  17.818  0.00  0.00    +0.000 A 
ATOM     22  C   UNL     1       4.475   3.706  16.714  0.00  0.00    +0.000 A 
ATOM     23  C   UNL     1       5.680   4.347  16.944  0.00  0.00    +0.000 A 
ATOM     24  C   UNL     1       6.098   4.626  18.253  0.00  0.00    +0.000 A 
ATOM     25  C   UNL     1       5.383   4.199  19.352  0.00  0.00    +0.000 A 
ATOM     26  C   UNL     1       7.206   5.642  18.223  0.00  0.00    +0.000 C 
ATOM     27  C   UNL     1       6.815   6.329  16.880  0.00  0.00    +0.000 C 
ATOM     28  C   UNL     1       6.596   5.077  15.973  0.00  0.00    +0.000 C 
BRANCH  28  29
ATOM     29  C   UNL     1       6.119   5.037  14.542  0.00  0.00    +0.000 C 
BRANCH  29  30
ATOM     30  C   UNL     1       7.124   4.862  13.441  0.00  0.00    +0.000 C 
ATOM     31  O   UNL     1       7.003   4.099  12.498  0.00  0.00    +0.000 OA
BRANCH  30  32
ATOM     32  O   UNL     1       8.239   5.613  13.642  0.00  0.00    +0.000 OA
ATOM     33  H   UNL     1       8.375   5.911  14.570  0.00  0.00    +0.000 HD
ENDBRANCH  30  32
ENDBRANCH  29  30
ENDBRANCH  28  29
ENDBRANCH  19  20
ENDBRANCH  18  19
ENDBRANCH   1  18
TORSDOF 11
ENDMDL
MODEL 5
REMARK VINA RESULT:      -7.7      5.182      8.410
REMARK  Name = 
REMARK  12 active torsions:
REMARK  status: ('A' for Active; 'I' for Inactive)
REMARK    1  A    between atoms: C_1  and  O_2
REMARK    2  A    between atoms: O_2  and  C_3
REMARK    3  A    between atoms: C_8  and  C_9
REMARK    4  A    between atoms: C_12  and  O_13
REMARK    5  A    between atoms: O_13  and  C_14
REMARK    6  A    between atoms: C_14  and  C_15
REMARK    7  A    between atoms: C_15  and  C_16
REMARK    8  A    between atoms: C_16  and  O_17
REMARK    9  A    between atoms: O_17  and  C_18
REMARK   10  A    between atoms: C_26  and  C_27
REMARK   11  A    between atoms: C_27  and  C_28
REMARK   12  A    between atoms: C_28  and  O_30
REMARK                            x       y       z     vdW  Elec       q    Type
REMARK                         _______ _______ _______ _____ _____    ______ ____
ROOT
ATOM      1  C   UNL     1       7.836   6.995  18.118  0.00  0.00    +0.000 C 
ENDROOT
BRANCH   1   2
ATOM      2  C   UNL     1       8.572   8.187  18.712  0.00  0.00    +0.000 C 
BRANCH   2   3
ATOM      3  O   UNL     1       8.422   9.288  17.822  0.00  0.00    +0.000 OA
BRANCH   3   7
ATOM      4  C   UNL     1       9.898  12.853  19.504  0.00  0.00    +0.000 A 
ATOM      5  C   UNL     1      10.161  11.575  20.033  0.00  0.00    +0.000 A 
ATOM      6  C   UNL     1       9.664  10.411  19.439  0.00  0.00    +0.000 A 
ATOM      7  C   UNL     1       8.849  10.489  18.317  0.00  0.00    +0.000 A 
ATOM      8  C   UNL     1       8.566  11.736  17.767  0.00  0.00    +0.000 A 
ATOM      9  C   UNL     1       9.095  12.896  18.346  0.00  0.00    +0.000 A 
BRANCH   4  15
ATOM     10  C   UNL     1       9.959  14.748  21.238  0.00  0.00    +0.000 A 
ATOM     11  C   UNL     1      10.594  15.894  21.733  0.00  0.00    +0.000 A 
ATOM     12  C   UNL     1      11.720  16.362  21.087  0.00  0.00    +0.000 A 
ATOM     13  N   UNL     1      12.239  15.783  19.989  0.00  0.00    +0.000 NA
ATOM     14  C   UNL     1      11.613  14.674  19.537  0.00  0.00    +0.000 A 
ATOM     15  C   UNL     1      10.473  14.082  20.107  0.00  0.00    +0.000 A 
BRANCH  10  17
ATOM     16  C   UNL     1       7.638  14.877  21.710  0.00  0.00    +0.000 C 
ATOM     17  O   UNL     1       8.875  14.197  21.883  0.00  0.00    +0.000 OA
ENDBRANCH  10  17
ENDBRANCH   4  15
ENDBRANCH   3   7
ENDBRANCH   2   3
ENDBRANCH   1   2
BRANCH   1  18
ATOM     18  C   UNL     1       7.497   7.243  16.659  0.00  0.00    +0.000 C 
BRANCH  18  19
ATOM     19  O   UNL     1       6.862   6.078  16.135  0.00  0.00    +0.000 OA
BRANCH  19  20
ATOM     20  C   UNL     1       5.649   5.761  16.676  0.00  0.00    +0.000 A 
ATOM     21  C   UNL     1       5.528   4.425  17.094  0.00  0.00    +0.000 A 
ATOM     22  C   UNL     1       4.391   3.985  17.771  0.00  0.00    +0.000 A 
ATOM     23  C   UNL     1       3.399   4.910  18.050  0.00  0.00    +0.000 A 
ATOM     24  C   UNL     1       3.544   6.248  17.654  0.00  0.00    +0.000 A 
ATOM     25  C   UNL     1       4.620   6.673  16.904  0.00  0.00    +0.000 A 
ATOM     26  C   UNL     1       2.552   7.103  18.394  0.00  0.00    +0.000 C 
ATOM     27  C   UNL     1       2.404   6.198  19.654  0.00  0.00    +0.000 C 
ATOM     28  C   UNL     1       2.201   4.803  18.981  0.00  0.00    +0.000 C 
BRANCH  28  29
ATOM     29  C   UNL     1       2.071   3.458  19.651  0.00  0.00    +0.000 C 
BRANCH  29  30
ATOM     30  C   UNL     1       1.381   2.342  18.921  0.00  0.00    +0.000 C 
ATOM     31  O   UNL     1       0.252   2.397  18.465  0.00  0.00    +0.000 OA
BRANCH  30  32
ATOM     32  O   UNL     1       2.140   1.216  18.874  0.00  0.00    +0.000 OA
ATOM     33  H   UNL     1       2.928   1.273  18.287  0.00  0.00    +0.000 HD
ENDBRANCH  30  32
ENDBRANCH  29  30
ENDBRANCH  28  29
ENDBRANCH  19  20
ENDBRANCH  18  19
ENDBRANCH   1  18
TORSDOF 11
ENDMDL
MODEL 6
REMARK VINA RESULT:      -7.6      4.446      6.271
REMARK  Name = 
REMARK  12 active torsions:
REMARK  status: ('A' for Active; 'I' for Inactive)
REMARK    1  A    between atoms: C_1  and  O_2
REMARK    2  A    between atoms: O_2  and  C_3
REMARK    3  A    between atoms: C_8  and  C_9
REMARK    4  A    between atoms: C_12  and  O_13
REMARK    5  A    between atoms: O_13  and  C_14
REMARK    6  A    between atoms: C_14  and  C_15
REMARK    7  A    between atoms: C_15  and  C_16
REMARK    8  A    between atoms: C_16  and  O_17
REMARK    9  A    between atoms: O_17  and  C_18
REMARK   10  A    between atoms: C_26  and  C_27
REMARK   11  A    between atoms: C_27  and  C_28
REMARK   12  A    between atoms: C_28  and  O_30
REMARK                            x       y       z     vdW  Elec       q    Type
REMARK                         _______ _______ _______ _____ _____    ______ ____
ROOT
ATOM      1  C   UNL     1       0.253  10.292  19.205  0.00  0.00    +0.000 C 
ENDROOT
BRANCH   1   2
ATOM      2  C   UNL     1      -0.074  10.173  20.687  0.00  0.00    +0.000 C 
BRANCH   2   3
ATOM      3  O   UNL     1      -0.167  11.487  21.225  0.00  0.00    +0.000 OA
BRANCH   3   7
ATOM      4  C   UNL     1      -4.028  12.789  22.281  0.00  0.00    +0.000 A 
ATOM      5  C   UNL     1      -3.095  12.286  23.208  0.00  0.00    +0.000 A 
ATOM      6  C   UNL     1      -1.816  11.875  22.822  0.00  0.00    +0.000 A 
ATOM      7  C   UNL     1      -1.440  11.913  21.486  0.00  0.00    +0.000 A 
ATOM      8  C   UNL     1      -2.336  12.402  20.540  0.00  0.00    +0.000 A 
ATOM      9  C   UNL     1      -3.605  12.845  20.938  0.00  0.00    +0.000 A 
BRANCH   4  15
ATOM     10  C   UNL     1      -6.596  12.705  22.316  0.00  0.00    +0.000 A 
ATOM     11  C   UNL     1      -7.802  13.237  22.790  0.00  0.00    +0.000 A 
ATOM     12  C   UNL     1      -7.762  14.331  23.630  0.00  0.00    +0.000 A 
ATOM     13  N   UNL     1      -6.619  14.931  24.012  0.00  0.00    +0.000 NA
ATOM     14  C   UNL     1      -5.469  14.393  23.548  0.00  0.00    +0.000 A 
ATOM     15  C   UNL     1      -5.366  13.274  22.704  0.00  0.00    +0.000 A 
BRANCH  10  17
ATOM     16  C   UNL     1      -7.841  11.073  21.127  0.00  0.00    +0.000 C 
ATOM     17  O   UNL     1      -6.573  11.574  21.532  0.00  0.00    +0.000 OA
ENDBRANCH  10  17
ENDBRANCH   4  15
ENDBRANCH   3   7
ENDBRANCH   2   3
ENDBRANCH   1   2
BRANCH   1  18
ATOM     18  C   UNL     1       1.648   9.768  18.917  0.00  0.00    +0.000 C 
BRANCH  18  19
ATOM     19  O   UNL     1       1.542   8.657  18.027  0.00  0.00    +0.000 OA
BRANCH  19  20
ATOM     20  C   UNL     1       2.453   7.656  18.206  0.00  0.00    +0.000 A 
ATOM     21  C   UNL     1       2.148   6.771  19.252  0.00  0.00    +0.000 A 
ATOM     22  C   UNL     1       2.922   5.633  19.479  0.00  0.00    +0.000 A 
ATOM     23  C   UNL     1       3.981   5.383  18.621  0.00  0.00    +0.000 A 
ATOM     24  C   UNL     1       4.258   6.259  17.562  0.00  0.00    +0.000 A 
ATOM     25  C   UNL     1       3.558   7.434  17.385  0.00  0.00    +0.000 A 
ATOM     26  C   UNL     1       5.173   5.585  16.577  0.00  0.00    +0.000 C 
ATOM     27  C   UNL     1       4.757   4.115  16.886  0.00  0.00    +0.000 C 
ATOM     28  C   UNL     1       4.818   4.125  18.447  0.00  0.00    +0.000 C 
BRANCH  28  29
ATOM     29  C   UNL     1       4.449   3.014  19.399  0.00  0.00    +0.000 C 
BRANCH  29  30
ATOM     30  C   UNL     1       3.578   1.893  18.911  0.00  0.00    +0.000 C 
ATOM     31  O   UNL     1       2.359   1.893  18.935  0.00  0.00    +0.000 OA
BRANCH  30  32
ATOM     32  O   UNL     1       4.306   0.827  18.488  0.00  0.00    +0.000 OA
ATOM     33  H   UNL     1       5.091   1.054  17.939  0.00  0.00    +0.000 HD
ENDBRANCH  30  32
ENDBRANCH  29  30
ENDBRANCH  28  29
ENDBRANCH  19  20
ENDBRANCH  18  19
ENDBRANCH   1  18
TORSDOF 11
ENDMDL
MODEL 7
REMARK VINA RESULT:      -7.5      3.045      9.687
REMARK  Name = 
REMARK  12 active torsions:
REMARK  status: ('A' for Active; 'I' for Inactive)
REMARK    1  A    between atoms: C_1  and  O_2
REMARK    2  A    between atoms: O_2  and  C_3
REMARK    3  A    between atoms: C_8  and  C_9
REMARK    4  A    between atoms: C_12  and  O_13
REMARK    5  A    between atoms: O_13  and  C_14
REMARK    6  A    between atoms: C_14  and  C_15
REMARK    7  A    between atoms: C_15  and  C_16
REMARK    8  A    between atoms: C_16  and  O_17
REMARK    9  A    between atoms: O_17  and  C_18
REMARK   10  A    between atoms: C_26  and  C_27
REMARK   11  A    between atoms: C_27  and  C_28
REMARK   12  A    between atoms: C_28  and  O_30
REMARK                            x       y       z     vdW  Elec       q    Type
REMARK                         _______ _______ _______ _____ _____    ______ ____
ROOT
ATOM      1  C   UNL     1       0.978   9.241  21.635  0.00  0.00    +0.000 C 
ENDROOT
BRANCH   1   2
ATOM      2  C   UNL     1       0.926   8.329  20.417  0.00  0.00    +0.000 C 
BRANCH   2   3
ATOM      3  O   UNL     1       1.751   7.199  20.676  0.00  0.00    +0.000 OA
BRANCH   3   7
ATOM      4  C   UNL     1       4.400   5.937  17.658  0.00  0.00    +0.000 A 
ATOM      5  C   UNL     1       4.181   5.222  18.851  0.00  0.00    +0.000 A 
ATOM      6  C   UNL     1       3.283   5.666  19.825  0.00  0.00    +0.000 A 
ATOM      7  C   UNL     1       2.603   6.865  19.659  0.00  0.00    +0.000 A 
ATOM      8  C   UNL     1       2.795   7.601  18.493  0.00  0.00    +0.000 A 
ATOM      9  C   UNL     1       3.671   7.133  17.504  0.00  0.00    +0.000 A 
BRANCH   4  15
ATOM     10  C   UNL     1       6.711   5.624  16.579  0.00  0.00    +0.000 A 
ATOM     11  C   UNL     1       7.481   5.089  15.538  0.00  0.00    +0.000 A 
ATOM     12  C   UNL     1       6.846   4.387  14.535  0.00  0.00    +0.000 A 
ATOM     13  N   UNL     1       5.514   4.197  14.490  0.00  0.00    +0.000 NA
ATOM     14  C   UNL     1       4.796   4.716  15.511  0.00  0.00    +0.000 A 
ATOM     15  C   UNL     1       5.315   5.434  16.602  0.00  0.00    +0.000 A 
BRANCH  10  17
ATOM     16  C   UNL     1       7.657   7.630  17.419  0.00  0.00    +0.000 C 
ATOM     17  O   UNL     1       7.299   6.273  17.642  0.00  0.00    +0.000 OA
ENDBRANCH  10  17
ENDBRANCH   4  15
ENDBRANCH   3   7
ENDBRANCH   2   3
ENDBRANCH   1   2
BRANCH   1  18
ATOM     18  C   UNL     1       0.451  10.624  21.296  0.00  0.00    +0.000 C 
BRANCH  18  19
ATOM     19  O   UNL     1       0.474  10.784  19.878  0.00  0.00    +0.000 OA
BRANCH  19  20
ATOM     20  C   UNL     1      -0.737  10.744  19.250  0.00  0.00    +0.000 A 
ATOM     21  C   UNL     1      -1.686  11.647  19.756  0.00  0.00    +0.000 A 
ATOM     22  C   UNL     1      -2.929  11.803  19.141  0.00  0.00    +0.000 A 
ATOM     23  C   UNL     1      -3.187  11.066  17.997  0.00  0.00    +0.000 A 
ATOM     24  C   UNL     1      -2.221  10.188  17.485  0.00  0.00    +0.000 A 
ATOM     25  C   UNL     1      -1.028   9.957  18.136  0.00  0.00    +0.000 A 
ATOM     26  C   UNL     1      -2.575   9.819  16.070  0.00  0.00    +0.000 C 
ATOM     27  C   UNL     1      -3.385  11.104  15.721  0.00  0.00    +0.000 C 
ATOM     28  C   UNL     1      -4.307  11.210  16.977  0.00  0.00    +0.000 C 
BRANCH  28  29
ATOM     29  C   UNL     1      -5.298  12.296  17.314  0.00  0.00    +0.000 C 
BRANCH  29  30
ATOM     30  C   UNL     1      -6.665  11.912  17.801  0.00  0.00    +0.000 C 
ATOM     31  O   UNL     1      -6.935  10.874  18.381  0.00  0.00    +0.000 OA
BRANCH  30  32
ATOM     32  O   UNL     1      -7.605  12.835  17.467  0.00  0.00    +0.000 OA
ATOM     33  H   UNL     1      -8.525  12.600  17.726  0.00  0.00    +0.000 HD
ENDBRANCH  30  32
ENDBRANCH  29  30
ENDBRANCH  28  29
ENDBRANCH  19  20
ENDBRANCH  18  19
ENDBRANCH   1  18
TORSDOF 11
ENDMDL
MODEL 8
REMARK VINA RESULT:      -7.5      5.700      8.367
REMARK  Name = 
REMARK  12 active torsions:
REMARK  status: ('A' for Active; 'I' for Inactive)
REMARK    1  A    between atoms: C_1  and  O_2
REMARK    2  A    between atoms: O_2  and  C_3
REMARK    3  A    between atoms: C_8  and  C_9
REMARK    4  A    between atoms: C_12  and  O_13
REMARK    5  A    between atoms: O_13  and  C_14
REMARK    6  A    between atoms: C_14  and  C_15
REMARK    7  A    between atoms: C_15  and  C_16
REMARK    8  A    between atoms: C_16  and  O_17
REMARK    9  A    between atoms: O_17  and  C_18
REMARK   10  A    between atoms: C_26  and  C_27
REMARK   11  A    between atoms: C_27  and  C_28
REMARK   12  A    between atoms: C_28  and  O_30
REMARK                            x       y       z     vdW  Elec       q    Type
REMARK                         _______ _______ _______ _____ _____    ______ ____
ROOT
ATOM      1  C   UNL     1       8.295   8.166  18.475  0.00  0.00    +0.000 C 
ENDROOT
BRANCH   1   2
ATOM      2  C   UNL     1       8.179   9.593  17.960  0.00  0.00    +0.000 C 
BRANCH   2   3
ATOM      3  O   UNL     1       9.460  10.206  18.065  0.00  0.00    +0.000 OA
BRANCH   3   7
ATOM      4  C   UNL     1       9.678  14.409  17.973  0.00  0.00    +0.000 A 
ATOM      5  C   UNL     1      10.737  13.583  18.396  0.00  0.00    +0.000 A 
ATOM      6  C   UNL     1      10.632  12.189  18.401  0.00  0.00    +0.000 A 
ATOM      7  C   UNL     1       9.447  11.574  18.021  0.00  0.00    +0.000 A 
ATOM      8  C   UNL     1       8.378  12.357  17.598  0.00  0.00    +0.000 A 
ATOM      9  C   UNL     1       8.500  13.752  17.562  0.00  0.00    +0.000 A 
BRANCH   4  15
ATOM     10  C   UNL     1       8.871  16.806  18.421  0.00  0.00    +0.000 A 
ATOM     11  C   UNL     1       9.110  18.184  18.330  0.00  0.00    +0.000 A 
ATOM     12  C   UNL     1      10.273  18.619  17.730  0.00  0.00    +0.000 A 
ATOM     13  N   UNL     1      11.195  17.788  17.209  0.00  0.00    +0.000 NA
ATOM     14  C   UNL     1      10.945  16.464  17.318  0.00  0.00    +0.000 A 
ATOM     15  C   UNL     1       9.813  15.887  17.918  0.00  0.00    +0.000 A 
BRANCH  10  17
ATOM     16  C   UNL     1       6.670  17.217  19.204  0.00  0.00    +0.000 C 
ATOM     17  O   UNL     1       7.761  16.315  19.070  0.00  0.00    +0.000 OA
ENDBRANCH  10  17
ENDBRANCH   4  15
ENDBRANCH   3   7
ENDBRANCH   2   3
ENDBRANCH   1   2
BRANCH   1  18
ATOM     18  C   UNL     1       7.863   7.172  17.411  0.00  0.00    +0.000 C 
BRANCH  18  19
ATOM     19  O   UNL     1       6.555   7.526  16.964  0.00  0.00    +0.000 OA
BRANCH  19  20
ATOM     20  C   UNL     1       5.573   6.605  17.193  0.00  0.00    +0.000 A 
ATOM     21  C   UNL     1       6.037   5.292  17.380  0.00  0.00    +0.000 A 
ATOM     22  C   UNL     1       5.163   4.266  17.739  0.00  0.00    +0.000 A 
ATOM     23  C   UNL     1       3.831   4.585  17.939  0.00  0.00    +0.000 A 
ATOM     24  C   UNL     1       3.384   5.904  17.778  0.00  0.00    +0.000 A 
ATOM     25  C   UNL     1       4.219   6.907  17.334  0.00  0.00    +0.000 A 
ATOM     26  C   UNL     1       2.030   6.059  18.414  0.00  0.00    +0.000 C 
ATOM     27  C   UNL     1       2.172   4.925  19.473  0.00  0.00    +0.000 C 
ATOM     28  C   UNL     1       2.718   3.767  18.579  0.00  0.00    +0.000 C 
BRANCH  28  29
ATOM     29  C   UNL     1       3.150   2.386  19.006  0.00  0.00    +0.000 C 
BRANCH  29  30
ATOM     30  C   UNL     1       3.890   2.220  20.301  0.00  0.00    +0.000 C 
ATOM     31  O   UNL     1       3.432   2.461  21.405  0.00  0.00    +0.000 OA
BRANCH  30  32
ATOM     32  O   UNL     1       5.176   1.824  20.109  0.00  0.00    +0.000 OA
ATOM     33  H   UNL     1       5.856   2.468  20.409  0.00  0.00    +0.000 HD
ENDBRANCH  30  32
ENDBRANCH  29  30
ENDBRANCH  28  29
ENDBRANCH  19  20
ENDBRANCH  18  19
ENDBRANCH   1  18
TORSDOF 11
ENDMDL
MODEL 9
REMARK VINA RESULT:      -7.5      4.259      5.572
REMARK  Name = 
REMARK  12 active torsions:
REMARK  status: ('A' for Active; 'I' for Inactive)
REMARK    1  A    between atoms: C_1  and  O_2
REMARK    2  A    between atoms: O_2  and  C_3
REMARK    3  A    between atoms: C_8  and  C_9
REMARK    4  A    between atoms: C_12  and  O_13
REMARK    5  A    between atoms: O_13  and  C_14
REMARK    6  A    between atoms: C_14  and  C_15
REMARK    7  A    between atoms: C_15  and  C_16
REMARK    8  A    between atoms: C_16  and  O_17
REMARK    9  A    between atoms: O_17  and  C_18
REMARK   10  A    between atoms: C_26  and  C_27
REMARK   11  A    between atoms: C_27  and  C_28
REMARK   12  A    between atoms: C_28  and  O_30
REMARK                            x       y       z     vdW  Elec       q    Type
REMARK                         _______ _______ _______ _____ _____    ______ ____
ROOT
ATOM      1  C   UNL     1       0.578   8.288  21.264  0.00  0.00    +0.000 C 
ENDROOT
BRANCH   1   2
ATOM      2  C   UNL     1       1.050   9.560  21.953  0.00  0.00    +0.000 C 
BRANCH   2   3
ATOM      3  O   UNL     1       0.748  10.661  21.103  0.00  0.00    +0.000 OA
BRANCH   3   7
ATOM      4  C   UNL     1      -2.844  12.558  22.204  0.00  0.00    +0.000 A 
ATOM      5  C   UNL     1      -2.054  11.808  23.096  0.00  0.00    +0.000 A 
ATOM      6  C   UNL     1      -0.859  11.203  22.697  0.00  0.00    +0.000 A 
ATOM      7  C   UNL     1      -0.434  11.291  21.378  0.00  0.00    +0.000 A 
ATOM      8  C   UNL     1      -1.189  12.023  20.467  0.00  0.00    +0.000 A 
ATOM      9  C   UNL     1      -2.368  12.656  20.881  0.00  0.00    +0.000 A 
BRANCH   4  15
ATOM     10  C   UNL     1      -4.130  14.388  23.468  0.00  0.00    +0.000 A 
ATOM     11  C   UNL     1      -5.360  14.965  23.811  0.00  0.00    +0.000 A 
ATOM     12  C   UNL     1      -6.520  14.385  23.339  0.00  0.00    +0.000 A 
ATOM     13  N   UNL     1      -6.538  13.279  22.574  0.00  0.00    +0.000 NA
ATOM     14  C   UNL     1      -5.338  12.747  22.250  0.00  0.00    +0.000 A 
ATOM     15  C   UNL     1      -4.085  13.244  22.646  0.00  0.00    +0.000 A 
BRANCH  10  17
ATOM     16  C   UNL     1      -3.043  16.079  24.728  0.00  0.00    +0.000 C 
ATOM     17  O   UNL     1      -2.940  14.964  23.852  0.00  0.00    +0.000 OA
ENDBRANCH  10  17
ENDBRANCH   4  15
ENDBRANCH   3   7
ENDBRANCH   2   3
ENDBRANCH   1   2
BRANCH   1  18
ATOM     18  C   UNL     1       1.756   7.496  20.725  0.00  0.00    +0.000 C 
BRANCH  18  19
ATOM     19  O   UNL     1       2.015   7.921  19.388  0.00  0.00    +0.000 OA
BRANCH  19  20
ATOM     20  C   UNL     1       2.617   7.005  18.573  0.00  0.00    +0.000 A 
ATOM     21  C   UNL     1       3.897   7.373  18.128  0.00  0.00    +0.000 A 
ATOM     22  C   UNL     1       4.682   6.489  17.387  0.00  0.00    +0.000 A 
ATOM     23  C   UNL     1       4.175   5.226  17.131  0.00  0.00    +0.000 A 
ATOM     24  C   UNL     1       2.907   4.860  17.605  0.00  0.00    +0.000 A 
ATOM     25  C   UNL     1       2.087   5.755  18.258  0.00  0.00    +0.000 A 
ATOM     26  C   UNL     1       2.758   3.364  17.540  0.00  0.00    +0.000 C 
ATOM     27  C   UNL     1       4.270   3.004  17.653  0.00  0.00    +0.000 C 
ATOM     28  C   UNL     1       4.876   3.985  16.600  0.00  0.00    +0.000 C 
BRANCH  28  29
ATOM     29  C   UNL     1       6.330   4.206  16.264  0.00  0.00    +0.000 C 
BRANCH  29  30
ATOM     30  C   UNL     1       6.723   4.436  14.834  0.00  0.00    +0.000 C 
ATOM     31  O   UNL     1       7.402   5.367  14.436  0.00  0.00    +0.000 OA
BRANCH  30  32
ATOM     32  O   UNL     1       6.178   3.513  13.999  0.00  0.00    +0.000 OA
ATOM     33  H   UNL     1       6.695   3.342  13.178  0.00  0.00    +0.000 HD
ENDBRANCH  30  32
ENDBRANCH  29  30
ENDBRANCH  28  29
ENDBRANCH  19  20
ENDBRANCH  18  19
ENDBRANCH   1  18
TORSDOF 11
ENDMDL
