MODEL 1
REMARK VINA RESULT:      -8.2      0.000      0.000
REMARK  Name = 
REMARK  7 active torsions:
REMARK  status: ('A' for Active; 'I' for Inactive)
REMARK    1  A    between atoms: C_1  and  C_2
REMARK    2  A    between atoms: C_2  and  C_3
REMARK    3  A    between atoms: C_3  and  C_4
REMARK    4  A    between atoms: C_4  and  C_5
REMARK    5  A    between atoms: C_6  and  C_7
REMARK    6  A    between atoms: C_16  and  O_17
REMARK    7  A    between atoms: O_17  and  C_18
REMARK                            x       y       z     vdW  Elec       q    Type
REMARK                         _______ _______ _______ _____ _____    ______ ____
ROOT
ATOM      1  C   UNL     1       4.174   6.390  17.672  0.00  0.00    +0.000 A 
ATOM      2  C   UNL     1       3.377   7.539  17.446  0.00  0.00    +0.000 A 
ATOM      3  C   UNL     1       2.463   8.006  18.397  0.00  0.00    +0.000 A 
ATOM      4  C   UNL     1       1.733   9.194  18.166  0.00  0.00    +0.000 A 
ATOM      5  C   UNL     1       0.927   9.676  19.177  0.00  0.00    +0.000 A 
ATOM      6  N   UNL     1       0.809   9.079  20.372  0.00  0.00    +0.000 NA
ATOM      7  C   UNL     1       1.502   7.919  20.577  0.00  0.00    +0.000 A 
ATOM      8  C   UNL     1       2.330   7.308  19.612  0.00  0.00    +0.000 A 
ATOM      9  C   UNL     1       3.028   6.068  19.779  0.00  0.00    +0.000 A 
ATOM     10  C   UNL     1       3.901   5.564  18.789  0.00  0.00    +0.000 A 
ENDROOT
BRANCH   1  12
ATOM     11  C   UNL     1       5.303   5.617  15.694  0.00  0.00    +0.000 C 
ATOM     12  C   UNL     1       5.414   6.340  16.827  0.00  0.00    +0.000 C 
BRANCH  11  13
ATOM     13  C   UNL     1       6.166   5.019  14.607  0.00  0.00    +0.000 C 
BRANCH  13  14
ATOM     14  C   UNL     1       6.146   3.637  13.932  0.00  0.00    +0.000 C 
BRANCH  14  16
ATOM     15  C   UNL     1       4.848   3.253  11.804  0.00  0.00    +0.000 C 
ATOM     16  C   UNL     1       6.214   3.598  12.407  0.00  0.00    +0.000 C 
ENDBRANCH  14  16
ENDBRANCH  13  14
ENDBRANCH  11  13
ENDBRANCH   1  12
BRANCH  10  17
ATOM     17  O   UNL     1       4.513   4.321  18.807  0.00  0.00    +0.000 OA
BRANCH  17  18
ATOM     18  C   UNL     1       3.827   3.142  18.314  0.00  0.00    +0.000 C 
ATOM     19  C   UNL     1       2.686   3.565  17.360  0.00  0.00    +0.000 C 
ATOM     20  C   UNL     1       1.287   3.705  17.970  0.00  0.00    +0.000 C 
ATOM     21  N   UNL     1       0.934   2.636  18.899  0.00  0.00    +0.000 NA
ATOM     22  C   UNL     1       1.921   2.482  19.953  0.00  0.00    +0.000 C 
ATOM     23  C   UNL     1       3.326   2.200  19.420  0.00  0.00    +0.000 C 
ATOM     24  H   UNL     1       0.025   2.851  19.314  0.00  0.00    +0.000 HD
ENDBRANCH  17  18
ENDBRANCH  10  17
TORSDOF 6
ENDMDL
MODEL 2
REMARK VINA RESULT:      -8.1      1.068      1.625
REMARK  Name = 
REMARK  7 active torsions:
REMARK  status: ('A' for Active; 'I' for Inactive)
REMARK    1  A    between atoms: C_1  and  C_2
REMARK    2  A    between atoms: C_2  and  C_3
REMARK    3  A    between atoms: C_3  and  C_4
REMARK    4  A    between atoms: C_4  and  C_5
REMARK    5  A    between atoms: C_6  and  C_7
REMARK    6  A    between atoms: C_16  and  O_17
REMARK    7  A    between atoms: O_17  and  C_18
REMARK                            x       y       z     vdW  Elec       q    Type
REMARK                         _______ _______ _______ _____ _____    ______ ____
ROOT
ATOM      1  C   UNL     1       3.506   6.427  18.386  0.00  0.00    +0.000 A 
ATOM      2  C   UNL     1       2.888   7.541  17.769  0.00  0.00    +0.000 A 
ATOM      3  C   UNL     1       2.007   8.379  18.461  0.00  0.00    +0.000 A 
ATOM      4  C   UNL     1       1.460   9.520  17.833  0.00  0.00    +0.000 A 
ATOM      5  C   UNL     1       0.686  10.377  18.588  0.00  0.00    +0.000 A 
ATOM      6  N   UNL     1       0.434  10.186  19.891  0.00  0.00    +0.000 NA
ATOM      7  C   UNL     1       0.949   9.069  20.483  0.00  0.00    +0.000 A 
ATOM      8  C   UNL     1       1.725   8.101  19.812  0.00  0.00    +0.000 A 
ATOM      9  C   UNL     1       2.236   6.894  20.392  0.00  0.00    +0.000 A 
ATOM     10  C   UNL     1       3.072   6.015  19.669  0.00  0.00    +0.000 A 
ENDROOT
BRANCH   1  12
ATOM     11  C   UNL     1       4.609   4.938  16.852  0.00  0.00    +0.000 C 
ATOM     12  C   UNL     1       4.763   5.977  17.699  0.00  0.00    +0.000 C 
BRANCH  11  13
ATOM     13  C   UNL     1       5.435   3.933  16.082  0.00  0.00    +0.000 C 
BRANCH  13  14
ATOM     14  C   UNL     1       6.243   4.059  14.780  0.00  0.00    +0.000 C 
BRANCH  14  16
ATOM     15  C   UNL     1       6.090   3.290  12.382  0.00  0.00    +0.000 C 
ATOM     16  C   UNL     1       5.459   4.162  13.474  0.00  0.00    +0.000 C 
ENDBRANCH  14  16
ENDBRANCH  13  14
ENDBRANCH  11  13
ENDBRANCH   1  12
BRANCH  10  17
ATOM     17  O   UNL     1       3.504   4.770  20.101  0.00  0.00    +0.000 OA
BRANCH  17  18
ATOM     18  C   UNL     1       2.592   3.645  20.174  0.00  0.00    +0.000 C 
ATOM     19  C   UNL     1       3.341   2.343  19.804  0.00  0.00    +0.000 C 
ATOM     20  C   UNL     1       3.253   1.882  18.345  0.00  0.00    +0.000 C 
ATOM     21  N   UNL     1       1.918   1.998  17.765  0.00  0.00    +0.000 NA
ATOM     22  C   UNL     1       1.384   3.342  17.893  0.00  0.00    +0.000 C 
ATOM     23  C   UNL     1       1.312   3.821  19.343  0.00  0.00    +0.000 C 
ATOM     24  H   UNL     1       1.969   1.746  16.776  0.00  0.00    +0.000 HD
ENDBRANCH  17  18
ENDBRANCH  10  17
TORSDOF 6
ENDMDL
MODEL 3
REMARK VINA RESULT:      -8.0      1.813      2.745
REMARK  Name = 
REMARK  7 active torsions:
REMARK  status: ('A' for Active; 'I' for Inactive)
REMARK    1  A    between atoms: C_1  and  C_2
REMARK    2  A    between atoms: C_2  and  C_3
REMARK    3  A    between atoms: C_3  and  C_4
REMARK    4  A    between atoms: C_4  and  C_5
REMARK    5  A    between atoms: C_6  and  C_7
REMARK    6  A    between atoms: C_16  and  O_17
REMARK    7  A    between atoms: O_17  and  C_18
REMARK                            x       y       z     vdW  Elec       q    Type
REMARK                         _______ _______ _______ _____ _____    ______ ____
ROOT
ATOM      1  C   UNL     1       3.112   7.148  18.190  0.00  0.00    +0.000 A 
ATOM      2  C   UNL     1       2.374   8.284  17.777  0.00  0.00    +0.000 A 
ATOM      3  C   UNL     1       1.496   8.952  18.637  0.00  0.00    +0.000 A 
ATOM      4  C   UNL     1       0.827  10.121  18.212  0.00  0.00    +0.000 A 
ATOM      5  C   UNL     1       0.059  10.808  19.130  0.00  0.00    +0.000 A 
ATOM      6  N   UNL     1      -0.078  10.426  20.408  0.00  0.00    +0.000 NA
ATOM      7  C   UNL     1       0.555   9.282  20.803  0.00  0.00    +0.000 A 
ATOM      8  C   UNL     1       1.340   8.475  19.953  0.00  0.00    +0.000 A 
ATOM      9  C   UNL     1       1.974   7.244  20.323  0.00  0.00    +0.000 A 
ATOM     10  C   UNL     1       2.808   6.536  19.430  0.00  0.00    +0.000 A 
ENDROOT
BRANCH   1  12
ATOM     11  C   UNL     1       4.456   5.633  16.893  0.00  0.00    +0.000 C 
ATOM     12  C   UNL     1       4.338   6.891  17.363  0.00  0.00    +0.000 C 
BRANCH  11  13
ATOM     13  C   UNL     1       5.475   4.723  16.245  0.00  0.00    +0.000 C 
BRANCH  13  14
ATOM     14  C   UNL     1       7.005   4.648  16.377  0.00  0.00    +0.000 C 
BRANCH  14  16
ATOM     15  C   UNL     1       7.728   6.020  18.367  0.00  0.00    +0.000 C 
ATOM     16  C   UNL     1       7.588   4.608  17.788  0.00  0.00    +0.000 C 
ENDBRANCH  14  16
ENDBRANCH  13  14
ENDBRANCH  11  13
ENDBRANCH   1  12
BRANCH  10  17
ATOM     17  O   UNL     1       3.354   5.282  19.655  0.00  0.00    +0.000 OA
BRANCH  17  18
ATOM     18  C   UNL     1       2.508   4.116  19.821  0.00  0.00    +0.000 C 
ATOM     19  C   UNL     1       3.375   2.897  20.219  0.00  0.00    +0.000 C 
ATOM     20  C   UNL     1       3.840   1.976  19.086  0.00  0.00    +0.000 C 
ATOM     21  N   UNL     1       2.809   1.687  18.094  0.00  0.00    +0.000 NA
ATOM     22  C   UNL     1       2.231   2.899  17.541  0.00  0.00    +0.000 C 
ATOM     23  C   UNL     1       1.619   3.809  18.606  0.00  0.00    +0.000 C 
ATOM     24  H   UNL     1       3.226   1.136  17.341  0.00  0.00    +0.000 HD
ENDBRANCH  17  18
ENDBRANCH  10  17
TORSDOF 6
ENDMDL
MODEL 4
REMARK VINA RESULT:      -8.0      2.372      3.386
REMARK  Name = 
REMARK  7 active torsions:
REMARK  status: ('A' for Active; 'I' for Inactive)
REMARK    1  A    between atoms: C_1  and  C_2
REMARK    2  A    between atoms: C_2  and  C_3
REMARK    3  A    between atoms: C_3  and  C_4
REMARK    4  A    between atoms: C_4  and  C_5
REMARK    5  A    between atoms: C_6  and  C_7
REMARK    6  A    between atoms: C_16  and  O_17
REMARK    7  A    between atoms: O_17  and  C_18
REMARK                            x       y       z     vdW  Elec       q    Type
REMARK                         _______ _______ _______ _____ _____    ______ ____
ROOT
ATOM      1  C   UNL     1       3.111   7.292  17.909  0.00  0.00    +0.000 A 
ATOM      2  C   UNL     1       2.446   8.529  17.731  0.00  0.00    +0.000 A 
ATOM      3  C   UNL     1       1.607   9.069  18.712  0.00  0.00    +0.000 A 
ATOM      4  C   UNL     1       1.013  10.337  18.529  0.00  0.00    +0.000 A 
ATOM      5  C   UNL     1       0.285  10.877  19.569  0.00  0.00    +0.000 A 
ATOM      6  N   UNL     1       0.120  10.263  20.750  0.00  0.00    +0.000 NA
ATOM      7  C   UNL     1       0.680   9.027  20.909  0.00  0.00    +0.000 A 
ATOM      8  C   UNL     1       1.417   8.355  19.911  0.00  0.00    +0.000 A 
ATOM      9  C   UNL     1       1.973   7.039  20.030  0.00  0.00    +0.000 A 
ATOM     10  C   UNL     1       2.765   6.470  19.009  0.00  0.00    +0.000 A 
ENDROOT
BRANCH   1  12
ATOM     11  C   UNL     1       5.450   6.774  17.689  0.00  0.00    +0.000 C 
ATOM     12  C   UNL     1       4.323   7.127  17.038  0.00  0.00    +0.000 C 
BRANCH  11  13
ATOM     13  C   UNL     1       6.942   6.677  17.464  0.00  0.00    +0.000 C 
BRANCH  13  14
ATOM     14  C   UNL     1       8.105   7.565  17.936  0.00  0.00    +0.000 C 
BRANCH  14  16
ATOM     15  C   UNL     1       8.931   9.824  18.696  0.00  0.00    +0.000 C 
ATOM     16  C   UNL     1       7.933   9.076  17.804  0.00  0.00    +0.000 C 
ENDBRANCH  14  16
ENDBRANCH  13  14
ENDBRANCH  11  13
ENDBRANCH   1  12
BRANCH  10  17
ATOM     17  O   UNL     1       3.233   5.165  18.981  0.00  0.00    +0.000 OA
BRANCH  17  18
ATOM     18  C   UNL     1       2.788   4.232  17.963  0.00  0.00    +0.000 C 
ATOM     19  C   UNL     1       1.318   3.830  18.233  0.00  0.00    +0.000 C 
ATOM     20  C   UNL     1       1.087   2.542  19.031  0.00  0.00    +0.000 C 
ATOM     21  N   UNL     1       1.955   1.436  18.638  0.00  0.00    +0.000 NA
ATOM     22  C   UNL     1       3.359   1.802  18.686  0.00  0.00    +0.000 C 
ATOM     23  C   UNL     1       3.694   3.003  17.800  0.00  0.00    +0.000 C 
ATOM     24  H   UNL     1       1.788   0.650  19.269  0.00  0.00    +0.000 HD
ENDBRANCH  17  18
ENDBRANCH  10  17
TORSDOF 6
ENDMDL
MODEL 5
REMARK VINA RESULT:      -7.9      2.446      3.620
REMARK  Name = 
REMARK  7 active torsions:
REMARK  status: ('A' for Active; 'I' for Inactive)
REMARK    1  A    between atoms: C_1  and  C_2
REMARK    2  A    between atoms: C_2  and  C_3
REMARK    3  A    between atoms: C_3  and  C_4
REMARK    4  A    between atoms: C_4  and  C_5
REMARK    5  A    between atoms: C_6  and  C_7
REMARK    6  A    between atoms: C_16  and  O_17
REMARK    7  A    between atoms: O_17  and  C_18
REMARK                            x       y       z     vdW  Elec       q    Type
REMARK                         _______ _______ _______ _____ _____    ______ ____
ROOT
ATOM      1  C   UNL     1       2.950   7.071  18.182  0.00  0.00    +0.000 A 
ATOM      2  C   UNL     1       2.288   8.263  17.800  0.00  0.00    +0.000 A 
ATOM      3  C   UNL     1       1.534   9.017  18.706  0.00  0.00    +0.000 A 
ATOM      4  C   UNL     1       0.943  10.236  18.306  0.00  0.00    +0.000 A 
ATOM      5  C   UNL     1       0.305  11.000  19.262  0.00  0.00    +0.000 A 
ATOM      6  N   UNL     1       0.226  10.648  20.553  0.00  0.00    +0.000 NA
ATOM      7  C   UNL     1       0.782   9.458  20.925  0.00  0.00    +0.000 A 
ATOM      8  C   UNL     1       1.431   8.573  20.038  0.00  0.00    +0.000 A 
ATOM      9  C   UNL     1       1.978   7.295  20.387  0.00  0.00    +0.000 A 
ATOM     10  C   UNL     1       2.681   6.505  19.452  0.00  0.00    +0.000 A 
ENDROOT
BRANCH   1  12
ATOM     11  C   UNL     1       5.317   6.949  17.771  0.00  0.00    +0.000 C 
ATOM     12  C   UNL     1       4.088   6.695  17.277  0.00  0.00    +0.000 C 
BRANCH  11  13
ATOM     13  C   UNL     1       6.759   7.021  17.322  0.00  0.00    +0.000 C 
BRANCH  13  14
ATOM     14  C   UNL     1       7.991   7.694  17.950  0.00  0.00    +0.000 C 
BRANCH  14  16
ATOM     15  C   UNL     1       8.994   9.802  18.904  0.00  0.00    +0.000 C 
ATOM     16  C   UNL     1       8.122   9.207  17.793  0.00  0.00    +0.000 C 
ENDBRANCH  14  16
ENDBRANCH  13  14
ENDBRANCH  11  13
ENDBRANCH   1  12
BRANCH  10  17
ATOM     17  O   UNL     1       3.130   5.210  19.662  0.00  0.00    +0.000 OA
BRANCH  17  18
ATOM     18  C   UNL     1       2.215   4.085  19.618  0.00  0.00    +0.000 C 
ATOM     19  C   UNL     1       2.922   2.819  20.159  0.00  0.00    +0.000 C 
ATOM     20  C   UNL     1       3.574   1.892  19.127  0.00  0.00    +0.000 C 
ATOM     21  N   UNL     1       2.763   1.669  17.933  0.00  0.00    +0.000 NA
ATOM     22  C   UNL     1       2.370   2.916  17.301  0.00  0.00    +0.000 C 
ATOM     23  C   UNL     1       1.589   3.840  18.236  0.00  0.00    +0.000 C 
ATOM     24  H   UNL     1       3.304   1.109  17.271  0.00  0.00    +0.000 HD
ENDBRANCH  17  18
ENDBRANCH  10  17
TORSDOF 6
ENDMDL
MODEL 6
REMARK VINA RESULT:      -7.9      2.282      6.045
REMARK  Name = 
REMARK  7 active torsions:
REMARK  status: ('A' for Active; 'I' for Inactive)
REMARK    1  A    between atoms: C_1  and  C_2
REMARK    2  A    between atoms: C_2  and  C_3
REMARK    3  A    between atoms: C_3  and  C_4
REMARK    4  A    between atoms: C_4  and  C_5
REMARK    5  A    between atoms: C_6  and  C_7
REMARK    6  A    between atoms: C_16  and  O_17
REMARK    7  A    between atoms: O_17  and  C_18
REMARK                            x       y       z     vdW  Elec       q    Type
REMARK                         _______ _______ _______ _____ _____    ______ ____
ROOT
ATOM      1  C   UNL     1       3.228   5.747  18.319  0.00  0.00    +0.000 A 
ATOM      2  C   UNL     1       4.583   6.093  18.093  0.00  0.00    +0.000 A 
ATOM      3  C   UNL     1       5.373   5.422  17.153  0.00  0.00    +0.000 A 
ATOM      4  C   UNL     1       6.701   5.837  16.906  0.00  0.00    +0.000 A 
ATOM      5  C   UNL     1       7.403   5.219  15.892  0.00  0.00    +0.000 A 
ATOM      6  N   UNL     1       6.887   4.249  15.124  0.00  0.00    +0.000 NA
ATOM      7  C   UNL     1       5.610   3.840  15.385  0.00  0.00    +0.000 A 
ATOM      8  C   UNL     1       4.802   4.369  16.414  0.00  0.00    +0.000 A 
ATOM      9  C   UNL     1       3.480   3.926  16.746  0.00  0.00    +0.000 A 
ATOM     10  C   UNL     1       2.709   4.564  17.742  0.00  0.00    +0.000 A 
ENDROOT
BRANCH   1  12
ATOM     11  C   UNL     1       2.185   7.907  18.131  0.00  0.00    +0.000 C 
ATOM     12  C   UNL     1       2.419   6.851  18.937  0.00  0.00    +0.000 C 
BRANCH  11  13
ATOM     13  C   UNL     1       1.679   9.330  18.196  0.00  0.00    +0.000 C 
BRANCH  13  14
ATOM     14  C   UNL     1       0.254   9.906  18.216  0.00  0.00    +0.000 C 
BRANCH  14  16
ATOM     15  C   UNL     1       0.025   9.483  20.692  0.00  0.00    +0.000 C 
ATOM     16  C   UNL     1      -0.263  10.456  19.543  0.00  0.00    +0.000 C 
ENDBRANCH  14  16
ENDBRANCH  13  14
ENDBRANCH  11  13
ENDBRANCH   1  12
BRANCH  10  17
ATOM     17  O   UNL     1       1.481   4.128  18.217  0.00  0.00    +0.000 OA
BRANCH  17  18
ATOM     18  C   UNL     1       1.381   2.964  19.076  0.00  0.00    +0.000 C 
ATOM     19  C   UNL     1       0.941   3.400  20.494  0.00  0.00    +0.000 C 
ATOM     20  C   UNL     1       2.052   3.641  21.523  0.00  0.00    +0.000 C 
ATOM     21  N   UNL     1       3.110   2.636  21.500  0.00  0.00    +0.000 NA
ATOM     22  C   UNL     1       3.687   2.481  20.176  0.00  0.00    +0.000 C 
ATOM     23  C   UNL     1       2.653   2.103  19.115  0.00  0.00    +0.000 C 
ATOM     24  H   UNL     1       3.841   2.916  22.157  0.00  0.00    +0.000 HD
ENDBRANCH  17  18
ENDBRANCH  10  17
TORSDOF 6
ENDMDL
MODEL 7
REMARK VINA RESULT:      -7.9      2.363      3.223
REMARK  Name = 
REMARK  7 active torsions:
REMARK  status: ('A' for Active; 'I' for Inactive)
REMARK    1  A    between atoms: C_1  and  C_2
REMARK    2  A    between atoms: C_2  and  C_3
REMARK    3  A    between atoms: C_3  and  C_4
REMARK    4  A    between atoms: C_4  and  C_5
REMARK    5  A    between atoms: C_6  and  C_7
REMARK    6  A    between atoms: C_16  and  O_17
REMARK    7  A    between atoms: O_17  and  C_18
REMARK                            x       y       z     vdW  Elec       q    Type
REMARK                         _______ _______ _______ _____ _____    ______ ____
ROOT
ATOM      1  C   UNL     1       2.244   7.713  18.528  0.00  0.00    +0.000 A 
ATOM      2  C   UNL     1       1.627   8.979  18.675  0.00  0.00    +0.000 A 
ATOM      3  C   UNL     1       1.124   9.423  19.903  0.00  0.00    +0.000 A 
ATOM      4  C   UNL     1       0.576  10.719  20.027  0.00  0.00    +0.000 A 
ATOM      5  C   UNL     1       0.196  11.153  21.281  0.00  0.00    +0.000 A 
ATOM      6  N   UNL     1       0.330  10.410  22.389  0.00  0.00    +0.000 NA
ATOM      7  C   UNL     1       0.841   9.150  22.255  0.00  0.00    +0.000 A 
ATOM      8  C   UNL     1       1.234   8.580  21.026  0.00  0.00    +0.000 A 
ATOM      9  C   UNL     1       1.725   7.246  20.845  0.00  0.00    +0.000 A 
ATOM     10  C   UNL     1       2.170   6.778  19.589  0.00  0.00    +0.000 A 
ENDROOT
BRANCH   1  12
ATOM     11  C   UNL     1       4.335   7.007  17.570  0.00  0.00    +0.000 C 
ATOM     12  C   UNL     1       3.156   7.620  17.339  0.00  0.00    +0.000 C 
BRANCH  11  13
ATOM     13  C   UNL     1       5.685   6.801  16.924  0.00  0.00    +0.000 C 
BRANCH  13  14
ATOM     14  C   UNL     1       7.112   7.059  17.438  0.00  0.00    +0.000 C 
BRANCH  14  16
ATOM     15  C   UNL     1       7.684   4.633  17.828  0.00  0.00    +0.000 C 
ATOM     16  C   UNL     1       7.699   6.047  18.419  0.00  0.00    +0.000 C 
ENDBRANCH  14  16
ENDBRANCH  13  14
ENDBRANCH  11  13
ENDBRANCH   1  12
BRANCH  10  17
ATOM     17  O   UNL     1       2.537   5.474  19.294  0.00  0.00    +0.000 OA
BRANCH  17  18
ATOM     18  C   UNL     1       1.590   4.545  18.707  0.00  0.00    +0.000 C 
ATOM     19  C   UNL     1       1.051   3.591  19.799  0.00  0.00    +0.000 C 
ATOM     20  C   UNL     1       1.760   2.241  19.953  0.00  0.00    +0.000 C 
ATOM     21  N   UNL     1       2.081   1.591  18.686  0.00  0.00    +0.000 NA
ATOM     22  C   UNL     1       2.849   2.456  17.809  0.00  0.00    +0.000 C 
ATOM     23  C   UNL     1       2.138   3.773  17.497  0.00  0.00    +0.000 C 
ATOM     24  H   UNL     1       2.617   0.743  18.881  0.00  0.00    +0.000 HD
ENDBRANCH  17  18
ENDBRANCH  10  17
TORSDOF 6
ENDMDL
MODEL 8
REMARK VINA RESULT:      -7.9      2.434      3.856
REMARK  Name = 
REMARK  7 active torsions:
REMARK  status: ('A' for Active; 'I' for Inactive)
REMARK    1  A    between atoms: C_1  and  C_2
REMARK    2  A    between atoms: C_2  and  C_3
REMARK    3  A    between atoms: C_3  and  C_4
REMARK    4  A    between atoms: C_4  and  C_5
REMARK    5  A    between atoms: C_6  and  C_7
REMARK    6  A    between atoms: C_16  and  O_17
REMARK    7  A    between atoms: O_17  and  C_18
REMARK                            x       y       z     vdW  Elec       q    Type
REMARK                         _______ _______ _______ _____ _____    ______ ____
ROOT
ATOM      1  C   UNL     1       5.026   4.642  16.140  0.00  0.00    +0.000 A 
ATOM      2  C   UNL     1       5.805   5.824  16.097  0.00  0.00    +0.000 A 
ATOM      3  C   UNL     1       6.586   6.239  17.181  0.00  0.00    +0.000 A 
ATOM      4  C   UNL     1       7.403   7.387  17.079  0.00  0.00    +0.000 A 
ATOM      5  C   UNL     1       8.239   7.693  18.133  0.00  0.00    +0.000 A 
ATOM      6  N   UNL     1       8.322   6.951  19.246  0.00  0.00    +0.000 NA
ATOM      7  C   UNL     1       7.512   5.855  19.344  0.00  0.00    +0.000 A 
ATOM      8  C   UNL     1       6.592   5.457  18.352  0.00  0.00    +0.000 A 
ATOM      9  C   UNL     1       5.694   4.345  18.447  0.00  0.00    +0.000 A 
ATOM     10  C   UNL     1       4.857   3.968  17.373  0.00  0.00    +0.000 A 
ENDROOT
BRANCH   1  12
ATOM     11  C   UNL     1       5.754   3.850  13.988  0.00  0.00    +0.000 C 
ATOM     12  C   UNL     1       4.692   4.090  14.785  0.00  0.00    +0.000 C 
BRANCH  11  13
ATOM     13  C   UNL     1       6.078   3.539  12.545  0.00  0.00    +0.000 C 
BRANCH  13  14
ATOM     14  C   UNL     1       5.272   2.822  11.450  0.00  0.00    +0.000 C 
BRANCH  14  16
ATOM     15  C   UNL     1       3.452   3.875  10.057  0.00  0.00    +0.000 C 
ATOM     16  C   UNL     1       3.780   3.133  11.357  0.00  0.00    +0.000 C 
ENDBRANCH  14  16
ENDBRANCH  13  14
ENDBRANCH  11  13
ENDBRANCH   1  12
BRANCH  10  17
ATOM     17  O   UNL     1       3.872   2.994  17.419  0.00  0.00    +0.000 OA
BRANCH  17  18
ATOM     18  C   UNL     1       2.469   3.353  17.508  0.00  0.00    +0.000 C 
ATOM     19  C   UNL     1       2.334   4.791  18.062  0.00  0.00    +0.000 C 
ATOM     20  C   UNL     1       2.116   4.937  19.572  0.00  0.00    +0.000 C 
ATOM     21  N   UNL     1       1.162   3.982  20.129  0.00  0.00    +0.000 NA
ATOM     22  C   UNL     1       1.515   2.610  19.809  0.00  0.00    +0.000 C 
ATOM     23  C   UNL     1       1.616   2.354  18.305  0.00  0.00    +0.000 C 
ATOM     24  H   UNL     1       1.139   4.098  21.144  0.00  0.00    +0.000 HD
ENDBRANCH  17  18
ENDBRANCH  10  17
TORSDOF 6
ENDMDL
MODEL 9
REMARK VINA RESULT:      -7.8      1.383      2.277
REMARK  Name = 
REMARK  7 active torsions:
REMARK  status: ('A' for Active; 'I' for Inactive)
REMARK    1  A    between atoms: C_1  and  C_2
REMARK    2  A    between atoms: C_2  and  C_3
REMARK    3  A    between atoms: C_3  and  C_4
REMARK    4  A    between atoms: C_4  and  C_5
REMARK    5  A    between atoms: C_6  and  C_7
REMARK    6  A    between atoms: C_16  and  O_17
REMARK    7  A    between atoms: O_17  and  C_18
REMARK                            x       y       z     vdW  Elec       q    Type
REMARK                         _______ _______ _______ _____ _____    ______ ____
ROOT
ATOM      1  C   UNL     1       2.747   7.427  18.016  0.00  0.00    +0.000 A 
ATOM      2  C   UNL     1       2.236   8.736  17.839  0.00  0.00    +0.000 A 
ATOM      3  C   UNL     1       1.581   9.423  18.866  0.00  0.00    +0.000 A 
ATOM      4  C   UNL     1       1.144  10.752  18.675  0.00  0.00    +0.000 A 
ATOM      5  C   UNL     1       0.604  11.426  19.752  0.00  0.00    +0.000 A 
ATOM      6  N   UNL     1       0.481  10.886  20.972  0.00  0.00    +0.000 NA
ATOM      7  C   UNL     1       0.886   9.592  21.141  0.00  0.00    +0.000 A 
ATOM      8  C   UNL     1       1.422   8.788  20.114  0.00  0.00    +0.000 A 
ATOM      9  C   UNL     1       1.808   7.414  20.246  0.00  0.00    +0.000 A 
ATOM     10  C   UNL     1       2.409   6.703  19.185  0.00  0.00    +0.000 A 
ENDROOT
BRANCH   1  12
ATOM     11  C   UNL     1       4.966   6.599  17.599  0.00  0.00    +0.000 C 
ATOM     12  C   UNL     1       3.830   7.064  17.042  0.00  0.00    +0.000 C 
BRANCH  11  13
ATOM     13  C   UNL     1       6.402   6.298  17.236  0.00  0.00    +0.000 C 
BRANCH  13  14
ATOM     14  C   UNL     1       7.032   5.149  16.430  0.00  0.00    +0.000 C 
BRANCH  14  16
ATOM     15  C   UNL     1       5.802   4.287  14.404  0.00  0.00    +0.000 C 
ATOM     16  C   UNL     1       6.094   4.071  15.893  0.00  0.00    +0.000 C 
ENDBRANCH  14  16
ENDBRANCH  13  14
ENDBRANCH  11  13
ENDBRANCH   1  12
BRANCH  10  17
ATOM     17  O   UNL     1       2.695   5.346  19.179  0.00  0.00    +0.000 OA
BRANCH  17  18
ATOM     18  C   UNL     1       1.838   4.403  18.486  0.00  0.00    +0.000 C 
ATOM     19  C   UNL     1       1.117   3.502  19.515  0.00  0.00    +0.000 C 
ATOM     20  C   UNL     1       1.769   2.151  19.833  0.00  0.00    +0.000 C 
ATOM     21  N   UNL     1       2.275   1.446  18.660  0.00  0.00    +0.000 NA
ATOM     22  C   UNL     1       3.188   2.265  17.883  0.00  0.00    +0.000 C 
ATOM     23  C   UNL     1       2.558   3.576  17.410  0.00  0.00    +0.000 C 
ATOM     24  H   UNL     1       2.760   0.601  18.971  0.00  0.00    +0.000 HD
ENDBRANCH  17  18
ENDBRANCH  10  17
TORSDOF 6
ENDMDL
