MODEL 1
REMARK VINA RESULT:      -8.6      0.000      0.000
REMARK  Name = 
REMARK  2 active torsions:
REMARK  status: ('A' for Active; 'I' for Inactive)
REMARK    1  A    between atoms: C_4  and  O_5
REMARK    2  A    between atoms: C_7  and  C_8
REMARK                            x       y       z     vdW  Elec       q    Type
REMARK                         _______ _______ _______ _____ _____    ______ ____
ROOT
ATOM      1  C   UNL     1       3.267   7.817  17.880  0.00  0.00    +0.000 C 
ATOM      2  C   UNL     1       3.689   6.549  17.726  0.00  0.00    +0.000 C 
ATOM      3  C   UNL     1       5.114   6.203  17.440  0.00  0.00    +0.000 A 
ATOM      4  C   UNL     1       6.245   6.971  17.212  0.00  0.00    +0.000 A 
ATOM      5  C   UNL     1       7.456   6.312  16.964  0.00  0.00    +0.000 A 
ATOM      6  C   UNL     1       7.523   4.910  16.949  0.00  0.00    +0.000 A 
ATOM      7  C   UNL     1       6.382   4.140  17.187  0.00  0.00    +0.000 A 
ATOM      8  C   UNL     1       5.181   4.793  17.434  0.00  0.00    +0.000 A 
ATOM      9  C   UNL     1       3.858   4.236  17.691  0.00  0.00    +0.000 A 
ATOM     10  C   UNL     1       3.468   2.907  17.774  0.00  0.00    +0.000 A 
ATOM     11  C   UNL     1       2.116   2.620  17.981  0.00  0.00    +0.000 A 
ATOM     12  C   UNL     1       1.176   3.655  18.086  0.00  0.00    +0.000 A 
ATOM     13  C   UNL     1       1.571   4.994  18.011  0.00  0.00    +0.000 A 
ATOM     14  C   UNL     1       2.915   5.284  17.842  0.00  0.00    +0.000 A 
ENDROOT
BRANCH   1  20
ATOM     15  O   UNL     1       0.872   8.460  21.701  0.00  0.00    +0.000 OA
ATOM     16  C   UNL     1       1.087   8.847  20.554  0.00  0.00    +0.000 C 
ATOM     17  C   UNL     1       0.660  10.216  20.115  0.00  0.00    +0.000 C 
ATOM     18  C   UNL     1       0.535  10.380  18.617  0.00  0.00    +0.000 C 
ATOM     19  C   UNL     1       1.737   9.793  17.904  0.00  0.00    +0.000 C 
ATOM     20  C   UNL     1       1.910   8.331  18.280  0.00  0.00    +0.000 C 
ATOM     21  O   UNL     1       1.806   8.093  19.702  0.00  0.00    +0.000 OA
BRANCH  18  22
ATOM     22  O   UNL     1      -0.675   9.820  18.112  0.00  0.00    +0.000 OA
ATOM     23  H   UNL     1      -1.243  10.517  17.741  0.00  0.00    +0.000 HD
ENDBRANCH  18  22
ENDBRANCH   1  20
TORSDOF 2
ENDMDL
MODEL 2
REMARK VINA RESULT:      -7.5      1.651      4.079
REMARK  Name = 
REMARK  2 active torsions:
REMARK  status: ('A' for Active; 'I' for Inactive)
REMARK    1  A    between atoms: C_4  and  O_5
REMARK    2  A    between atoms: C_7  and  C_8
REMARK                            x       y       z     vdW  Elec       q    Type
REMARK                         _______ _______ _______ _____ _____    ______ ____
ROOT
ATOM      1  C   UNL     1       1.457   7.117  20.573  0.00  0.00    +0.000 C 
ATOM      2  C   UNL     1       2.108   6.227  19.802  0.00  0.00    +0.000 C 
ATOM      3  C   UNL     1       1.946   4.751  19.965  0.00  0.00    +0.000 A 
ATOM      4  C   UNL     1       1.238   3.971  20.866  0.00  0.00    +0.000 A 
ATOM      5  C   UNL     1       1.306   2.578  20.737  0.00  0.00    +0.000 A 
ATOM      6  C   UNL     1       2.070   1.986  19.718  0.00  0.00    +0.000 A 
ATOM      7  C   UNL     1       2.775   2.776  18.807  0.00  0.00    +0.000 A 
ATOM      8  C   UNL     1       2.707   4.157  18.934  0.00  0.00    +0.000 A 
ATOM      9  C   UNL     1       3.353   5.195  18.139  0.00  0.00    +0.000 A 
ATOM     10  C   UNL     1       4.185   5.063  17.037  0.00  0.00    +0.000 A 
ATOM     11  C   UNL     1       4.728   6.219  16.469  0.00  0.00    +0.000 A 
ATOM     12  C   UNL     1       4.448   7.480  17.014  0.00  0.00    +0.000 A 
ATOM     13  C   UNL     1       3.602   7.613  18.119  0.00  0.00    +0.000 A 
ATOM     14  C   UNL     1       3.033   6.473  18.663  0.00  0.00    +0.000 A 
ENDROOT
BRANCH   1  20
ATOM     15  O   UNL     1      -0.483  10.290  17.943  0.00  0.00    +0.000 OA
ATOM     16  C   UNL     1      -0.068  10.010  19.065  0.00  0.00    +0.000 C 
ATOM     17  C   UNL     1      -0.483  10.816  20.260  0.00  0.00    +0.000 C 
ATOM     18  C   UNL     1       0.443  10.691  21.450  0.00  0.00    +0.000 C 
ATOM     19  C   UNL     1       0.798   9.241  21.712  0.00  0.00    +0.000 C 
ATOM     20  C   UNL     1       1.417   8.618  20.472  0.00  0.00    +0.000 C 
ATOM     21  O   UNL     1       0.681   8.908  19.261  0.00  0.00    +0.000 OA
BRANCH  18  22
ATOM     22  O   UNL     1       1.620  11.481  21.302  0.00  0.00    +0.000 OA
ATOM     23  H   UNL     1       2.239  11.310  22.033  0.00  0.00    +0.000 HD
ENDBRANCH  18  22
ENDBRANCH   1  20
TORSDOF 2
ENDMDL
MODEL 3
REMARK VINA RESULT:      -7.5      3.421      5.092
REMARK  Name = 
REMARK  2 active torsions:
REMARK  status: ('A' for Active; 'I' for Inactive)
REMARK    1  A    between atoms: C_4  and  O_5
REMARK    2  A    between atoms: C_7  and  C_8
REMARK                            x       y       z     vdW  Elec       q    Type
REMARK                         _______ _______ _______ _____ _____    ______ ____
ROOT
ATOM      1  C   UNL     1       3.584   3.274  16.727  0.00  0.00    +0.000 C 
ATOM      2  C   UNL     1       4.755   3.906  16.528  0.00  0.00    +0.000 C 
ATOM      3  C   UNL     1       5.395   4.011  15.183  0.00  0.00    +0.000 A 
ATOM      4  C   UNL     1       5.062   3.505  13.936  0.00  0.00    +0.000 A 
ATOM      5  C   UNL     1       5.904   3.796  12.854  0.00  0.00    +0.000 A 
ATOM      6  C   UNL     1       7.054   4.582  13.029  0.00  0.00    +0.000 A 
ATOM      7  C   UNL     1       7.382   5.096  14.286  0.00  0.00    +0.000 A 
ATOM      8  C   UNL     1       6.547   4.809  15.358  0.00  0.00    +0.000 A 
ATOM      9  C   UNL     1       6.666   5.200  16.758  0.00  0.00    +0.000 A 
ATOM     10  C   UNL     1       7.638   5.978  17.369  0.00  0.00    +0.000 A 
ATOM     11  C   UNL     1       7.564   6.173  18.752  0.00  0.00    +0.000 A 
ATOM     12  C   UNL     1       6.538   5.580  19.501  0.00  0.00    +0.000 A 
ATOM     13  C   UNL     1       5.554   4.804  18.882  0.00  0.00    +0.000 A 
ATOM     14  C   UNL     1       5.603   4.637  17.508  0.00  0.00    +0.000 A 
ENDROOT
BRANCH   1  20
ATOM     15  O   UNL     1       4.137   2.064  21.083  0.00  0.00    +0.000 OA
ATOM     16  C   UNL     1       3.527   2.780  20.294  0.00  0.00    +0.000 C 
ATOM     17  C   UNL     1       2.777   3.987  20.775  0.00  0.00    +0.000 C 
ATOM     18  C   UNL     1       1.706   4.476  19.826  0.00  0.00    +0.000 C 
ATOM     19  C   UNL     1       2.226   4.536  18.404  0.00  0.00    +0.000 C 
ATOM     20  C   UNL     1       2.752   3.175  17.978  0.00  0.00    +0.000 C 
ATOM     21  O   UNL     1       3.608   2.560  18.968  0.00  0.00    +0.000 OA
BRANCH  18  22
ATOM     22  O   UNL     1       0.521   3.687  19.897  0.00  0.00    +0.000 OA
ATOM     23  H   UNL     1       0.502   3.174  20.723  0.00  0.00    +0.000 HD
ENDBRANCH  18  22
ENDBRANCH   1  20
TORSDOF 2
ENDMDL
MODEL 4
REMARK VINA RESULT:      -7.4      2.999      5.100
REMARK  Name = 
REMARK  2 active torsions:
REMARK  status: ('A' for Active; 'I' for Inactive)
REMARK    1  A    between atoms: C_4  and  O_5
REMARK    2  A    between atoms: C_7  and  C_8
REMARK                            x       y       z     vdW  Elec       q    Type
REMARK                         _______ _______ _______ _____ _____    ______ ____
ROOT
ATOM      1  C   UNL     1       3.887   3.332  17.362  0.00  0.00    +0.000 C 
ATOM      2  C   UNL     1       4.997   3.995  16.989  0.00  0.00    +0.000 C 
ATOM      3  C   UNL     1       5.454   4.064  15.569  0.00  0.00    +0.000 A 
ATOM      4  C   UNL     1       4.984   3.494  14.396  0.00  0.00    +0.000 A 
ATOM      5  C   UNL     1       5.668   3.768  13.204  0.00  0.00    +0.000 A 
ATOM      6  C   UNL     1       6.799   4.599  13.198  0.00  0.00    +0.000 A 
ATOM      7  C   UNL     1       7.265   5.178  14.381  0.00  0.00    +0.000 A 
ATOM      8  C   UNL     1       6.587   4.907  15.562  0.00  0.00    +0.000 A 
ATOM      9  C   UNL     1       6.869   5.362  16.919  0.00  0.00    +0.000 A 
ATOM     10  C   UNL     1       7.880   6.198  17.369  0.00  0.00    +0.000 A 
ATOM     11  C   UNL     1       7.976   6.450  18.741  0.00  0.00    +0.000 A 
ATOM     12  C   UNL     1       7.080   5.854  19.639  0.00  0.00    +0.000 A 
ATOM     13  C   UNL     1       6.056   5.018  19.183  0.00  0.00    +0.000 A 
ATOM     14  C   UNL     1       5.935   4.795  17.822  0.00  0.00    +0.000 A 
ENDROOT
BRANCH   1  20
ATOM     15  O   UNL     1       1.917   6.163  20.337  0.00  0.00    +0.000 OA
ATOM     16  C   UNL     1       1.947   5.022  19.882  0.00  0.00    +0.000 C 
ATOM     17  C   UNL     1       0.795   4.084  20.087  0.00  0.00    +0.000 C 
ATOM     18  C   UNL     1       1.145   2.621  19.921  0.00  0.00    +0.000 C 
ATOM     19  C   UNL     1       1.974   2.399  18.672  0.00  0.00    +0.000 C 
ATOM     20  C   UNL     1       3.228   3.257  18.713  0.00  0.00    +0.000 C 
ATOM     21  O   UNL     1       2.967   4.627  19.096  0.00  0.00    +0.000 OA
BRANCH  18  22
ATOM     22  O   UNL     1       1.805   2.091  21.068  0.00  0.00    +0.000 OA
ATOM     23  H   UNL     1       1.333   2.344  21.879  0.00  0.00    +0.000 HD
ENDBRANCH  18  22
ENDBRANCH   1  20
TORSDOF 2
ENDMDL
MODEL 5
REMARK VINA RESULT:      -7.4      3.186      6.306
REMARK  Name = 
REMARK  2 active torsions:
REMARK  status: ('A' for Active; 'I' for Inactive)
REMARK    1  A    between atoms: C_4  and  O_5
REMARK    2  A    between atoms: C_7  and  C_8
REMARK                            x       y       z     vdW  Elec       q    Type
REMARK                         _______ _______ _______ _____ _____    ______ ____
ROOT
ATOM      1  C   UNL     1       4.475   6.803  17.214  0.00  0.00    +0.000 C 
ATOM      2  C   UNL     1       3.554   6.832  18.195  0.00  0.00    +0.000 C 
ATOM      3  C   UNL     1       2.636   7.991  18.404  0.00  0.00    +0.000 A 
ATOM      4  C   UNL     1       2.520   9.228  17.788  0.00  0.00    +0.000 A 
ATOM      5  C   UNL     1       1.527  10.106  18.243  0.00  0.00    +0.000 A 
ATOM      6  C   UNL     1       0.670   9.741  19.293  0.00  0.00    +0.000 A 
ATOM      7  C   UNL     1       0.784   8.490  19.905  0.00  0.00    +0.000 A 
ATOM      8  C   UNL     1       1.768   7.620  19.454  0.00  0.00    +0.000 A 
ATOM      9  C   UNL     1       2.109   6.282  19.924  0.00  0.00    +0.000 A 
ATOM     10  C   UNL     1       1.521   5.531  20.931  0.00  0.00    +0.000 A 
ATOM     11  C   UNL     1       2.065   4.280  21.235  0.00  0.00    +0.000 A 
ATOM     12  C   UNL     1       3.190   3.805  20.546  0.00  0.00    +0.000 A 
ATOM     13  C   UNL     1       3.777   4.559  19.525  0.00  0.00    +0.000 A 
ATOM     14  C   UNL     1       3.219   5.783  19.196  0.00  0.00    +0.000 A 
ENDROOT
BRANCH   1  20
ATOM     15  O   UNL     1       5.057   4.056  13.627  0.00  0.00    +0.000 OA
ATOM     16  C   UNL     1       5.599   4.642  14.561  0.00  0.00    +0.000 C 
ATOM     17  C   UNL     1       7.082   4.864  14.571  0.00  0.00    +0.000 C 
ATOM     18  C   UNL     1       7.664   5.136  15.940  0.00  0.00    +0.000 C 
ATOM     19  C   UNL     1       6.831   6.156  16.691  0.00  0.00    +0.000 C 
ATOM     20  C   UNL     1       5.390   5.684  16.796  0.00  0.00    +0.000 C 
ATOM     21  O   UNL     1       4.860   5.194  15.542  0.00  0.00    +0.000 OA
BRANCH  18  22
ATOM     22  O   UNL     1       7.818   3.945  16.708  0.00  0.00    +0.000 OA
ATOM     23  H   UNL     1       8.748   3.661  16.713  0.00  0.00    +0.000 HD
ENDBRANCH  18  22
ENDBRANCH   1  20
TORSDOF 2
ENDMDL
MODEL 6
REMARK VINA RESULT:      -7.4      1.938      2.299
REMARK  Name = 
REMARK  2 active torsions:
REMARK  status: ('A' for Active; 'I' for Inactive)
REMARK    1  A    between atoms: C_4  and  O_5
REMARK    2  A    between atoms: C_7  and  C_8
REMARK                            x       y       z     vdW  Elec       q    Type
REMARK                         _______ _______ _______ _____ _____    ______ ____
ROOT
ATOM      1  C   UNL     1       2.827   8.296  17.749  0.00  0.00    +0.000 C 
ATOM      2  C   UNL     1       3.188   7.018  17.963  0.00  0.00    +0.000 C 
ATOM      3  C   UNL     1       4.172   6.303  17.096  0.00  0.00    +0.000 A 
ATOM      4  C   UNL     1       4.854   6.664  15.944  0.00  0.00    +0.000 A 
ATOM      5  C   UNL     1       5.723   5.729  15.366  0.00  0.00    +0.000 A 
ATOM      6  C   UNL     1       5.900   4.461  15.940  0.00  0.00    +0.000 A 
ATOM      7  C   UNL     1       5.218   4.104  17.106  0.00  0.00    +0.000 A 
ATOM      8  C   UNL     1       4.357   5.030  17.679  0.00  0.00    +0.000 A 
ATOM      9  C   UNL     1       3.521   4.909  18.869  0.00  0.00    +0.000 A 
ATOM     10  C   UNL     1       3.391   3.838  19.741  0.00  0.00    +0.000 A 
ATOM     11  C   UNL     1       2.477   3.942  20.793  0.00  0.00    +0.000 A 
ATOM     12  C   UNL     1       1.699   5.098  20.950  0.00  0.00    +0.000 A 
ATOM     13  C   UNL     1       1.838   6.180  20.075  0.00  0.00    +0.000 A 
ATOM     14  C   UNL     1       2.768   6.096  19.053  0.00  0.00    +0.000 A 
ENDROOT
BRANCH   1  20
ATOM     15  O   UNL     1       2.359  12.747  18.601  0.00  0.00    +0.000 OA
ATOM     16  C   UNL     1       1.791  11.660  18.510  0.00  0.00    +0.000 C 
ATOM     17  C   UNL     1       0.302  11.585  18.349  0.00  0.00    +0.000 C 
ATOM     18  C   UNL     1      -0.300  10.252  18.735  0.00  0.00    +0.000 C 
ATOM     19  C   UNL     1       0.495   9.105  18.144  0.00  0.00    +0.000 C 
ATOM     20  C   UNL     1       1.949   9.193  18.580  0.00  0.00    +0.000 C 
ATOM     21  O   UNL     1       2.505  10.521  18.443  0.00  0.00    +0.000 OA
BRANCH  18  22
ATOM     22  O   UNL     1      -0.426  10.105  20.147  0.00  0.00    +0.000 OA
ATOM     23  H   UNL     1       0.050  10.817  20.607  0.00  0.00    +0.000 HD
ENDBRANCH  18  22
ENDBRANCH   1  20
TORSDOF 2
ENDMDL
MODEL 7
REMARK VINA RESULT:      -7.3      3.262      6.250
REMARK  Name = 
REMARK  2 active torsions:
REMARK  status: ('A' for Active; 'I' for Inactive)
REMARK    1  A    between atoms: C_4  and  O_5
REMARK    2  A    between atoms: C_7  and  C_8
REMARK                            x       y       z     vdW  Elec       q    Type
REMARK                         _______ _______ _______ _____ _____    ______ ____
ROOT
ATOM      1  C   UNL     1       4.377   6.254  17.946  0.00  0.00    +0.000 C 
ATOM      2  C   UNL     1       3.516   5.990  18.945  0.00  0.00    +0.000 C 
ATOM      3  C   UNL     1       2.508   6.984  19.423  0.00  0.00    +0.000 A 
ATOM      4  C   UNL     1       2.244   8.301  19.080  0.00  0.00    +0.000 A 
ATOM      5  C   UNL     1       1.202   8.963  19.742  0.00  0.00    +0.000 A 
ATOM      6  C   UNL     1       0.444   8.309  20.726  0.00  0.00    +0.000 A 
ATOM      7  C   UNL     1       0.708   6.979  21.062  0.00  0.00    +0.000 A 
ATOM      8  C   UNL     1       1.740   6.322  20.405  0.00  0.00    +0.000 A 
ATOM      9  C   UNL     1       2.230   4.959  20.576  0.00  0.00    +0.000 A 
ATOM     10  C   UNL     1       1.771   3.965  21.429  0.00  0.00    +0.000 A 
ATOM     11  C   UNL     1       2.445   2.740  21.448  0.00  0.00    +0.000 A 
ATOM     12  C   UNL     1       3.567   2.531  20.634  0.00  0.00    +0.000 A 
ATOM     13  C   UNL     1       4.023   3.531  19.769  0.00  0.00    +0.000 A 
ATOM     14  C   UNL     1       3.337   4.733  19.721  0.00  0.00    +0.000 A 
ENDROOT
BRANCH   1  20
ATOM     15  O   UNL     1       4.888   4.183  13.921  0.00  0.00    +0.000 OA
ATOM     16  C   UNL     1       5.455   4.687  14.888  0.00  0.00    +0.000 C 
ATOM     17  C   UNL     1       6.895   5.097  14.804  0.00  0.00    +0.000 C 
ATOM     18  C   UNL     1       7.584   5.233  16.143  0.00  0.00    +0.000 C 
ATOM     19  C   UNL     1       6.724   6.008  17.121  0.00  0.00    +0.000 C 
ATOM     20  C   UNL     1       5.366   5.341  17.272  0.00  0.00    +0.000 C 
ATOM     21  O   UNL     1       4.766   4.981  16.006  0.00  0.00    +0.000 OA
BRANCH  18  22
ATOM     22  O   UNL     1       7.956   3.970  16.689  0.00  0.00    +0.000 OA
ATOM     23  H   UNL     1       8.916   3.833  16.609  0.00  0.00    +0.000 HD
ENDBRANCH  18  22
ENDBRANCH   1  20
TORSDOF 2
ENDMDL
MODEL 8
REMARK VINA RESULT:      -7.2      3.139      6.408
REMARK  Name = 
REMARK  2 active torsions:
REMARK  status: ('A' for Active; 'I' for Inactive)
REMARK    1  A    between atoms: C_4  and  O_5
REMARK    2  A    between atoms: C_7  and  C_8
REMARK                            x       y       z     vdW  Elec       q    Type
REMARK                         _______ _______ _______ _____ _____    ______ ____
ROOT
ATOM      1  C   UNL     1       4.211   3.930  17.271  0.00  0.00    +0.000 C 
ATOM      2  C   UNL     1       3.423   4.511  18.194  0.00  0.00    +0.000 C 
ATOM      3  C   UNL     1       2.821   3.752  19.331  0.00  0.00    +0.000 A 
ATOM      4  C   UNL     1       2.834   2.412  19.685  0.00  0.00    +0.000 A 
ATOM      5  C   UNL     1       2.146   2.024  20.843  0.00  0.00    +0.000 A 
ATOM      6  C   UNL     1       1.463   2.969  21.625  0.00  0.00    +0.000 A 
ATOM      7  C   UNL     1       1.460   4.320  21.269  0.00  0.00    +0.000 A 
ATOM      8  C   UNL     1       2.142   4.705  20.123  0.00  0.00    +0.000 A 
ATOM      9  C   UNL     1       2.280   6.028  19.525  0.00  0.00    +0.000 A 
ATOM     10  C   UNL     1       1.778   7.244  19.965  0.00  0.00    +0.000 A 
ATOM     11  C   UNL     1       2.004   8.381  19.184  0.00  0.00    +0.000 A 
ATOM     12  C   UNL     1       2.708   8.287  17.975  0.00  0.00    +0.000 A 
ATOM     13  C   UNL     1       3.221   7.063  17.537  0.00  0.00    +0.000 A 
ATOM     14  C   UNL     1       3.031   5.940  18.326  0.00  0.00    +0.000 A 
ENDROOT
BRANCH   1  20
ATOM     15  O   UNL     1       7.659   6.857  16.731  0.00  0.00    +0.000 OA
ATOM     16  C   UNL     1       7.067   5.883  16.272  0.00  0.00    +0.000 C 
ATOM     17  C   UNL     1       7.719   5.002  15.248  0.00  0.00    +0.000 C 
ATOM     18  C   UNL     1       6.752   4.173  14.432  0.00  0.00    +0.000 C 
ATOM     19  C   UNL     1       5.718   3.511  15.322  0.00  0.00    +0.000 C 
ATOM     20  C   UNL     1       4.982   4.558  16.141  0.00  0.00    +0.000 C 
ATOM     21  O   UNL     1       5.865   5.522  16.760  0.00  0.00    +0.000 OA
BRANCH  18  22
ATOM     22  O   UNL     1       6.121   4.934  13.405  0.00  0.00    +0.000 OA
ATOM     23  H   UNL     1       6.079   4.422  12.579  0.00  0.00    +0.000 HD
ENDBRANCH  18  22
ENDBRANCH   1  20
TORSDOF 2
ENDMDL
MODEL 9
REMARK VINA RESULT:      -7.1      1.839      3.784
REMARK  Name = 
REMARK  2 active torsions:
REMARK  status: ('A' for Active; 'I' for Inactive)
REMARK    1  A    between atoms: C_4  and  O_5
REMARK    2  A    between atoms: C_7  and  C_8
REMARK                            x       y       z     vdW  Elec       q    Type
REMARK                         _______ _______ _______ _____ _____    ______ ____
ROOT
ATOM      1  C   UNL     1       1.811   7.669  19.383  0.00  0.00    +0.000 C 
ATOM      2  C   UNL     1       2.580   6.608  19.078  0.00  0.00    +0.000 C 
ATOM      3  C   UNL     1       2.535   5.332  19.854  0.00  0.00    +0.000 A 
ATOM      4  C   UNL     1       1.843   4.940  20.990  0.00  0.00    +0.000 A 
ATOM      5  C   UNL     1       2.038   3.638  21.470  0.00  0.00    +0.000 A 
ATOM      6  C   UNL     1       2.909   2.753  20.816  0.00  0.00    +0.000 A 
ATOM      7  C   UNL     1       3.597   3.149  19.667  0.00  0.00    +0.000 A 
ATOM      8  C   UNL     1       3.404   4.439  19.190  0.00  0.00    +0.000 A 
ATOM      9  C   UNL     1       4.004   5.102  18.038  0.00  0.00    +0.000 A 
ATOM     10  C   UNL     1       4.909   4.601  17.113  0.00  0.00    +0.000 A 
ATOM     11  C   UNL     1       5.384   5.457  16.114  0.00  0.00    +0.000 A 
ATOM     12  C   UNL     1       4.966   6.794  16.063  0.00  0.00    +0.000 A 
ATOM     13  C   UNL     1       4.047   7.295  16.990  0.00  0.00    +0.000 A 
ATOM     14  C   UNL     1       3.547   6.441  17.959  0.00  0.00    +0.000 A 
ENDROOT
BRANCH   1  20
ATOM     15  O   UNL     1      -1.460   9.926  17.156  0.00  0.00    +0.000 OA
ATOM     16  C   UNL     1      -0.445  10.016  17.842  0.00  0.00    +0.000 C 
ATOM     17  C   UNL     1      -0.101  11.300  18.538  0.00  0.00    +0.000 C 
ATOM     18  C   UNL     1       1.356  11.431  18.920  0.00  0.00    +0.000 C 
ATOM     19  C   UNL     1       1.865  10.161  19.572  0.00  0.00    +0.000 C 
ATOM     20  C   UNL     1       1.649   8.973  18.648  0.00  0.00    +0.000 C 
ATOM     21  O   UNL     1       0.323   8.934  18.072  0.00  0.00    +0.000 OA
BRANCH  18  22
ATOM     22  O   UNL     1       2.174  11.792  17.810  0.00  0.00    +0.000 OA
ATOM     23  H   UNL     1       3.003  11.283  17.818  0.00  0.00    +0.000 HD
ENDBRANCH  18  22
ENDBRANCH   1  20
TORSDOF 2
ENDMDL
