MODEL 1
REMARK VINA RESULT:      -9.3      0.000      0.000
REMARK  Name = 
REMARK  2 active torsions:
REMARK  status: ('A' for Active; 'I' for Inactive)
REMARK    1  A    between atoms: C_2  and  C_23
REMARK    2  A    between atoms: C_8  and  C_9
REMARK                            x       y       z     vdW  Elec       q    Type
REMARK                         _______ _______ _______ _____ _____    ______ ____
ROOT
ATOM      1  O   UNL     1       4.557   3.444  16.399  0.00  0.00    +0.000 OA
ATOM      2  C   UNL     1       5.008   4.458  15.877  0.00  0.00    +0.000 C 
ATOM      3  N   UNL     1       4.828   5.758  16.289  0.00  0.00    +0.000 N 
ATOM      4  C   UNL     1       4.108   6.104  17.403  0.00  0.00    +0.000 A 
ATOM      5  N   UNL     1       3.700   7.404  17.529  0.00  0.00    +0.000 NA
ATOM      6  C   UNL     1       2.958   7.376  18.616  0.00  0.00    +0.000 A 
ATOM      7  C   UNL     1       2.163   8.364  19.268  0.00  0.00    +0.000 A 
ATOM      8  C   UNL     1       1.477   8.055  20.396  0.00  0.00    +0.000 A 
ATOM      9  C   UNL     1       1.565   6.706  20.963  0.00  0.00    +0.000 A 
ATOM     10  C   UNL     1       2.309   5.775  20.344  0.00  0.00    +0.000 A 
ATOM     11  N   UNL     1       2.989   6.099  19.175  0.00  0.00    +0.000 N 
ATOM     12  N   UNL     1       3.743   5.301  18.398  0.00  0.00    +0.000 NA
ATOM     13  H   UNL     1       5.054   6.536  15.689  0.00  0.00    +0.000 HD
ENDROOT
BRANCH   8  14
ATOM     14  C   UNL     1       0.675   9.111  21.034  0.00  0.00    +0.000 A 
ATOM     15  C   UNL     1       0.660   9.253  22.415  0.00  0.00    +0.000 A 
ATOM     16  N   UNL     1      -0.053  10.193  23.078  0.00  0.00    +0.000 NA
ATOM     17  C   UNL     1      -0.797  11.046  22.354  0.00  0.00    +0.000 A 
ATOM     18  C   UNL     1      -1.527  12.032  23.006  0.00  0.00    +0.000 A 
ATOM     19  C   UNL     1      -2.315  12.948  22.306  0.00  0.00    +0.000 A 
ATOM     20  C   UNL     1      -2.386  12.881  20.919  0.00  0.00    +0.000 A 
ATOM     21  C   UNL     1      -1.667  11.899  20.239  0.00  0.00    +0.000 A 
ATOM     22  C   UNL     1      -0.866  10.982  20.944  0.00  0.00    +0.000 A 
ATOM     23  C   UNL     1      -0.115   9.990  20.292  0.00  0.00    +0.000 A 
ENDBRANCH   8  14
BRANCH   2  24
ATOM     24  C   UNL     1       5.770   4.286  14.615  0.00  0.00    +0.000 A 
ATOM     25  C   UNL     1       6.873   5.127  14.390  0.00  0.00    +0.000 A 
ATOM     26  C   UNL     1       7.594   5.042  13.198  0.00  0.00    +0.000 A 
ATOM     27  C   UNL     1       7.207   4.125  12.222  0.00  0.00    +0.000 A 
ATOM     28  C   UNL     1       6.104   3.298  12.444  0.00  0.00    +0.000 A 
ATOM     29 CL   UNL     1       5.618   2.192  11.217  0.00  0.00    +0.000 Cl
ATOM     30  C   UNL     1       5.383   3.366  13.636  0.00  0.00    +0.000 A 
ENDBRANCH   2  24
TORSDOF 2
ENDMDL
MODEL 2
REMARK VINA RESULT:      -9.2      3.763     10.764
REMARK  Name = 
REMARK  2 active torsions:
REMARK  status: ('A' for Active; 'I' for Inactive)
REMARK    1  A    between atoms: C_2  and  C_23
REMARK    2  A    between atoms: C_8  and  C_9
REMARK                            x       y       z     vdW  Elec       q    Type
REMARK                         _______ _______ _______ _____ _____    ______ ____
ROOT
ATOM      1  O   UNL     1       0.915   8.988  22.516  0.00  0.00    +0.000 OA
ATOM      2  C   UNL     1       0.441   9.629  21.585  0.00  0.00    +0.000 C 
ATOM      3  N   UNL     1       0.667   9.440  20.241  0.00  0.00    +0.000 N 
ATOM      4  C   UNL     1       1.470   8.446  19.744  0.00  0.00    +0.000 A 
ATOM      5  N   UNL     1       1.904   8.554  18.452  0.00  0.00    +0.000 NA
ATOM      6  C   UNL     1       2.724   7.531  18.328  0.00  0.00    +0.000 A 
ATOM      7  C   UNL     1       3.576   7.098  17.271  0.00  0.00    +0.000 A 
ATOM      8  C   UNL     1       4.338   5.986  17.418  0.00  0.00    +0.000 A 
ATOM      9  C   UNL     1       4.274   5.211  18.661  0.00  0.00    +0.000 A 
ATOM     10  C   UNL     1       3.475   5.624  19.658  0.00  0.00    +0.000 A 
ATOM     11  N   UNL     1       2.716   6.778  19.502  0.00  0.00    +0.000 N 
ATOM     12  N   UNL     1       1.896   7.366  20.392  0.00  0.00    +0.000 NA
ATOM     13  H   UNL     1       0.409  10.137  19.561  0.00  0.00    +0.000 HD
ENDROOT
BRANCH   8  14
ATOM     14  C   UNL     1       5.200   5.580  16.296  0.00  0.00    +0.000 A 
ATOM     15  C   UNL     1       6.524   5.992  16.234  0.00  0.00    +0.000 A 
ATOM     16  N   UNL     1       7.379   5.666  15.237  0.00  0.00    +0.000 NA
ATOM     17  C   UNL     1       6.917   4.893  14.239  0.00  0.00    +0.000 A 
ATOM     18  C   UNL     1       7.777   4.530  13.210  0.00  0.00    +0.000 A 
ATOM     19  C   UNL     1       7.354   3.726  12.149  0.00  0.00    +0.000 A 
ATOM     20  C   UNL     1       6.039   3.274  12.104  0.00  0.00    +0.000 A 
ATOM     21  C   UNL     1       5.155   3.628  13.122  0.00  0.00    +0.000 A 
ATOM     22  C   UNL     1       5.584   4.430  14.195  0.00  0.00    +0.000 A 
ATOM     23  C   UNL     1       4.725   4.793  15.247  0.00  0.00    +0.000 A 
ENDBRANCH   8  14
BRANCH   2  24
ATOM     24  C   UNL     1      -0.414  10.792  21.931  0.00  0.00    +0.000 A 
ATOM     25  C   UNL     1      -1.201  10.712  23.091  0.00  0.00    +0.000 A 
ATOM     26  C   UNL     1      -2.060  11.757  23.436  0.00  0.00    +0.000 A 
ATOM     27  C   UNL     1      -2.144  12.879  22.615  0.00  0.00    +0.000 A 
ATOM     28  C   UNL     1      -1.369  12.952  21.456  0.00  0.00    +0.000 A 
ATOM     29 CL   UNL     1      -1.506  14.332  20.434  0.00  0.00    +0.000 Cl
ATOM     30  C   UNL     1      -0.499  11.919  21.107  0.00  0.00    +0.000 A 
ENDBRANCH   2  24
TORSDOF 2
ENDMDL
MODEL 3
REMARK VINA RESULT:      -9.1      0.999      1.343
REMARK  Name = 
REMARK  2 active torsions:
REMARK  status: ('A' for Active; 'I' for Inactive)
REMARK    1  A    between atoms: C_2  and  C_23
REMARK    2  A    between atoms: C_8  and  C_9
REMARK                            x       y       z     vdW  Elec       q    Type
REMARK                         _______ _______ _______ _____ _____    ______ ____
ROOT
ATOM      1  O   UNL     1       4.523   3.589  16.252  0.00  0.00    +0.000 OA
ATOM      2  C   UNL     1       4.983   4.620  15.776  0.00  0.00    +0.000 C 
ATOM      3  N   UNL     1       4.809   5.903  16.240  0.00  0.00    +0.000 N 
ATOM      4  C   UNL     1       4.084   6.207  17.363  0.00  0.00    +0.000 A 
ATOM      5  N   UNL     1       3.683   7.503  17.541  0.00  0.00    +0.000 NA
ATOM      6  C   UNL     1       2.933   7.435  18.621  0.00  0.00    +0.000 A 
ATOM      7  C   UNL     1       2.140   8.400  19.309  0.00  0.00    +0.000 A 
ATOM      8  C   UNL     1       1.445   8.048  20.418  0.00  0.00    +0.000 A 
ATOM      9  C   UNL     1       1.520   6.676  20.928  0.00  0.00    +0.000 A 
ATOM     10  C   UNL     1       2.262   5.767  20.275  0.00  0.00    +0.000 A 
ATOM     11  N   UNL     1       2.953   6.135  19.126  0.00  0.00    +0.000 N 
ATOM     12  N   UNL     1       3.707   5.366  18.322  0.00  0.00    +0.000 NA
ATOM     13  H   UNL     1       5.044   6.704  15.675  0.00  0.00    +0.000 HD
ENDROOT
BRANCH   8  14
ATOM     14  C   UNL     1       0.644   9.081  21.094  0.00  0.00    +0.000 A 
ATOM     15  C   UNL     1       0.621   9.167  22.480  0.00  0.00    +0.000 A 
ATOM     16  N   UNL     1      -0.090  10.083  23.177  0.00  0.00    +0.000 NA
ATOM     17  C   UNL     1      -0.825  10.969  22.484  0.00  0.00    +0.000 A 
ATOM     18  C   UNL     1      -1.553  11.931  23.173  0.00  0.00    +0.000 A 
ATOM     19  C   UNL     1      -2.332  12.880  22.506  0.00  0.00    +0.000 A 
ATOM     20  C   UNL     1      -2.394  12.872  21.117  0.00  0.00    +0.000 A 
ATOM     21  C   UNL     1      -1.677  11.914  20.402  0.00  0.00    +0.000 A 
ATOM     22  C   UNL     1      -0.885  10.964  21.073  0.00  0.00    +0.000 A 
ATOM     23  C   UNL     1      -0.136   9.995  20.384  0.00  0.00    +0.000 A 
ENDBRANCH   8  14
BRANCH   2  24
ATOM     24  C   UNL     1       5.754   4.497  14.513  0.00  0.00    +0.000 A 
ATOM     25  C   UNL     1       5.313   3.566  13.558  0.00  0.00    +0.000 A 
ATOM     26  C   UNL     1       6.028   3.374  12.375  0.00  0.00    +0.000 A 
ATOM     27  C   UNL     1       7.194   4.104  12.149  0.00  0.00    +0.000 A 
ATOM     28  C   UNL     1       7.636   5.021  13.104  0.00  0.00    +0.000 A 
ATOM     29 CL   UNL     1       9.095   5.893  12.825  0.00  0.00    +0.000 Cl
ATOM     30  C   UNL     1       6.923   5.229  14.285  0.00  0.00    +0.000 A 
ENDBRANCH   2  24
TORSDOF 2
ENDMDL
MODEL 4
REMARK VINA RESULT:      -9.0      4.148     10.859
REMARK  Name = 
REMARK  2 active torsions:
REMARK  status: ('A' for Active; 'I' for Inactive)
REMARK    1  A    between atoms: C_2  and  C_23
REMARK    2  A    between atoms: C_8  and  C_9
REMARK                            x       y       z     vdW  Elec       q    Type
REMARK                         _______ _______ _______ _____ _____    ______ ____
ROOT
ATOM      1  O   UNL     1       0.707   9.265  22.643  0.00  0.00    +0.000 OA
ATOM      2  C   UNL     1       0.339   9.979  21.718  0.00  0.00    +0.000 C 
ATOM      3  N   UNL     1       0.626   9.827  20.381  0.00  0.00    +0.000 N 
ATOM      4  C   UNL     1       1.375   8.792  19.883  0.00  0.00    +0.000 A 
ATOM      5  N   UNL     1       1.890   8.917  18.622  0.00  0.00    +0.000 NA
ATOM      6  C   UNL     1       2.631   7.836  18.496  0.00  0.00    +0.000 A 
ATOM      7  C   UNL     1       3.506   7.379  17.468  0.00  0.00    +0.000 A 
ATOM      8  C   UNL     1       4.168   6.204  17.606  0.00  0.00    +0.000 A 
ATOM      9  C   UNL     1       3.972   5.387  18.807  0.00  0.00    +0.000 A 
ATOM     10  C   UNL     1       3.152   5.822  19.777  0.00  0.00    +0.000 A 
ATOM     11  N   UNL     1       2.497   7.040  19.634  0.00  0.00    +0.000 N 
ATOM     12  N   UNL     1       1.677   7.655  20.503  0.00  0.00    +0.000 NA
ATOM     13  H   UNL     1       0.463  10.570  19.720  0.00  0.00    +0.000 HD
ENDROOT
BRANCH   8  14
ATOM     14  C   UNL     1       5.057   5.774  16.514  0.00  0.00    +0.000 A 
ATOM     15  C   UNL     1       6.381   6.189  16.474  0.00  0.00    +0.000 A 
ATOM     16  N   UNL     1       7.261   5.843  15.506  0.00  0.00    +0.000 NA
ATOM     17  C   UNL     1       6.825   5.047  14.515  0.00  0.00    +0.000 A 
ATOM     18  C   UNL     1       7.710   4.662  13.516  0.00  0.00    +0.000 A 
ATOM     19  C   UNL     1       7.315   3.833  12.463  0.00  0.00    +0.000 A 
ATOM     20  C   UNL     1       6.003   3.376  12.397  0.00  0.00    +0.000 A 
ATOM     21  C   UNL     1       5.094   3.750  13.385  0.00  0.00    +0.000 A 
ATOM     22  C   UNL     1       5.495   4.578  14.450  0.00  0.00    +0.000 A 
ATOM     23  C   UNL     1       4.610   4.962  15.472  0.00  0.00    +0.000 A 
ENDBRANCH   8  14
BRANCH   2  24
ATOM     24  C   UNL     1      -0.440  11.194  22.070  0.00  0.00    +0.000 A 
ATOM     25  C   UNL     1       0.031  12.436  21.613  0.00  0.00    +0.000 A 
ATOM     26  C   UNL     1      -0.635  13.613  21.957  0.00  0.00    +0.000 A 
ATOM     27  C   UNL     1      -1.766  13.553  22.769  0.00  0.00    +0.000 A 
ATOM     28  C   UNL     1      -2.226  12.318  23.231  0.00  0.00    +0.000 A 
ATOM     29 CL   UNL     1      -3.606  12.262  24.258  0.00  0.00    +0.000 Cl
ATOM     30  C   UNL     1      -1.575  11.134  22.884  0.00  0.00    +0.000 A 
ENDBRANCH   2  24
TORSDOF 2
ENDMDL
MODEL 5
REMARK VINA RESULT:      -8.9      1.063      1.552
REMARK  Name = 
REMARK  2 active torsions:
REMARK  status: ('A' for Active; 'I' for Inactive)
REMARK    1  A    between atoms: C_2  and  C_23
REMARK    2  A    between atoms: C_8  and  C_9
REMARK                            x       y       z     vdW  Elec       q    Type
REMARK                         _______ _______ _______ _____ _____    ______ ____
ROOT
ATOM      1  O   UNL     1       4.883   4.005  16.599  0.00  0.00    +0.000 OA
ATOM      2  C   UNL     1       5.168   4.929  15.846  0.00  0.00    +0.000 C 
ATOM      3  N   UNL     1       4.803   6.250  15.971  0.00  0.00    +0.000 N 
ATOM      4  C   UNL     1       4.061   6.732  17.017  0.00  0.00    +0.000 A 
ATOM      5  N   UNL     1       3.465   7.955  16.876  0.00  0.00    +0.000 NA
ATOM      6  C   UNL     1       2.755   8.068  17.978  0.00  0.00    +0.000 A 
ATOM      7  C   UNL     1       1.834   9.055  18.437  0.00  0.00    +0.000 A 
ATOM      8  C   UNL     1       1.222   8.913  19.639  0.00  0.00    +0.000 A 
ATOM      9  C   UNL     1       1.520   7.752  20.482  0.00  0.00    +0.000 A 
ATOM     10  C   UNL     1       2.383   6.820  20.046  0.00  0.00    +0.000 A 
ATOM     11  N   UNL     1       2.987   6.966  18.802  0.00  0.00    +0.000 N 
ATOM     12  N   UNL     1       3.837   6.130  18.182  0.00  0.00    +0.000 NA
ATOM     13  H   UNL     1       4.900   6.897  15.204  0.00  0.00    +0.000 HD
ENDROOT
BRANCH   8  14
ATOM     14  C   UNL     1       0.283   9.960  20.069  0.00  0.00    +0.000 A 
ATOM     15  C   UNL     1      -0.243  10.861  19.152  0.00  0.00    +0.000 A 
ATOM     16  N   UNL     1      -1.108  11.853  19.466  0.00  0.00    +0.000 NA
ATOM     17  C   UNL     1      -1.482  11.979  20.750  0.00  0.00    +0.000 A 
ATOM     18  C   UNL     1      -2.381  12.979  21.099  0.00  0.00    +0.000 A 
ATOM     19  C   UNL     1      -2.809  13.155  22.417  0.00  0.00    +0.000 A 
ATOM     20  C   UNL     1      -2.328  12.319  23.419  0.00  0.00    +0.000 A 
ATOM     21  C   UNL     1      -1.422  11.310  23.096  0.00  0.00    +0.000 A 
ATOM     22  C   UNL     1      -0.998  11.127  21.767  0.00  0.00    +0.000 A 
ATOM     23  C   UNL     1      -0.099  10.110  21.403  0.00  0.00    +0.000 A 
ENDBRANCH   8  14
BRANCH   2  24
ATOM     24  C   UNL     1       5.925   4.589  14.615  0.00  0.00    +0.000 A 
ATOM     25  C   UNL     1       7.074   5.339  14.317  0.00  0.00    +0.000 A 
ATOM     26  C   UNL     1       7.794   5.094  13.147  0.00  0.00    +0.000 A 
ATOM     27  C   UNL     1       7.360   4.106  12.265  0.00  0.00    +0.000 A 
ATOM     28  C   UNL     1       6.212   3.368  12.558  0.00  0.00    +0.000 A 
ATOM     29 CL   UNL     1       5.669   2.171  11.445  0.00  0.00    +0.000 Cl
ATOM     30  C   UNL     1       5.490   3.597  13.730  0.00  0.00    +0.000 A 
ENDBRANCH   2  24
TORSDOF 2
ENDMDL
MODEL 6
REMARK VINA RESULT:      -8.8      5.342     11.472
REMARK  Name = 
REMARK  2 active torsions:
REMARK  status: ('A' for Active; 'I' for Inactive)
REMARK    1  A    between atoms: C_2  and  C_23
REMARK    2  A    between atoms: C_8  and  C_9
REMARK                            x       y       z     vdW  Elec       q    Type
REMARK                         _______ _______ _______ _____ _____    ______ ____
ROOT
ATOM      1  O   UNL     1      -1.492  13.559  20.836  0.00  0.00    +0.000 OA
ATOM      2  C   UNL     1      -1.255  13.108  21.951  0.00  0.00    +0.000 C 
ATOM      3  N   UNL     1      -0.490  12.006  22.259  0.00  0.00    +0.000 N 
ATOM      4  C   UNL     1       0.158  11.251  21.317  0.00  0.00    +0.000 A 
ATOM      5  N   UNL     1       0.591  10.004  21.677  0.00  0.00    +0.000 NA
ATOM      6  C   UNL     1       1.052   9.513  20.546  0.00  0.00    +0.000 A 
ATOM      7  C   UNL     1       1.573   8.235  20.188  0.00  0.00    +0.000 A 
ATOM      8  C   UNL     1       1.977   7.992  18.917  0.00  0.00    +0.000 A 
ATOM      9  C   UNL     1       1.899   9.051  17.907  0.00  0.00    +0.000 A 
ATOM     10  C   UNL     1       1.403  10.252  18.243  0.00  0.00    +0.000 A 
ATOM     11  N   UNL     1       0.970  10.481  19.545  0.00  0.00    +0.000 N 
ATOM     12  N   UNL     1       0.413  11.592  20.057  0.00  0.00    +0.000 NA
ATOM     13  H   UNL     1      -0.520  11.584  23.174  0.00  0.00    +0.000 HD
ENDROOT
BRANCH   8  14
ATOM     14  C   UNL     1       2.511   6.658  18.600  0.00  0.00    +0.000 A 
ATOM     15  C   UNL     1       3.681   6.518  17.866  0.00  0.00    +0.000 A 
ATOM     16  N   UNL     1       4.235   5.331  17.529  0.00  0.00    +0.000 NA
ATOM     17  C   UNL     1       3.611   4.210  17.930  0.00  0.00    +0.000 A 
ATOM     18  C   UNL     1       4.165   2.976  17.612  0.00  0.00    +0.000 A 
ATOM     19  C   UNL     1       3.564   1.777  18.005  0.00  0.00    +0.000 A 
ATOM     20  C   UNL     1       2.377   1.803  18.729  0.00  0.00    +0.000 A 
ATOM     21  C   UNL     1       1.797   3.028  19.057  0.00  0.00    +0.000 A 
ATOM     22  C   UNL     1       2.408   4.235  18.669  0.00  0.00    +0.000 A 
ATOM     23  C   UNL     1       1.862   5.488  18.996  0.00  0.00    +0.000 A 
ENDBRANCH   8  14
BRANCH   2  24
ATOM     24  C   UNL     1      -1.923  13.764  23.103  0.00  0.00    +0.000 A 
ATOM     25  C   UNL     1      -3.321  13.671  23.197  0.00  0.00    +0.000 A 
ATOM     26  C   UNL     1      -4.005  14.311  24.232  0.00  0.00    +0.000 A 
ATOM     27  C   UNL     1      -3.293  15.058  25.169  0.00  0.00    +0.000 A 
ATOM     28  C   UNL     1      -1.904  15.158  25.067  0.00  0.00    +0.000 A 
ATOM     29 CL   UNL     1      -1.040  16.109  26.214  0.00  0.00    +0.000 Cl
ATOM     30  C   UNL     1      -1.210  14.513  24.044  0.00  0.00    +0.000 A 
ENDBRANCH   2  24
TORSDOF 2
ENDMDL
MODEL 7
REMARK VINA RESULT:      -8.7      2.781      4.963
REMARK  Name = 
REMARK  2 active torsions:
REMARK  status: ('A' for Active; 'I' for Inactive)
REMARK    1  A    between atoms: C_2  and  C_23
REMARK    2  A    between atoms: C_8  and  C_9
REMARK                            x       y       z     vdW  Elec       q    Type
REMARK                         _______ _______ _______ _____ _____    ______ ____
ROOT
ATOM      1  O   UNL     1       2.229   5.665  20.542  0.00  0.00    +0.000 OA
ATOM      2  C   UNL     1       2.549   6.310  19.550  0.00  0.00    +0.000 C 
ATOM      3  N   UNL     1       2.239   7.622  19.273  0.00  0.00    +0.000 N 
ATOM      4  C   UNL     1       1.521   8.423  20.122  0.00  0.00    +0.000 A 
ATOM      5  N   UNL     1       0.975   9.571  19.618  0.00  0.00    +0.000 NA
ATOM      6  C   UNL     1       0.275  10.036  20.631  0.00  0.00    +0.000 A 
ATOM      7  C   UNL     1      -0.604  11.151  20.767  0.00  0.00    +0.000 A 
ATOM      8  C   UNL     1      -1.216  11.398  21.952  0.00  0.00    +0.000 A 
ATOM      9  C   UNL     1      -0.962  10.530  23.105  0.00  0.00    +0.000 A 
ATOM     10  C   UNL     1      -0.139   9.477  22.973  0.00  0.00    +0.000 A 
ATOM     11  N   UNL     1       0.465   9.221  21.747  0.00  0.00    +0.000 N 
ATOM     12  N   UNL     1       1.278   8.205  21.411  0.00  0.00    +0.000 NA
ATOM     13  H   UNL     1       2.359   8.007  18.349  0.00  0.00    +0.000 HD
ENDROOT
BRANCH   8  14
ATOM     14  C   UNL     1      -2.110  12.563  22.043  0.00  0.00    +0.000 A 
ATOM     15  C   UNL     1      -1.861  13.708  21.297  0.00  0.00    +0.000 A 
ATOM     16  N   UNL     1      -2.630  14.821  21.326  0.00  0.00    +0.000 NA
ATOM     17  C   UNL     1      -3.706  14.821  22.130  0.00  0.00    +0.000 A 
ATOM     18  C   UNL     1      -4.523  15.944  22.169  0.00  0.00    +0.000 A 
ATOM     19  C   UNL     1      -5.657  16.000  22.982  0.00  0.00    +0.000 A 
ATOM     20  C   UNL     1      -5.988  14.913  23.785  0.00  0.00    +0.000 A 
ATOM     21  C   UNL     1      -5.182  13.776  23.769  0.00  0.00    +0.000 A 
ATOM     22  C   UNL     1      -4.046  13.716  22.942  0.00  0.00    +0.000 A 
ATOM     23  C   UNL     1      -3.220  12.580  22.888  0.00  0.00    +0.000 A 
ENDBRANCH   8  14
BRANCH   2  24
ATOM     24  C   UNL     1       3.286   5.588  18.483  0.00  0.00    +0.000 A 
ATOM     25  C   UNL     1       2.771   4.360  18.039  0.00  0.00    +0.000 A 
ATOM     26  C   UNL     1       3.451   3.616  17.073  0.00  0.00    +0.000 A 
ATOM     27  C   UNL     1       4.655   4.092  16.558  0.00  0.00    +0.000 A 
ATOM     28  C   UNL     1       5.171   5.308  17.009  0.00  0.00    +0.000 A 
ATOM     29 CL   UNL     1       6.676   5.870  16.387  0.00  0.00    +0.000 Cl
ATOM     30  C   UNL     1       4.495   6.066  17.966  0.00  0.00    +0.000 A 
ENDBRANCH   2  24
TORSDOF 2
ENDMDL
MODEL 8
REMARK VINA RESULT:      -8.6      4.859     10.854
REMARK  Name = 
REMARK  2 active torsions:
REMARK  status: ('A' for Active; 'I' for Inactive)
REMARK    1  A    between atoms: C_2  and  C_23
REMARK    2  A    between atoms: C_8  and  C_9
REMARK                            x       y       z     vdW  Elec       q    Type
REMARK                         _______ _______ _______ _____ _____    ______ ____
ROOT
ATOM      1  O   UNL     1      -0.452  13.802  21.853  0.00  0.00    +0.000 OA
ATOM      2  C   UNL     1      -0.614  14.059  20.666  0.00  0.00    +0.000 C 
ATOM      3  N   UNL     1      -0.385  13.227  19.594  0.00  0.00    +0.000 N 
ATOM      4  C   UNL     1       0.047  11.933  19.722  0.00  0.00    +0.000 A 
ATOM      5  N   UNL     1       0.570  11.316  18.619  0.00  0.00    +0.000 NA
ATOM      6  C   UNL     1       0.985  10.161  19.094  0.00  0.00    +0.000 A 
ATOM      7  C   UNL     1       1.695   9.073  18.507  0.00  0.00    +0.000 A 
ATOM      8  C   UNL     1       2.009   7.982  19.248  0.00  0.00    +0.000 A 
ATOM      9  C   UNL     1       1.601   7.906  20.654  0.00  0.00    +0.000 A 
ATOM     10  C   UNL     1       0.937   8.934  21.207  0.00  0.00    +0.000 A 
ATOM     11  N   UNL     1       0.642  10.057  20.443  0.00  0.00    +0.000 N 
ATOM     12  N   UNL     1       0.027  11.190  20.825  0.00  0.00    +0.000 NA
ATOM     13  H   UNL     1      -0.341  13.583  18.652  0.00  0.00    +0.000 HD
ENDROOT
BRANCH   8  14
ATOM     14  C   UNL     1       2.740   6.884  18.595  0.00  0.00    +0.000 A 
ATOM     15  C   UNL     1       2.533   5.566  18.980  0.00  0.00    +0.000 A 
ATOM     16  N   UNL     1       3.166   4.502  18.434  0.00  0.00    +0.000 NA
ATOM     17  C   UNL     1       4.056   4.734  17.454  0.00  0.00    +0.000 A 
ATOM     18  C   UNL     1       4.710   3.660  16.864  0.00  0.00    +0.000 A 
ATOM     19  C   UNL     1       5.641   3.840  15.838  0.00  0.00    +0.000 A 
ATOM     20  C   UNL     1       5.937   5.123  15.389  0.00  0.00    +0.000 A 
ATOM     21  C   UNL     1       5.299   6.219  15.968  0.00  0.00    +0.000 A 
ATOM     22  C   UNL     1       4.354   6.036  16.994  0.00  0.00    +0.000 A 
ATOM     23  C   UNL     1       3.678   7.116  17.588  0.00  0.00    +0.000 A 
ENDBRANCH   8  14
BRANCH   2  24
ATOM     24  C   UNL     1      -1.026  15.444  20.324  0.00  0.00    +0.000 A 
ATOM     25  C   UNL     1      -1.893  16.111  21.204  0.00  0.00    +0.000 A 
ATOM     26  C   UNL     1      -2.351  17.395  20.907  0.00  0.00    +0.000 A 
ATOM     27  C   UNL     1      -1.955  18.011  19.721  0.00  0.00    +0.000 A 
ATOM     28  C   UNL     1      -1.102  17.341  18.841  0.00  0.00    +0.000 A 
ATOM     29 CL   UNL     1      -0.645  18.100  17.365  0.00  0.00    +0.000 Cl
ATOM     30  C   UNL     1      -0.628  16.062  19.134  0.00  0.00    +0.000 A 
ENDBRANCH   2  24
TORSDOF 2
ENDMDL
MODEL 9
REMARK VINA RESULT:      -8.5      4.998     11.515
REMARK  Name = 
REMARK  2 active torsions:
REMARK  status: ('A' for Active; 'I' for Inactive)
REMARK    1  A    between atoms: C_2  and  C_23
REMARK    2  A    between atoms: C_8  and  C_9
REMARK                            x       y       z     vdW  Elec       q    Type
REMARK                         _______ _______ _______ _____ _____    ______ ____
ROOT
ATOM      1  O   UNL     1      -2.206  13.335  20.507  0.00  0.00    +0.000 OA
ATOM      2  C   UNL     1      -2.284  12.625  21.503  0.00  0.00    +0.000 C 
ATOM      3  N   UNL     1      -1.561  11.486  21.773  0.00  0.00    +0.000 N 
ATOM      4  C   UNL     1      -0.595  10.989  20.938  0.00  0.00    +0.000 A 
ATOM      5  N   UNL     1      -0.191   9.694  21.118  0.00  0.00    +0.000 NA
ATOM      6  C   UNL     1       0.634   9.499  20.110  0.00  0.00    +0.000 A 
ATOM      7  C   UNL     1       1.344   8.351  19.651  0.00  0.00    +0.000 A 
ATOM      8  C   UNL     1       2.137   8.431  18.554  0.00  0.00    +0.000 A 
ATOM      9  C   UNL     1       2.284   9.705  17.845  0.00  0.00    +0.000 A 
ATOM     10  C   UNL     1       1.610  10.784  18.275  0.00  0.00    +0.000 A 
ATOM     11  N   UNL     1       0.782  10.683  19.388  0.00  0.00    +0.000 N 
ATOM     12  N   UNL     1       0.004  11.631  19.939  0.00  0.00    +0.000 NA
ATOM     13  H   UNL     1      -1.835  10.851  22.507  0.00  0.00    +0.000 HD
ENDROOT
BRANCH   8  14
ATOM     14  C   UNL     1       2.851   7.218  18.123  0.00  0.00    +0.000 A 
ATOM     15  C   UNL     1       2.558   5.985  18.688  0.00  0.00    +0.000 A 
ATOM     16  N   UNL     1       3.170   4.826  18.351  0.00  0.00    +0.000 NA
ATOM     17  C   UNL     1       4.126   4.870  17.408  0.00  0.00    +0.000 A 
ATOM     18  C   UNL     1       4.760   3.693  17.031  0.00  0.00    +0.000 A 
ATOM     19  C   UNL     1       5.758   3.677  16.054  0.00  0.00    +0.000 A 
ATOM     20  C   UNL     1       6.142   4.863  15.437  0.00  0.00    +0.000 A 
ATOM     21  C   UNL     1       5.525   6.058  15.800  0.00  0.00    +0.000 A 
ATOM     22  C   UNL     1       4.513   6.073  16.778  0.00  0.00    +0.000 A 
ATOM     23  C   UNL     1       3.857   7.256  17.157  0.00  0.00    +0.000 A 
ENDBRANCH   8  14
BRANCH   2  24
ATOM     24  C   UNL     1      -3.325  12.974  22.502  0.00  0.00    +0.000 A 
ATOM     25  C   UNL     1      -3.355  12.250  23.705  0.00  0.00    +0.000 A 
ATOM     26  C   UNL     1      -4.343  12.504  24.657  0.00  0.00    +0.000 A 
ATOM     27  C   UNL     1      -5.313  13.472  24.404  0.00  0.00    +0.000 A 
ATOM     28  C   UNL     1      -5.288  14.183  23.202  0.00  0.00    +0.000 A 
ATOM     29 CL   UNL     1      -6.509  15.355  22.888  0.00  0.00    +0.000 Cl
ATOM     30  C   UNL     1      -4.298  13.946  22.248  0.00  0.00    +0.000 A 
ENDBRANCH   2  24
TORSDOF 2
ENDMDL
