MODEL 1
REMARK VINA RESULT:      -7.4      0.000      0.000
REMARK  Name = 
REMARK  4 active torsions:
REMARK  status: ('A' for Active; 'I' for Inactive)
REMARK    1  A    between atoms: C_1  and  N_2
REMARK    2  A    between atoms: N_2  and  C_3
REMARK    3  A    between atoms: N_2  and  C_4
REMARK    4  A    between atoms: C_10  and  C_11
REMARK                            x       y       z     vdW  Elec       q    Type
REMARK                         _______ _______ _______ _____ _____    ______ ____
ROOT
ATOM      1  C   UNL     1       0.086  10.237  20.572  0.00  0.00    +0.000 C 
ATOM      2  C   UNL     1      -0.231   9.171  21.629  0.00  0.00    +0.000 C 
ATOM      3  C   UNL     1       1.154   8.618  21.936  0.00  0.00    +0.000 C 
ATOM      4  N   UNL     1       1.763   8.423  20.610  0.00  0.00    +0.000 N 
ATOM      5  C   UNL     1       1.935   7.091  20.218  0.00  0.00    +0.000 A 
ATOM      6  C   UNL     1       2.711   6.738  19.115  0.00  0.00    +0.000 A 
ATOM      7  C   UNL     1       2.967   5.385  18.907  0.00  0.00    +0.000 A 
ATOM      8  N   UNL     1       2.457   4.406  19.690  0.00  0.00    +0.000 NA
ATOM      9  C   UNL     1       1.696   4.843  20.698  0.00  0.00    +0.000 A 
ATOM     10  N   UNL     1       1.427   6.115  20.996  0.00  0.00    +0.000 NA
ATOM     11  C   UNL     1       1.096   9.383  19.683  0.00  0.00    +0.000 C 
ENDROOT
BRANCH   7  12
ATOM     12  C   UNL     1       3.639   4.927  17.693  0.00  0.00    +0.000 A 
ATOM     13  C   UNL     1       3.840   3.585  17.258  0.00  0.00    +0.000 A 
ATOM     14  N   UNL     1       4.298   2.624  18.106  0.00  0.00    +0.000 N 
ATOM     15  N   UNL     1       4.244   3.614  15.995  0.00  0.00    +0.000 NA
ATOM     16  N   UNL     1       5.148   4.602  16.098  0.00  0.00    +0.000 N 
ATOM     17  C   UNL     1       6.411   4.589  15.501  0.00  0.00    +0.000 A 
ATOM     18  C   UNL     1       7.369   5.358  16.025  0.00  0.00    +0.000 A 
ATOM     19  C   UNL     1       6.935   6.285  17.107  0.00  0.00    +0.000 A 
ATOM     20  N   UNL     1       5.738   6.398  17.609  0.00  0.00    +0.000 NA
ATOM     21  C   UNL     1       4.828   5.462  17.168  0.00  0.00    +0.000 A 
ATOM     22  H   UNL     1       4.314   2.916  19.086  0.00  0.00    +0.000 HD
ATOM     23  H   UNL     1       5.250   2.356  17.859  0.00  0.00    +0.000 HD
ENDBRANCH   7  12
BRANCH   1  25
ATOM     24  C   UNL     1       1.208  12.404  20.215  0.00  0.00    +0.000 C 
ATOM     25  N   UNL     1       0.616  11.490  21.196  0.00  0.00    +0.000 NA
ATOM     26  C   UNL     1      -0.413  12.246  21.933  0.00  0.00    +0.000 C 
ENDBRANCH   1  25
TORSDOF 2
ENDMDL
MODEL 2
REMARK VINA RESULT:      -7.2      2.105      4.129
REMARK  Name = 
REMARK  4 active torsions:
REMARK  status: ('A' for Active; 'I' for Inactive)
REMARK    1  A    between atoms: C_1  and  N_2
REMARK    2  A    between atoms: N_2  and  C_3
REMARK    3  A    between atoms: N_2  and  C_4
REMARK    4  A    between atoms: C_10  and  C_11
REMARK                            x       y       z     vdW  Elec       q    Type
REMARK                         _______ _______ _______ _____ _____    ______ ____
ROOT
ATOM      1  C   UNL     1       0.032  12.234  21.749  0.00  0.00    +0.000 C 
ATOM      2  C   UNL     1       0.057  12.575  20.253  0.00  0.00    +0.000 C 
ATOM      3  C   UNL     1      -0.568  11.328  19.642  0.00  0.00    +0.000 C 
ATOM      4  N   UNL     1       0.110  10.216  20.328  0.00  0.00    +0.000 N 
ATOM      5  C   UNL     1       0.995   9.473  19.538  0.00  0.00    +0.000 A 
ATOM      6  C   UNL     1       1.522   8.255  19.962  0.00  0.00    +0.000 A 
ATOM      7  C   UNL     1       2.252   7.506  19.042  0.00  0.00    +0.000 A 
ATOM      8  N   UNL     1       2.514   7.931  17.784  0.00  0.00    +0.000 NA
ATOM      9  C   UNL     1       1.998   9.128  17.485  0.00  0.00    +0.000 A 
ATOM     10  N   UNL     1       1.258   9.896  18.286  0.00  0.00    +0.000 NA
ATOM     11  C   UNL     1       0.562  10.735  21.651  0.00  0.00    +0.000 C 
ENDROOT
BRANCH   7  12
ATOM     12  C   UNL     1       2.962   6.298  19.453  0.00  0.00    +0.000 A 
ATOM     13  C   UNL     1       3.978   5.595  18.741  0.00  0.00    +0.000 A 
ATOM     14  N   UNL     1       3.844   5.301  17.419  0.00  0.00    +0.000 N 
ATOM     15  N   UNL     1       4.540   4.726  19.570  0.00  0.00    +0.000 NA
ATOM     16  N   UNL     1       3.423   4.235  20.132  0.00  0.00    +0.000 N 
ATOM     17  C   UNL     1       3.193   2.882  20.393  0.00  0.00    +0.000 A 
ATOM     18  C   UNL     1       1.929   2.463  20.505  0.00  0.00    +0.000 A 
ATOM     19  C   UNL     1       0.891   3.530  20.501  0.00  0.00    +0.000 A 
ATOM     20  N   UNL     1       1.084   4.813  20.371  0.00  0.00    +0.000 NA
ATOM     21  C   UNL     1       2.378   5.181  20.075  0.00  0.00    +0.000 A 
ATOM     22  H   UNL     1       3.052   5.769  16.973  0.00  0.00    +0.000 HD
ATOM     23  H   UNL     1       3.709   4.298  17.291  0.00  0.00    +0.000 HD
ENDBRANCH   7  12
BRANCH   1  25
ATOM     24  C   UNL     1      -1.735  11.346  23.223  0.00  0.00    +0.000 C 
ATOM     25  N   UNL     1      -1.330  12.441  22.337  0.00  0.00    +0.000 NA
ATOM     26  C   UNL     1      -1.439  13.692  23.109  0.00  0.00    +0.000 C 
ENDBRANCH   1  25
TORSDOF 2
ENDMDL
MODEL 3
REMARK VINA RESULT:      -7.2      2.027      3.518
REMARK  Name = 
REMARK  4 active torsions:
REMARK  status: ('A' for Active; 'I' for Inactive)
REMARK    1  A    between atoms: C_1  and  N_2
REMARK    2  A    between atoms: N_2  and  C_3
REMARK    3  A    between atoms: N_2  and  C_4
REMARK    4  A    between atoms: C_10  and  C_11
REMARK                            x       y       z     vdW  Elec       q    Type
REMARK                         _______ _______ _______ _____ _____    ______ ____
ROOT
ATOM      1  C   UNL     1       0.549  11.305  21.670  0.00  0.00    +0.000 C 
ATOM      2  C   UNL     1       0.661  11.720  20.196  0.00  0.00    +0.000 C 
ATOM      3  C   UNL     1       0.071  10.507  19.489  0.00  0.00    +0.000 C 
ATOM      4  N   UNL     1       0.709   9.360  20.156  0.00  0.00    +0.000 N 
ATOM      5  C   UNL     1       1.637   8.655  19.383  0.00  0.00    +0.000 A 
ATOM      6  C   UNL     1       2.138   7.415  19.775  0.00  0.00    +0.000 A 
ATOM      7  C   UNL     1       2.919   6.710  18.862  0.00  0.00    +0.000 A 
ATOM      8  N   UNL     1       3.254   7.197  17.644  0.00  0.00    +0.000 NA
ATOM      9  C   UNL     1       2.757   8.409  17.376  0.00  0.00    +0.000 A 
ATOM     10  N   UNL     1       1.972   9.138  18.170  0.00  0.00    +0.000 NA
ATOM     11  C   UNL     1       1.083   9.811  21.528  0.00  0.00    +0.000 C 
ENDROOT
BRANCH   7  12
ATOM     12  C   UNL     1       3.604   5.481  19.252  0.00  0.00    +0.000 A 
ATOM     13  C   UNL     1       4.975   5.142  19.056  0.00  0.00    +0.000 A 
ATOM     14  N   UNL     1       5.588   5.332  17.856  0.00  0.00    +0.000 N 
ATOM     15  N   UNL     1       5.246   4.070  19.787  0.00  0.00    +0.000 NA
ATOM     16  N   UNL     1       4.156   3.344  19.489  0.00  0.00    +0.000 N 
ATOM     17  C   UNL     1       4.165   1.976  19.206  0.00  0.00    +0.000 A 
ATOM     18  C   UNL     1       3.158   1.468  18.491  0.00  0.00    +0.000 A 
ATOM     19  C   UNL     1       2.033   2.401  18.206  0.00  0.00    +0.000 A 
ATOM     20  N   UNL     1       1.946   3.654  18.553  0.00  0.00    +0.000 NA
ATOM     21  C   UNL     1       3.082   4.182  19.126  0.00  0.00    +0.000 A 
ATOM     22  H   UNL     1       5.033   5.880  17.194  0.00  0.00    +0.000 HD
ATOM     23  H   UNL     1       5.783   4.435  17.411  0.00  0.00    +0.000 HD
ENDBRANCH   7  12
BRANCH   1  25
ATOM     24  C   UNL     1      -1.185  10.526  23.241  0.00  0.00    +0.000 C 
ATOM     25  N   UNL     1      -0.844  11.488  22.188  0.00  0.00    +0.000 NA
ATOM     26  C   UNL     1      -1.083  12.837  22.732  0.00  0.00    +0.000 C 
ENDBRANCH   1  25
TORSDOF 2
ENDMDL
MODEL 4
REMARK VINA RESULT:      -7.1      2.437      8.412
REMARK  Name = 
REMARK  4 active torsions:
REMARK  status: ('A' for Active; 'I' for Inactive)
REMARK    1  A    between atoms: C_1  and  N_2
REMARK    2  A    between atoms: N_2  and  C_3
REMARK    3  A    between atoms: N_2  and  C_4
REMARK    4  A    between atoms: C_10  and  C_11
REMARK                            x       y       z     vdW  Elec       q    Type
REMARK                         _______ _______ _______ _____ _____    ______ ____
ROOT
ATOM      1  C   UNL     1       2.125   3.877  19.093  0.00  0.00    +0.000 C 
ATOM      2  C   UNL     1       2.472   4.636  17.805  0.00  0.00    +0.000 C 
ATOM      3  C   UNL     1       3.345   5.764  18.338  0.00  0.00    +0.000 C 
ATOM      4  N   UNL     1       2.608   6.262  19.511  0.00  0.00    +0.000 N 
ATOM      5  C   UNL     1       2.036   7.531  19.368  0.00  0.00    +0.000 A 
ATOM      6  C   UNL     1       1.524   8.240  20.453  0.00  0.00    +0.000 A 
ATOM      7  C   UNL     1       1.136   9.561  20.242  0.00  0.00    +0.000 A 
ATOM      8  N   UNL     1       1.185  10.163  19.030  0.00  0.00    +0.000 NA
ATOM      9  C   UNL     1       1.655   9.389  18.047  0.00  0.00    +0.000 A 
ATOM     10  N   UNL     1       2.082   8.131  18.162  0.00  0.00    +0.000 NA
ATOM     11  C   UNL     1       1.774   5.130  20.010  0.00  0.00    +0.000 C 
ENDROOT
BRANCH   7  12
ATOM     12  C   UNL     1       0.450  10.317  21.287  0.00  0.00    +0.000 A 
ATOM     13  C   UNL     1      -0.052   9.834  22.530  0.00  0.00    +0.000 A 
ATOM     14  N   UNL     1      -0.790   8.693  22.603  0.00  0.00    +0.000 N 
ATOM     15  N   UNL     1      -0.354  10.878  23.290  0.00  0.00    +0.000 NA
ATOM     16  N   UNL     1      -0.985  11.621  22.366  0.00  0.00    +0.000 N 
ATOM     17  C   UNL     1      -2.170  12.327  22.588  0.00  0.00    +0.000 A 
ATOM     18  C   UNL     1      -2.936  12.630  21.537  0.00  0.00    +0.000 A 
ATOM     19  C   UNL     1      -2.354  12.318  20.202  0.00  0.00    +0.000 A 
ATOM     20  N   UNL     1      -1.202  11.760  19.959  0.00  0.00    +0.000 NA
ATOM     21  C   UNL     1      -0.530  11.301  21.071  0.00  0.00    +0.000 A 
ATOM     22  H   UNL     1      -0.796   8.152  21.734  0.00  0.00    +0.000 HD
ATOM     23  H   UNL     1      -1.761   8.911  22.825  0.00  0.00    +0.000 HD
ENDBRANCH   7  12
BRANCH   1  25
ATOM     24  C   UNL     1       3.114   2.555  20.924  0.00  0.00    +0.000 C 
ATOM     25  N   UNL     1       3.255   2.999  19.535  0.00  0.00    +0.000 NA
ATOM     26  C   UNL     1       3.407   1.793  18.702  0.00  0.00    +0.000 C 
ENDBRANCH   1  25
TORSDOF 2
ENDMDL
MODEL 5
REMARK VINA RESULT:      -6.9      2.600      8.289
REMARK  Name = 
REMARK  4 active torsions:
REMARK  status: ('A' for Active; 'I' for Inactive)
REMARK    1  A    between atoms: C_1  and  N_2
REMARK    2  A    between atoms: N_2  and  C_3
REMARK    3  A    between atoms: N_2  and  C_4
REMARK    4  A    between atoms: C_10  and  C_11
REMARK                            x       y       z     vdW  Elec       q    Type
REMARK                         _______ _______ _______ _____ _____    ______ ____
ROOT
ATOM      1  C   UNL     1       2.057   4.089  19.648  0.00  0.00    +0.000 C 
ATOM      2  C   UNL     1       2.527   4.649  18.299  0.00  0.00    +0.000 C 
ATOM      3  C   UNL     1       3.373   5.837  18.735  0.00  0.00    +0.000 C 
ATOM      4  N   UNL     1       2.548   6.507  19.754  0.00  0.00    +0.000 N 
ATOM      5  C   UNL     1       2.015   7.744  19.377  0.00  0.00    +0.000 A 
ATOM      6  C   UNL     1       1.425   8.609  20.297  0.00  0.00    +0.000 A 
ATOM      7  C   UNL     1       1.082   9.887  19.863  0.00  0.00    +0.000 A 
ATOM      8  N   UNL     1       1.246  10.303  18.585  0.00  0.00    +0.000 NA
ATOM      9  C   UNL     1       1.783   9.389  17.770  0.00  0.00    +0.000 A 
ATOM     10  N   UNL     1       2.175   8.160  18.104  0.00  0.00    +0.000 NA
ATOM     11  C   UNL     1       1.653   5.467  20.338  0.00  0.00    +0.000 C 
ENDROOT
BRANCH   7  12
ATOM     12  C   UNL     1       0.325  10.793  20.722  0.00  0.00    +0.000 A 
ATOM     13  C   UNL     1      -1.054  11.141  20.626  0.00  0.00    +0.000 A 
ATOM     14  N   UNL     1      -1.619  11.486  19.437  0.00  0.00    +0.000 N 
ATOM     15  N   UNL     1      -1.402  11.768  21.742  0.00  0.00    +0.000 NA
ATOM     16  N   UNL     1      -0.341  12.584  21.852  0.00  0.00    +0.000 N 
ATOM     17  C   UNL     1      -0.410  13.934  22.205  0.00  0.00    +0.000 A 
ATOM     18  C   UNL     1       0.593  14.737  21.840  0.00  0.00    +0.000 A 
ATOM     19  C   UNL     1       1.772  14.063  21.229  0.00  0.00    +0.000 A 
ATOM     20  N   UNL     1       1.911  12.790  20.989  0.00  0.00    +0.000 NA
ATOM     21  C   UNL     1       0.785  12.028  21.211  0.00  0.00    +0.000 A 
ATOM     22  H   UNL     1      -1.016  11.307  18.630  0.00  0.00    +0.000 HD
ATOM     23  H   UNL     1      -1.844  12.481  19.426  0.00  0.00    +0.000 HD
ENDBRANCH   7  12
BRANCH   1  25
ATOM     24  C   UNL     1       2.668   2.636  21.545  0.00  0.00    +0.000 C 
ATOM     25  N   UNL     1       3.128   3.279  20.310  0.00  0.00    +0.000 NA
ATOM     26  C   UNL     1       3.671   2.220  19.440  0.00  0.00    +0.000 C 
ENDBRANCH   1  25
TORSDOF 2
ENDMDL
MODEL 6
REMARK VINA RESULT:      -6.7      1.631      7.734
REMARK  Name = 
REMARK  4 active torsions:
REMARK  status: ('A' for Active; 'I' for Inactive)
REMARK    1  A    between atoms: C_1  and  N_2
REMARK    2  A    between atoms: N_2  and  C_3
REMARK    3  A    between atoms: N_2  and  C_4
REMARK    4  A    between atoms: C_10  and  C_11
REMARK                            x       y       z     vdW  Elec       q    Type
REMARK                         _______ _______ _______ _____ _____    ______ ____
ROOT
ATOM      1  C   UNL     1       5.714   5.195  17.249  0.00  0.00    +0.000 C 
ATOM      2  C   UNL     1       5.026   4.146  18.133  0.00  0.00    +0.000 C 
ATOM      3  C   UNL     1       3.556   4.413  17.843  0.00  0.00    +0.000 C 
ATOM      4  N   UNL     1       3.437   5.878  17.920  0.00  0.00    +0.000 N 
ATOM      5  C   UNL     1       2.727   6.367  19.021  0.00  0.00    +0.000 A 
ATOM      6  C   UNL     1       2.318   7.696  19.109  0.00  0.00    +0.000 A 
ATOM      7  C   UNL     1       1.468   8.048  20.155  0.00  0.00    +0.000 A 
ATOM      8  N   UNL     1       1.070   7.175  21.111  0.00  0.00    +0.000 NA
ATOM      9  C   UNL     1       1.546   5.935  20.960  0.00  0.00    +0.000 A 
ATOM     10  N   UNL     1       2.330   5.500  19.974  0.00  0.00    +0.000 NA
ATOM     11  C   UNL     1       4.783   6.438  17.604  0.00  0.00    +0.000 C 
ENDROOT
BRANCH   7  12
ATOM     12  C   UNL     1       1.121   9.445  20.402  0.00  0.00    +0.000 A 
ATOM     13  C   UNL     1       0.695  10.037  21.627  0.00  0.00    +0.000 A 
ATOM     14  N   UNL     1      -0.266   9.460  22.399  0.00  0.00    +0.000 N 
ATOM     15  N   UNL     1       0.746  11.355  21.490  0.00  0.00    +0.000 NA
ATOM     16  N   UNL     1       0.180  11.451  20.276  0.00  0.00    +0.000 N 
ATOM     17  C   UNL     1      -0.771  12.408  19.916  0.00  0.00    +0.000 A 
ATOM     18  C   UNL     1      -1.584  12.142  18.890  0.00  0.00    +0.000 A 
ATOM     19  C   UNL     1      -1.275  10.902  18.125  0.00  0.00    +0.000 A 
ATOM     20  N   UNL     1      -0.323  10.045  18.371  0.00  0.00    +0.000 NA
ATOM     21  C   UNL     1       0.371  10.263  19.541  0.00  0.00    +0.000 A 
ATOM     22  H   UNL     1      -0.513   8.512  22.105  0.00  0.00    +0.000 HD
ATOM     23  H   UNL     1      -1.123  10.013  22.371  0.00  0.00    +0.000 HD
ENDBRANCH   7  12
BRANCH   1  25
ATOM     24  C   UNL     1       5.354   5.824  14.892  0.00  0.00    +0.000 C 
ATOM     25  N   UNL     1       5.760   4.761  15.816  0.00  0.00    +0.000 NA
ATOM     26  C   UNL     1       7.096   4.301  15.397  0.00  0.00    +0.000 C 
ENDBRANCH   1  25
TORSDOF 2
ENDMDL
MODEL 7
REMARK VINA RESULT:      -6.7      0.776      1.049
REMARK  Name = 
REMARK  4 active torsions:
REMARK  status: ('A' for Active; 'I' for Inactive)
REMARK    1  A    between atoms: C_1  and  N_2
REMARK    2  A    between atoms: N_2  and  C_3
REMARK    3  A    between atoms: N_2  and  C_4
REMARK    4  A    between atoms: C_10  and  C_11
REMARK                            x       y       z     vdW  Elec       q    Type
REMARK                         _______ _______ _______ _____ _____    ______ ____
ROOT
ATOM      1  C   UNL     1      -0.202  10.620  19.401  0.00  0.00    +0.000 C 
ATOM      2  C   UNL     1      -0.403   9.845  20.710  0.00  0.00    +0.000 C 
ATOM      3  C   UNL     1       1.030   9.481  21.077  0.00  0.00    +0.000 C 
ATOM      4  N   UNL     1       1.608   8.991  19.814  0.00  0.00    +0.000 N 
ATOM      5  C   UNL     1       1.869   7.618  19.766  0.00  0.00    +0.000 A 
ATOM      6  C   UNL     1       2.632   7.044  18.751  0.00  0.00    +0.000 A 
ATOM      7  C   UNL     1       2.985   5.703  18.881  0.00  0.00    +0.000 A 
ATOM      8  N   UNL     1       2.577   4.927  19.913  0.00  0.00    +0.000 NA
ATOM      9  C   UNL     1       1.817   5.558  20.814  0.00  0.00    +0.000 A 
ATOM     10  N   UNL     1       1.462   6.843  20.792  0.00  0.00    +0.000 NA
ATOM     11  C   UNL     1       0.840   9.635  18.709  0.00  0.00    +0.000 C 
ENDROOT
BRANCH   7  12
ATOM     12  C   UNL     1       3.650   4.993  17.792  0.00  0.00    +0.000 A 
ATOM     13  C   UNL     1       3.864   3.589  17.665  0.00  0.00    +0.000 A 
ATOM     14  N   UNL     1       4.345   2.847  18.700  0.00  0.00    +0.000 N 
ATOM     15  N   UNL     1       4.254   3.340  16.422  0.00  0.00    +0.000 NA
ATOM     16  N   UNL     1       5.145   4.336  16.289  0.00  0.00    +0.000 N 
ATOM     17  C   UNL     1       6.402   4.204  15.693  0.00  0.00    +0.000 A 
ATOM     18  C   UNL     1       7.355   5.082  16.018  0.00  0.00    +0.000 A 
ATOM     19  C   UNL     1       6.919   6.222  16.872  0.00  0.00    +0.000 A 
ATOM     20  N   UNL     1       5.726   6.432  17.352  0.00  0.00    +0.000 NA
ATOM     21  C   UNL     1       4.825   5.410  17.144  0.00  0.00    +0.000 A 
ATOM     22  H   UNL     1       4.368   3.352  19.589  0.00  0.00    +0.000 HD
ATOM     23  H   UNL     1       5.298   2.542  18.505  0.00  0.00    +0.000 HD
ENDBRANCH   7  12
BRANCH   1  25
ATOM     24  C   UNL     1       0.248  12.365  21.085  0.00  0.00    +0.000 C 
ATOM     25  N   UNL     1       0.250  12.024  19.659  0.00  0.00    +0.000 NA
ATOM     26  C   UNL     1       1.605  12.295  19.146  0.00  0.00    +0.000 C 
ENDBRANCH   1  25
TORSDOF 2
ENDMDL
MODEL 8
REMARK VINA RESULT:      -6.6      2.630      8.213
REMARK  Name = 
REMARK  4 active torsions:
REMARK  status: ('A' for Active; 'I' for Inactive)
REMARK    1  A    between atoms: C_1  and  N_2
REMARK    2  A    between atoms: N_2  and  C_3
REMARK    3  A    between atoms: N_2  and  C_4
REMARK    4  A    between atoms: C_10  and  C_11
REMARK                            x       y       z     vdW  Elec       q    Type
REMARK                         _______ _______ _______ _____ _____    ______ ____
ROOT
ATOM      1  C   UNL     1       2.232   3.901  19.770  0.00  0.00    +0.000 C 
ATOM      2  C   UNL     1       3.173   4.400  18.665  0.00  0.00    +0.000 C 
ATOM      3  C   UNL     1       3.765   5.649  19.305  0.00  0.00    +0.000 C 
ATOM      4  N   UNL     1       2.601   6.341  19.881  0.00  0.00    +0.000 N 
ATOM      5  C   UNL     1       2.230   7.529  19.242  0.00  0.00    +0.000 A 
ATOM      6  C   UNL     1       1.317   8.419  19.804  0.00  0.00    +0.000 A 
ATOM      7  C   UNL     1       1.144   9.653  19.181  0.00  0.00    +0.000 A 
ATOM      8  N   UNL     1       1.777   9.999  18.035  0.00  0.00    +0.000 NA
ATOM      9  C   UNL     1       2.602   9.064  17.554  0.00  0.00    +0.000 A 
ATOM     10  N   UNL     1       2.859   7.875  18.100  0.00  0.00    +0.000 NA
ATOM     11  C   UNL     1       1.569   5.298  20.154  0.00  0.00    +0.000 C 
ENDROOT
BRANCH   7  12
ATOM     12  C   UNL     1       0.099  10.574  19.619  0.00  0.00    +0.000 A 
ATOM     13  C   UNL     1       0.042  11.986  19.432  0.00  0.00    +0.000 A 
ATOM     14  N   UNL     1       1.118  12.780  19.686  0.00  0.00    +0.000 N 
ATOM     15  N   UNL     1      -1.183  12.396  19.735  0.00  0.00    +0.000 NA
ATOM     16  N   UNL     1      -1.352  11.697  20.869  0.00  0.00    +0.000 N 
ATOM     17  C   UNL     1      -1.925  12.205  22.037  0.00  0.00    +0.000 A 
ATOM     18  C   UNL     1      -1.629  11.614  23.199  0.00  0.00    +0.000 A 
ATOM     19  C   UNL     1      -0.837  10.357  23.101  0.00  0.00    +0.000 A 
ATOM     20  N   UNL     1      -0.383   9.798  22.015  0.00  0.00    +0.000 NA
ATOM     21  C   UNL     1      -0.553  10.535  20.864  0.00  0.00    +0.000 A 
ATOM     22  H   UNL     1       1.982  12.259  19.851  0.00  0.00    +0.000 HD
ATOM     23  H   UNL     1       0.950  13.350  20.516  0.00  0.00    +0.000 HD
ENDBRANCH   7  12
BRANCH   1  25
ATOM     24  C   UNL     1       2.098   2.440  21.752  0.00  0.00    +0.000 C 
ATOM     25  N   UNL     1       2.982   3.181  20.847  0.00  0.00    +0.000 NA
ATOM     26  C   UNL     1       3.970   2.223  20.318  0.00  0.00    +0.000 C 
ENDBRANCH   1  25
TORSDOF 2
ENDMDL
MODEL 9
REMARK VINA RESULT:      -6.6      2.008      7.926
REMARK  Name = 
REMARK  4 active torsions:
REMARK  status: ('A' for Active; 'I' for Inactive)
REMARK    1  A    between atoms: C_1  and  N_2
REMARK    2  A    between atoms: N_2  and  C_3
REMARK    3  A    between atoms: N_2  and  C_4
REMARK    4  A    between atoms: C_10  and  C_11
REMARK                            x       y       z     vdW  Elec       q    Type
REMARK                         _______ _______ _______ _____ _____    ______ ____
ROOT
ATOM      1  C   UNL     1       5.954   5.638  16.554  0.00  0.00    +0.000 C 
ATOM      2  C   UNL     1       5.523   4.772  17.746  0.00  0.00    +0.000 C 
ATOM      3  C   UNL     1       4.008   4.769  17.594  0.00  0.00    +0.000 C 
ATOM      4  N   UNL     1       3.673   6.179  17.333  0.00  0.00    +0.000 N 
ATOM      5  C   UNL     1       3.003   6.839  18.368  0.00  0.00    +0.000 A 
ATOM      6  C   UNL     1       2.405   8.085  18.187  0.00  0.00    +0.000 A 
ATOM      7  C   UNL     1       1.614   8.583  19.220  0.00  0.00    +0.000 A 
ATOM      8  N   UNL     1       1.448   7.941  20.400  0.00  0.00    +0.000 NA
ATOM      9  C   UNL     1       2.092   6.773  20.491  0.00  0.00    +0.000 A 
ATOM     10  N   UNL     1       2.838   6.202  19.544  0.00  0.00    +0.000 NA
ATOM     11  C   UNL     1       4.880   6.803  16.719  0.00  0.00    +0.000 C 
ENDROOT
BRANCH   7  12
ATOM     12  C   UNL     1       1.081   9.942  19.168  0.00  0.00    +0.000 A 
ATOM     13  C   UNL     1       0.878  10.843  20.254  0.00  0.00    +0.000 A 
ATOM     14  N   UNL     1       0.275  10.444  21.406  0.00  0.00    +0.000 N 
ATOM     15  N   UNL     1       0.638  12.048  19.753  0.00  0.00    +0.000 NA
ATOM     16  N   UNL     1      -0.227  11.694  18.788  0.00  0.00    +0.000 N 
ATOM     17  C   UNL     1      -1.404  12.382  18.485  0.00  0.00    +0.000 A 
ATOM     18  C   UNL     1      -2.386  11.720  17.867  0.00  0.00    +0.000 A 
ATOM     19  C   UNL     1      -2.051  10.341  17.415  0.00  0.00    +0.000 A 
ATOM     20  N   UNL     1      -0.923   9.712  17.586  0.00  0.00    +0.000 NA
ATOM     21  C   UNL     1      -0.007  10.361  18.384  0.00  0.00    +0.000 A 
ATOM     22  H   UNL     1       0.148   9.431  21.472  0.00  0.00    +0.000 HD
ATOM     23  H   UNL     1      -0.650  10.866  21.489  0.00  0.00    +0.000 HD
ENDBRANCH   7  12
BRANCH   1  25
ATOM     24  C   UNL     1       7.084   5.149  14.417  0.00  0.00    +0.000 C 
ATOM     25  N   UNL     1       5.929   4.861  15.274  0.00  0.00    +0.000 NA
ATOM     26  C   UNL     1       5.894   3.403  15.486  0.00  0.00    +0.000 C 
ENDBRANCH   1  25
TORSDOF 2
ENDMDL
