MODEL 1
REMARK VINA RESULT:      -7.3      0.000      0.000
REMARK  Name = 
REMARK  4 active torsions:
REMARK  status: ('A' for Active; 'I' for Inactive)
REMARK    1  A    between atoms: C_2  and  C_3
REMARK    2  A    between atoms: C_3  and  N_4
REMARK    3  A    between atoms: N_10  and  C_11
REMARK    4  A    between atoms: C_14  and  C_15
REMARK                            x       y       z     vdW  Elec       q    Type
REMARK                         _______ _______ _______ _____ _____    ______ ____
ROOT
ATOM      1  O   UNL     1       6.893   4.380  17.637  0.00  0.00    +0.000 OA
ATOM      2  C   UNL     1       6.399   4.862  16.619  0.00  0.00    +0.000 C 
ATOM      3  N   UNL     1       5.041   4.898  16.327  0.00  0.00    +0.000 N 
ATOM      4  H   UNL     1       4.778   5.143  15.382  0.00  0.00    +0.000 HD
ENDROOT
BRANCH   3   5
ATOM      5  C   UNL     1       3.997   4.633  17.253  0.00  0.00    +0.000 A 
ATOM      6  C   UNL     1       3.579   3.328  17.532  0.00  0.00    +0.000 A 
ATOM      7  C   UNL     1       2.612   3.060  18.501  0.00  0.00    +0.000 A 
ATOM      8  C   UNL     1       2.049   4.093  19.254  0.00  0.00    +0.000 A 
ATOM      9  C   UNL     1       2.439   5.412  18.976  0.00  0.00    +0.000 A 
ATOM     10  C   UNL     1       3.383   5.682  17.971  0.00  0.00    +0.000 A 
ATOM     11 CL   UNL     1       3.691   7.336  17.572  0.00  0.00    +0.000 Cl
BRANCH   8  12
ATOM     12  C   UNL     1       1.034   3.792  20.329  0.00  0.00    +0.000 C 
ATOM     13  F   UNL     1       0.263   4.865  20.663  0.00  0.00    +0.000 F 
ATOM     14  F   UNL     1       0.164   2.810  19.964  0.00  0.00    +0.000 F 
ATOM     15  F   UNL     1       1.611   3.374  21.487  0.00  0.00    +0.000 F 
ENDBRANCH   8  12
ENDBRANCH   3   5
BRANCH   2  16
ATOM     16  C   UNL     1       7.320   5.458  15.554  0.00  0.00    +0.000 C 
BRANCH  16  17
ATOM     17  N   UNL     1       6.864   5.161  14.176  0.00  0.00    +0.000 NA
ATOM     18  C   UNL     1       7.968   5.315  13.205  0.00  0.00    +0.000 C 
ATOM     19  C   UNL     1       7.497   5.022  11.779  0.00  0.00    +0.000 C 
ATOM     20  C   UNL     1       6.880   3.634  11.669  0.00  0.00    +0.000 C 
ATOM     21  C   UNL     1       5.809   3.442  12.737  0.00  0.00    +0.000 C 
ATOM     22  C   UNL     1       6.347   3.778  14.127  0.00  0.00    +0.000 C 
ENDBRANCH  16  17
ENDBRANCH   2  16
TORSDOF 4
ENDMDL
MODEL 2
REMARK VINA RESULT:      -7.3      5.113      7.755
REMARK  Name = 
REMARK  4 active torsions:
REMARK  status: ('A' for Active; 'I' for Inactive)
REMARK    1  A    between atoms: C_2  and  C_3
REMARK    2  A    between atoms: C_3  and  N_4
REMARK    3  A    between atoms: N_10  and  C_11
REMARK    4  A    between atoms: C_14  and  C_15
REMARK                            x       y       z     vdW  Elec       q    Type
REMARK                         _______ _______ _______ _____ _____    ______ ____
ROOT
ATOM      1  O   UNL     1      -0.241   8.024  21.393  0.00  0.00    +0.000 OA
ATOM      2  C   UNL     1       0.805   8.595  21.091  0.00  0.00    +0.000 C 
ATOM      3  N   UNL     1       1.940   7.973  20.584  0.00  0.00    +0.000 N 
ATOM      4  H   UNL     1       2.792   8.517  20.558  0.00  0.00    +0.000 HD
ENDROOT
BRANCH   3   5
ATOM      5  C   UNL     1       1.992   6.644  20.085  0.00  0.00    +0.000 A 
ATOM      6  C   UNL     1       1.609   5.552  20.870  0.00  0.00    +0.000 A 
ATOM      7  C   UNL     1       1.579   4.255  20.357  0.00  0.00    +0.000 A 
ATOM      8  C   UNL     1       1.902   4.008  19.021  0.00  0.00    +0.000 A 
ATOM      9  C   UNL     1       2.308   5.087  18.221  0.00  0.00    +0.000 A 
ATOM     10  C   UNL     1       2.377   6.385  18.752  0.00  0.00    +0.000 A 
ATOM     11 CL   UNL     1       3.043   7.633  17.758  0.00  0.00    +0.000 Cl
BRANCH   8  12
ATOM     12  C   UNL     1       1.828   2.608  18.462  0.00  0.00    +0.000 C 
ATOM     13  F   UNL     1       2.226   2.522  17.161  0.00  0.00    +0.000 F 
ATOM     14  F   UNL     1       2.611   1.731  19.148  0.00  0.00    +0.000 F 
ATOM     15  F   UNL     1       0.567   2.099  18.500  0.00  0.00    +0.000 F 
ENDBRANCH   8  12
ENDBRANCH   3   5
BRANCH   2  16
ATOM     16  C   UNL     1       0.917  10.106  21.299  0.00  0.00    +0.000 C 
BRANCH  16  17
ATOM     17  N   UNL     1       0.683  10.871  20.052  0.00  0.00    +0.000 NA
ATOM     18  C   UNL     1      -0.763  11.040  19.794  0.00  0.00    +0.000 C 
ATOM     19  C   UNL     1      -1.009  11.818  18.500  0.00  0.00    +0.000 C 
ATOM     20  C   UNL     1      -0.309  13.171  18.521  0.00  0.00    +0.000 C 
ATOM     21  C   UNL     1       1.161  13.004  18.884  0.00  0.00    +0.000 C 
ATOM     22  C   UNL     1       1.326  12.196  20.171  0.00  0.00    +0.000 C 
ENDBRANCH  16  17
ENDBRANCH   2  16
TORSDOF 4
ENDMDL
MODEL 3
REMARK VINA RESULT:      -7.3      1.301      1.301
REMARK  Name = 
REMARK  4 active torsions:
REMARK  status: ('A' for Active; 'I' for Inactive)
REMARK    1  A    between atoms: C_2  and  C_3
REMARK    2  A    between atoms: C_3  and  N_4
REMARK    3  A    between atoms: N_10  and  C_11
REMARK    4  A    between atoms: C_14  and  C_15
REMARK                            x       y       z     vdW  Elec       q    Type
REMARK                         _______ _______ _______ _____ _____    ______ ____
ROOT
ATOM      1  O   UNL     1       5.472   6.452  16.329  0.00  0.00    +0.000 OA
ATOM      2  C   UNL     1       6.036   5.366  16.211  0.00  0.00    +0.000 C 
ATOM      3  N   UNL     1       5.703   4.210  16.906  0.00  0.00    +0.000 N 
ATOM      4  H   UNL     1       6.359   3.441  16.865  0.00  0.00    +0.000 HD
ENDROOT
BRANCH   3   5
ATOM      5  C   UNL     1       4.511   4.018  17.654  0.00  0.00    +0.000 A 
ATOM      6  C   UNL     1       3.386   3.405  17.094  0.00  0.00    +0.000 A 
ATOM      7  C   UNL     1       2.243   3.141  17.849  0.00  0.00    +0.000 A 
ATOM      8  C   UNL     1       2.198   3.454  19.210  0.00  0.00    +0.000 A 
ATOM      9  C   UNL     1       3.308   4.088  19.786  0.00  0.00    +0.000 A 
ATOM     10  C   UNL     1       4.442   4.390  19.013  0.00  0.00    +0.000 A 
ATOM     11 CL   UNL     1       5.701   5.319  19.750  0.00  0.00    +0.000 Cl
BRANCH   8  12
ATOM     12  C   UNL     1       0.974   3.128  20.030  0.00  0.00    +0.000 C 
ATOM     13  F   UNL     1       0.327   4.232  20.501  0.00  0.00    +0.000 F 
ATOM     14  F   UNL     1       0.044   2.428  19.323  0.00  0.00    +0.000 F 
ATOM     15  F   UNL     1       1.266   2.373  21.123  0.00  0.00    +0.000 F 
ENDBRANCH   8  12
ENDBRANCH   3   5
BRANCH   2  16
ATOM     16  C   UNL     1       7.221   5.242  15.251  0.00  0.00    +0.000 C 
BRANCH  16  17
ATOM     17  N   UNL     1       6.797   4.979  13.855  0.00  0.00    +0.000 NA
ATOM     18  C   UNL     1       7.931   5.128  12.918  0.00  0.00    +0.000 C 
ATOM     19  C   UNL     1       7.493   4.870  11.475  0.00  0.00    +0.000 C 
ATOM     20  C   UNL     1       6.853   3.496  11.323  0.00  0.00    +0.000 C 
ATOM     21  C   UNL     1       5.749   3.308  12.357  0.00  0.00    +0.000 C 
ATOM     22  C   UNL     1       6.254   3.608  13.767  0.00  0.00    +0.000 C 
ENDBRANCH  16  17
ENDBRANCH   2  16
TORSDOF 4
ENDMDL
MODEL 4
REMARK VINA RESULT:      -7.2      5.130      7.871
REMARK  Name = 
REMARK  4 active torsions:
REMARK  status: ('A' for Active; 'I' for Inactive)
REMARK    1  A    between atoms: C_2  and  C_3
REMARK    2  A    between atoms: C_3  and  N_4
REMARK    3  A    between atoms: N_10  and  C_11
REMARK    4  A    between atoms: C_14  and  C_15
REMARK                            x       y       z     vdW  Elec       q    Type
REMARK                         _______ _______ _______ _____ _____    ______ ____
ROOT
ATOM      1  O   UNL     1      -0.216   7.958  21.401  0.00  0.00    +0.000 OA
ATOM      2  C   UNL     1       0.859   8.498  21.146  0.00  0.00    +0.000 C 
ATOM      3  N   UNL     1       1.989   7.846  20.666  0.00  0.00    +0.000 N 
ATOM      4  H   UNL     1       2.860   8.360  20.680  0.00  0.00    +0.000 HD
ENDROOT
BRANCH   3   5
ATOM      5  C   UNL     1       2.013   6.526  20.143  0.00  0.00    +0.000 A 
ATOM      6  C   UNL     1       1.629   5.425  20.915  0.00  0.00    +0.000 A 
ATOM      7  C   UNL     1       1.572   4.138  20.380  0.00  0.00    +0.000 A 
ATOM      8  C   UNL     1       1.867   3.911  19.033  0.00  0.00    +0.000 A 
ATOM      9  C   UNL     1       2.274   4.999  18.246  0.00  0.00    +0.000 A 
ATOM     10  C   UNL     1       2.371   6.286  18.799  0.00  0.00    +0.000 A 
ATOM     11 CL   UNL     1       3.037   7.543  17.815  0.00  0.00    +0.000 Cl
BRANCH   8  12
ATOM     12  C   UNL     1       1.763   2.523  18.451  0.00  0.00    +0.000 C 
ATOM     13  F   UNL     1       0.491   2.034  18.437  0.00  0.00    +0.000 F 
ATOM     14  F   UNL     1       2.197   2.465  17.162  0.00  0.00    +0.000 F 
ATOM     15  F   UNL     1       2.503   1.613  19.141  0.00  0.00    +0.000 F 
ENDBRANCH   8  12
ENDBRANCH   3   5
BRANCH   2  16
ATOM     16  C   UNL     1       1.015  10.000  21.388  0.00  0.00    +0.000 C 
BRANCH  16  17
ATOM     17  N   UNL     1      -0.005  10.801  20.671  0.00  0.00    +0.000 NA
ATOM     18  C   UNL     1       0.146  12.242  20.966  0.00  0.00    +0.000 C 
ATOM     19  C   UNL     1      -0.914  13.070  20.237  0.00  0.00    +0.000 C 
ATOM     20  C   UNL     1      -0.877  12.827  18.734  0.00  0.00    +0.000 C 
ATOM     21  C   UNL     1      -0.932  11.333  18.436  0.00  0.00    +0.000 C 
ATOM     22  C   UNL     1       0.137  10.572  19.218  0.00  0.00    +0.000 C 
ENDBRANCH  16  17
ENDBRANCH   2  16
TORSDOF 4
ENDMDL
MODEL 5
REMARK VINA RESULT:      -7.2      5.483      8.206
REMARK  Name = 
REMARK  4 active torsions:
REMARK  status: ('A' for Active; 'I' for Inactive)
REMARK    1  A    between atoms: C_2  and  C_3
REMARK    2  A    between atoms: C_3  and  N_4
REMARK    3  A    between atoms: N_10  and  C_11
REMARK    4  A    between atoms: C_14  and  C_15
REMARK                            x       y       z     vdW  Elec       q    Type
REMARK                         _______ _______ _______ _____ _____    ______ ____
ROOT
ATOM      1  O   UNL     1       2.122   9.166  17.290  0.00  0.00    +0.000 OA
ATOM      2  C   UNL     1       1.979   8.588  18.366  0.00  0.00    +0.000 C 
ATOM      3  N   UNL     1       2.466   7.321  18.666  0.00  0.00    +0.000 N 
ATOM      4  H   UNL     1       2.121   6.881  19.508  0.00  0.00    +0.000 HD
ENDROOT
BRANCH   3   5
ATOM      5  C   UNL     1       3.421   6.607  17.894  0.00  0.00    +0.000 A 
ATOM      6  C   UNL     1       4.570   7.227  17.394  0.00  0.00    +0.000 A 
ATOM      7  C   UNL     1       5.550   6.511  16.706  0.00  0.00    +0.000 A 
ATOM      8  C   UNL     1       5.429   5.131  16.523  0.00  0.00    +0.000 A 
ATOM      9  C   UNL     1       4.274   4.493  17.000  0.00  0.00    +0.000 A 
ATOM     10  C   UNL     1       3.270   5.225  17.655  0.00  0.00    +0.000 A 
ATOM     11 CL   UNL     1       1.805   4.403  18.066  0.00  0.00    +0.000 Cl
BRANCH   8  12
ATOM     12  C   UNL     1       6.512   4.356  15.814  0.00  0.00    +0.000 C 
ATOM     13  F   UNL     1       6.985   4.981  14.699  0.00  0.00    +0.000 F 
ATOM     14  F   UNL     1       7.597   4.135  16.605  0.00  0.00    +0.000 F 
ATOM     15  F   UNL     1       6.089   3.130  15.402  0.00  0.00    +0.000 F 
ENDBRANCH   8  12
ENDBRANCH   3   5
BRANCH   2  16
ATOM     16  C   UNL     1       1.186   9.273  19.481  0.00  0.00    +0.000 C 
BRANCH  16  17
ATOM     17  N   UNL     1       0.539  10.527  19.032  0.00  0.00    +0.000 NA
ATOM     18  C   UNL     1      -0.928  10.368  18.947  0.00  0.00    +0.000 C 
ATOM     19  C   UNL     1      -1.599  11.658  18.470  0.00  0.00    +0.000 C 
ATOM     20  C   UNL     1      -1.241  12.837  19.366  0.00  0.00    +0.000 C 
ATOM     21  C   UNL     1       0.270  12.939  19.532  0.00  0.00    +0.000 C 
ATOM     22  C   UNL     1       0.869  11.607  19.984  0.00  0.00    +0.000 C 
ENDBRANCH  16  17
ENDBRANCH   2  16
TORSDOF 4
ENDMDL
MODEL 6
REMARK VINA RESULT:      -7.2      0.547      1.054
REMARK  Name = 
REMARK  4 active torsions:
REMARK  status: ('A' for Active; 'I' for Inactive)
REMARK    1  A    between atoms: C_2  and  C_3
REMARK    2  A    between atoms: C_3  and  N_4
REMARK    3  A    between atoms: N_10  and  C_11
REMARK    4  A    between atoms: C_14  and  C_15
REMARK                            x       y       z     vdW  Elec       q    Type
REMARK                         _______ _______ _______ _____ _____    ______ ____
ROOT
ATOM      1  O   UNL     1       7.180   4.279  17.457  0.00  0.00    +0.000 OA
ATOM      2  C   UNL     1       6.575   4.853  16.552  0.00  0.00    +0.000 C 
ATOM      3  N   UNL     1       5.193   4.903  16.418  0.00  0.00    +0.000 N 
ATOM      4  H   UNL     1       4.826   5.236  15.536  0.00  0.00    +0.000 HD
ENDROOT
BRANCH   3   5
ATOM      5  C   UNL     1       4.259   4.540  17.424  0.00  0.00    +0.000 A 
ATOM      6  C   UNL     1       3.989   3.201  17.725  0.00  0.00    +0.000 A 
ATOM      7  C   UNL     1       3.136   2.841  18.768  0.00  0.00    +0.000 A 
ATOM      8  C   UNL     1       2.543   3.816  19.574  0.00  0.00    +0.000 A 
ATOM      9  C   UNL     1       2.784   5.165  19.277  0.00  0.00    +0.000 A 
ATOM     10  C   UNL     1       3.611   5.525  18.200  0.00  0.00    +0.000 A 
ATOM     11 CL   UNL     1       3.728   7.201  17.792  0.00  0.00    +0.000 Cl
BRANCH   8  12
ATOM     12  C   UNL     1       1.653   3.418  20.726  0.00  0.00    +0.000 C 
ATOM     13  F   UNL     1       1.515   2.069  20.865  0.00  0.00    +0.000 F 
ATOM     14  F   UNL     1       2.118   3.868  21.924  0.00  0.00    +0.000 F 
ATOM     15  F   UNL     1       0.391   3.910  20.602  0.00  0.00    +0.000 F 
ENDBRANCH   8  12
ENDBRANCH   3   5
BRANCH   2  16
ATOM     16  C   UNL     1       7.372   5.558  15.453  0.00  0.00    +0.000 C 
BRANCH  16  17
ATOM     17  N   UNL     1       6.899   5.209  14.093  0.00  0.00    +0.000 NA
ATOM     18  C   UNL     1       8.000   5.287  13.110  0.00  0.00    +0.000 C 
ATOM     19  C   UNL     1       7.511   4.941  11.702  0.00  0.00    +0.000 C 
ATOM     20  C   UNL     1       6.856   3.566  11.662  0.00  0.00    +0.000 C 
ATOM     21  C   UNL     1       5.787   3.454  12.743  0.00  0.00    +0.000 C 
ATOM     22  C   UNL     1       6.343   3.841  14.113  0.00  0.00    +0.000 C 
ENDBRANCH  16  17
ENDBRANCH   2  16
TORSDOF 4
ENDMDL
MODEL 7
REMARK VINA RESULT:      -7.1      1.463      1.998
REMARK  Name = 
REMARK  4 active torsions:
REMARK  status: ('A' for Active; 'I' for Inactive)
REMARK    1  A    between atoms: C_2  and  C_3
REMARK    2  A    between atoms: C_3  and  N_4
REMARK    3  A    between atoms: N_10  and  C_11
REMARK    4  A    between atoms: C_14  and  C_15
REMARK                            x       y       z     vdW  Elec       q    Type
REMARK                         _______ _______ _______ _____ _____    ______ ____
ROOT
ATOM      1  O   UNL     1       5.378   6.238  15.981  0.00  0.00    +0.000 OA
ATOM      2  C   UNL     1       5.851   5.111  15.852  0.00  0.00    +0.000 C 
ATOM      3  N   UNL     1       5.514   4.006  16.625  0.00  0.00    +0.000 N 
ATOM      4  H   UNL     1       6.108   3.192  16.550  0.00  0.00    +0.000 HD
ENDROOT
BRANCH   3   5
ATOM      5  C   UNL     1       4.395   3.928  17.497  0.00  0.00    +0.000 A 
ATOM      6  C   UNL     1       3.166   3.419  17.067  0.00  0.00    +0.000 A 
ATOM      7  C   UNL     1       2.090   3.264  17.941  0.00  0.00    +0.000 A 
ATOM      8  C   UNL     1       2.219   3.583  19.295  0.00  0.00    +0.000 A 
ATOM      9  C   UNL     1       3.437   4.114  19.743  0.00  0.00    +0.000 A 
ATOM     10  C   UNL     1       4.505   4.308  18.851  0.00  0.00    +0.000 A 
ATOM     11 CL   UNL     1       5.915   5.118  19.439  0.00  0.00    +0.000 Cl
BRANCH   8  12
ATOM     12  C   UNL     1       1.064   3.373  20.243  0.00  0.00    +0.000 C 
ATOM     13  F   UNL     1       1.404   2.682  21.368  0.00  0.00    +0.000 F 
ATOM     14  F   UNL     1       0.527   4.546  20.677  0.00  0.00    +0.000 F 
ATOM     15  F   UNL     1       0.043   2.678  19.674  0.00  0.00    +0.000 F 
ENDBRANCH   8  12
ENDBRANCH   3   5
BRANCH   2  16
ATOM     16  C   UNL     1       6.918   4.869  14.783  0.00  0.00    +0.000 C 
BRANCH  16  17
ATOM     17  N   UNL     1       6.480   3.903  13.749  0.00  0.00    +0.000 NA
ATOM     18  C   UNL     1       5.071   4.136  13.365  0.00  0.00    +0.000 C 
ATOM     19  C   UNL     1       4.612   3.131  12.307  0.00  0.00    +0.000 C 
ATOM     20  C   UNL     1       5.512   3.163  11.079  0.00  0.00    +0.000 C 
ATOM     21  C   UNL     1       6.973   3.021  11.487  0.00  0.00    +0.000 C 
ATOM     22  C   UNL     1       7.349   4.039  12.563  0.00  0.00    +0.000 C 
ENDBRANCH  16  17
ENDBRANCH   2  16
TORSDOF 4
ENDMDL
MODEL 8
REMARK VINA RESULT:      -7.1      5.147      7.861
REMARK  Name = 
REMARK  4 active torsions:
REMARK  status: ('A' for Active; 'I' for Inactive)
REMARK    1  A    between atoms: C_2  and  C_3
REMARK    2  A    between atoms: C_3  and  N_4
REMARK    3  A    between atoms: N_10  and  C_11
REMARK    4  A    between atoms: C_14  and  C_15
REMARK                            x       y       z     vdW  Elec       q    Type
REMARK                         _______ _______ _______ _____ _____    ______ ____
ROOT
ATOM      1  O   UNL     1      -0.169   8.008  21.547  0.00  0.00    +0.000 OA
ATOM      2  C   UNL     1       0.882   8.561  21.229  0.00  0.00    +0.000 C 
ATOM      3  N   UNL     1       1.991   7.924  20.685  0.00  0.00    +0.000 N 
ATOM      4  H   UNL     1       2.854   8.450  20.647  0.00  0.00    +0.000 HD
ENDROOT
BRANCH   3   5
ATOM      5  C   UNL     1       2.003   6.602  20.164  0.00  0.00    +0.000 A 
ATOM      6  C   UNL     1       1.598   5.508  20.935  0.00  0.00    +0.000 A 
ATOM      7  C   UNL     1       1.529   4.221  20.402  0.00  0.00    +0.000 A 
ATOM      8  C   UNL     1       1.833   3.987  19.059  0.00  0.00    +0.000 A 
ATOM      9  C   UNL     1       2.261   5.068  18.273  0.00  0.00    +0.000 A 
ATOM     10  C   UNL     1       2.369   6.356  18.824  0.00  0.00    +0.000 A 
ATOM     11 CL   UNL     1       3.059   7.601  17.844  0.00  0.00    +0.000 Cl
BRANCH   8  12
ATOM     12  C   UNL     1       1.717   2.599  18.478  0.00  0.00    +0.000 C 
ATOM     13  F   UNL     1       2.155   2.512  17.190  0.00  0.00    +0.000 F 
ATOM     14  F   UNL     1       2.437   1.680  19.178  0.00  0.00    +0.000 F 
ATOM     15  F   UNL     1       0.435   2.146  18.467  0.00  0.00    +0.000 F 
ENDBRANCH   8  12
ENDBRANCH   3   5
BRANCH   2  16
ATOM     16  C   UNL     1       1.031  10.066  21.457  0.00  0.00    +0.000 C 
BRANCH  16  17
ATOM     17  N   UNL     1       0.275  10.870  20.468  0.00  0.00    +0.000 NA
ATOM     18  C   UNL     1      -0.069  10.063  19.278  0.00  0.00    +0.000 C 
ATOM     19  C   UNL     1      -0.837  10.894  18.249  0.00  0.00    +0.000 C 
ATOM     20  C   UNL     1      -2.091  11.513  18.854  0.00  0.00    +0.000 C 
ATOM     21  C   UNL     1      -1.747  12.262  20.136  0.00  0.00    +0.000 C 
ATOM     22  C   UNL     1      -0.959  11.377  21.101  0.00  0.00    +0.000 C 
ENDBRANCH  16  17
ENDBRANCH   2  16
TORSDOF 4
ENDMDL
MODEL 9
REMARK VINA RESULT:      -7.1      5.511      7.124
REMARK  Name = 
REMARK  4 active torsions:
REMARK  status: ('A' for Active; 'I' for Inactive)
REMARK    1  A    between atoms: C_2  and  C_3
REMARK    2  A    between atoms: C_3  and  N_4
REMARK    3  A    between atoms: N_10  and  C_11
REMARK    4  A    between atoms: C_14  and  C_15
REMARK                            x       y       z     vdW  Elec       q    Type
REMARK                         _______ _______ _______ _____ _____    ______ ____
ROOT
ATOM      1  O   UNL     1       1.255   5.833  20.804  0.00  0.00    +0.000 OA
ATOM      2  C   UNL     1       2.077   6.488  20.165  0.00  0.00    +0.000 C 
ATOM      3  N   UNL     1       1.991   7.852  19.909  0.00  0.00    +0.000 N 
ATOM      4  H   UNL     1       2.621   8.232  19.216  0.00  0.00    +0.000 HD
ENDROOT
BRANCH   3   5
ATOM      5  C   UNL     1       1.101   8.751  20.555  0.00  0.00    +0.000 A 
ATOM      6  C   UNL     1       0.945   8.757  21.944  0.00  0.00    +0.000 A 
ATOM      7  C   UNL     1       0.136   9.693  22.587  0.00  0.00    +0.000 A 
ATOM      8  C   UNL     1      -0.526  10.685  21.860  0.00  0.00    +0.000 A 
ATOM      9  C   UNL     1      -0.400  10.685  20.462  0.00  0.00    +0.000 A 
ATOM     10  C   UNL     1       0.384   9.715  19.814  0.00  0.00    +0.000 A 
ATOM     11 CL   UNL     1       0.359   9.676  18.086  0.00  0.00    +0.000 Cl
BRANCH   8  12
ATOM     12  C   UNL     1      -1.367  11.720  22.566  0.00  0.00    +0.000 C 
ATOM     13  F   UNL     1      -0.635  12.725  23.124  0.00  0.00    +0.000 F 
ATOM     14  F   UNL     1      -2.255  12.327  21.732  0.00  0.00    +0.000 F 
ATOM     15  F   UNL     1      -2.102  11.188  23.579  0.00  0.00    +0.000 F 
ENDBRANCH   8  12
ENDBRANCH   3   5
BRANCH   2  16
ATOM     16  C   UNL     1       3.293   5.779  19.567  0.00  0.00    +0.000 C 
BRANCH  16  17
ATOM     17  N   UNL     1       3.065   4.329  19.366  0.00  0.00    +0.000 NA
ATOM     18  C   UNL     1       2.523   4.056  18.019  0.00  0.00    +0.000 C 
ATOM     19  C   UNL     1       2.274   2.560  17.814  0.00  0.00    +0.000 C 
ATOM     20  C   UNL     1       3.538   1.746  18.055  0.00  0.00    +0.000 C 
ATOM     21  C   UNL     1       4.150   2.102  19.404  0.00  0.00    +0.000 C 
ATOM     22  C   UNL     1       4.344   3.611  19.544  0.00  0.00    +0.000 C 
ENDBRANCH  16  17
ENDBRANCH   2  16
TORSDOF 4
ENDMDL
