MODEL 1
REMARK VINA RESULT:      -9.1      0.000      0.000
REMARK  Name = 
REMARK  4 active torsions:
REMARK  status: ('A' for Active; 'I' for Inactive)
REMARK    1  A    between atoms: C_2  and  C_3
REMARK    2  A    between atoms: C_2  and  C_19
REMARK    3  A    between atoms: C_4  and  C_5
REMARK    4  A    between atoms: C_7  and  C_8
REMARK                            x       y       z     vdW  Elec       q    Type
REMARK                         _______ _______ _______ _____ _____    ______ ____
ROOT
ATOM      1  C   UNL     1       8.314   8.902  18.066  0.00  0.00    +0.000 A 
ATOM      2  C   UNL     1       8.360  10.203  17.619  0.00  0.00    +0.000 A 
ATOM      3  C   UNL     1       9.096  10.928  18.583  0.00  0.00    +0.000 A 
ATOM      4  N   UNL     1       9.470  10.127  19.592  0.00  0.00    +0.000 NA
ATOM      5  N   UNL     1       8.952   8.924  19.278  0.00  0.00    +0.000 N 
ATOM      6  H   UNL     1       9.081   8.165  19.939  0.00  0.00    +0.000 HD
ENDROOT
BRANCH   3   7
ATOM      7  C   UNL     1       9.430  12.347  18.539  0.00  0.00    +0.000 A 
ATOM      8  C   UNL     1       8.855  13.237  19.474  0.00  0.00    +0.000 A 
ATOM      9  C   UNL     1       9.133  14.606  19.426  0.00  0.00    +0.000 A 
ATOM     10  C   UNL     1       9.977  15.052  18.435  0.00  0.00    +0.000 A 
ATOM     11  C   UNL     1      10.553  14.194  17.529  0.00  0.00    +0.000 A 
ATOM     12  C   UNL     1      10.312  12.837  17.561  0.00  0.00    +0.000 A 
ATOM     13  O   UNL     1      11.333  14.841  16.622  0.00  0.00    +0.000 OA
ATOM     14  C   UNL     1      11.137  16.211  17.029  0.00  0.00    +0.000 C 
ATOM     15  O   UNL     1      10.324  16.348  18.213  0.00  0.00    +0.000 OA
ENDBRANCH   3   7
BRANCH   1  17
ATOM     16  C   UNL     1       7.782   6.608  18.328  0.00  0.00    +0.000 C 
ATOM     17  C   UNL     1       7.765   7.704  17.558  0.00  0.00    +0.000 C 
BRANCH  16  19
ATOM     18  O   UNL     1       8.084   4.440  17.425  0.00  0.00    +0.000 OA
ATOM     19  C   UNL     1       7.305   5.304  17.817  0.00  0.00    +0.000 C 
BRANCH  19  20
ATOM     20  C   UNL     1       5.845   5.035  17.854  0.00  0.00    +0.000 A 
ATOM     21  C   UNL     1       5.307   4.172  16.892  0.00  0.00    +0.000 A 
ATOM     22  C   UNL     1       3.933   3.923  16.861  0.00  0.00    +0.000 A 
ATOM     23  C   UNL     1       3.086   4.548  17.780  0.00  0.00    +0.000 A 
ATOM     24 CL   UNL     1       1.395   4.210  17.672  0.00  0.00    +0.000 Cl
ATOM     25  C   UNL     1       3.621   5.419  18.737  0.00  0.00    +0.000 A 
ATOM     26 CL   UNL     1       2.629   6.250  19.884  0.00  0.00    +0.000 Cl
ATOM     27  C   UNL     1       5.000   5.660  18.780  0.00  0.00    +0.000 A 
ENDBRANCH  19  20
ENDBRANCH  16  19
ENDBRANCH   1  17
TORSDOF 4
ENDMDL
MODEL 2
REMARK VINA RESULT:      -8.6      1.365      1.889
REMARK  Name = 
REMARK  4 active torsions:
REMARK  status: ('A' for Active; 'I' for Inactive)
REMARK    1  A    between atoms: C_2  and  C_3
REMARK    2  A    between atoms: C_2  and  C_19
REMARK    3  A    between atoms: C_4  and  C_5
REMARK    4  A    between atoms: C_7  and  C_8
REMARK                            x       y       z     vdW  Elec       q    Type
REMARK                         _______ _______ _______ _____ _____    ______ ____
ROOT
ATOM      1  C   UNL     1       8.682   9.328  18.539  0.00  0.00    +0.000 A 
ATOM      2  C   UNL     1       8.850  10.413  17.709  0.00  0.00    +0.000 A 
ATOM      3  C   UNL     1       9.624  11.349  18.432  0.00  0.00    +0.000 A 
ATOM      4  N   UNL     1       9.904  10.883  19.659  0.00  0.00    +0.000 NA
ATOM      5  N   UNL     1       9.292   9.685  19.712  0.00  0.00    +0.000 N 
ATOM      6  H   UNL     1       9.340   9.167  20.584  0.00  0.00    +0.000 HD
ENDROOT
BRANCH   3   7
ATOM      7  C   UNL     1      10.080  12.652  17.961  0.00  0.00    +0.000 A 
ATOM      8  C   UNL     1      11.334  12.772  17.323  0.00  0.00    +0.000 A 
ATOM      9  C   UNL     1      11.807  14.017  16.897  0.00  0.00    +0.000 A 
ATOM     10  C   UNL     1      11.011  15.116  17.130  0.00  0.00    +0.000 A 
ATOM     11  C   UNL     1       9.782  15.008  17.737  0.00  0.00    +0.000 A 
ATOM     12  C   UNL     1       9.282  13.793  18.152  0.00  0.00    +0.000 A 
ATOM     13  O   UNL     1       9.171  16.213  17.891  0.00  0.00    +0.000 OA
ATOM     14  C   UNL     1      10.181  17.096  17.360  0.00  0.00    +0.000 C 
ATOM     15  O   UNL     1      11.326  16.403  16.823  0.00  0.00    +0.000 OA
ENDBRANCH   3   7
BRANCH   1  17
ATOM     16  C   UNL     1       7.723   7.639  17.180  0.00  0.00    +0.000 C 
ATOM     17  C   UNL     1       8.043   8.076  18.406  0.00  0.00    +0.000 C 
BRANCH  16  19
ATOM     18  O   UNL     1       7.392   5.483  16.261  0.00  0.00    +0.000 OA
ATOM     19  C   UNL     1       6.972   6.380  16.986  0.00  0.00    +0.000 C 
BRANCH  19  20
ATOM     20  C   UNL     1       5.713   6.196  17.752  0.00  0.00    +0.000 A 
ATOM     21  C   UNL     1       5.662   5.171  18.705  0.00  0.00    +0.000 A 
ATOM     22  C   UNL     1       4.486   4.933  19.420  0.00  0.00    +0.000 A 
ATOM     23  C   UNL     1       3.348   5.707  19.176  0.00  0.00    +0.000 A 
ATOM     24 CL   UNL     1       1.923   5.345  20.081  0.00  0.00    +0.000 Cl
ATOM     25  C   UNL     1       3.394   6.726  18.217  0.00  0.00    +0.000 A 
ATOM     26 CL   UNL     1       2.016   7.701  17.842  0.00  0.00    +0.000 Cl
ATOM     27  C   UNL     1       4.576   6.977  17.509  0.00  0.00    +0.000 A 
ENDBRANCH  19  20
ENDBRANCH  16  19
ENDBRANCH   1  17
TORSDOF 4
ENDMDL
MODEL 3
REMARK VINA RESULT:      -8.6      0.984      1.935
REMARK  Name = 
REMARK  4 active torsions:
REMARK  status: ('A' for Active; 'I' for Inactive)
REMARK    1  A    between atoms: C_2  and  C_3
REMARK    2  A    between atoms: C_2  and  C_19
REMARK    3  A    between atoms: C_4  and  C_5
REMARK    4  A    between atoms: C_7  and  C_8
REMARK                            x       y       z     vdW  Elec       q    Type
REMARK                         _______ _______ _______ _____ _____    ______ ____
ROOT
ATOM      1  C   UNL     1       8.173   8.777  17.984  0.00  0.00    +0.000 A 
ATOM      2  C   UNL     1       8.305  10.032  17.436  0.00  0.00    +0.000 A 
ATOM      3  C   UNL     1       9.128  10.767  18.318  0.00  0.00    +0.000 A 
ATOM      4  N   UNL     1       9.472  10.017  19.377  0.00  0.00    +0.000 NA
ATOM      5  N   UNL     1       8.851   8.840  19.172  0.00  0.00    +0.000 N 
ATOM      6  H   UNL     1       8.944   8.126  19.887  0.00  0.00    +0.000 HD
ENDROOT
BRANCH   3   7
ATOM      7  C   UNL     1       9.570  12.147  18.154  0.00  0.00    +0.000 A 
ATOM      8  C   UNL     1      10.805  12.423  17.527  0.00  0.00    +0.000 A 
ATOM      9  C   UNL     1      11.264  13.736  17.392  0.00  0.00    +0.000 A 
ATOM     10  C   UNL     1      10.476  14.744  17.899  0.00  0.00    +0.000 A 
ATOM     11  C   UNL     1       9.265  14.488  18.498  0.00  0.00    +0.000 A 
ATOM     12  C   UNL     1       8.778  13.206  18.630  0.00  0.00    +0.000 A 
ATOM     13  O   UNL     1       8.658  15.619  18.947  0.00  0.00    +0.000 OA
ATOM     14  C   UNL     1       9.652  16.609  18.610  0.00  0.00    +0.000 C 
ATOM     15  O   UNL     1      10.781  16.069  17.894  0.00  0.00    +0.000 OA
ENDBRANCH   3   7
BRANCH   1  17
ATOM     16  C   UNL     1       7.705   6.476  18.304  0.00  0.00    +0.000 C 
ATOM     17  C   UNL     1       7.515   7.592  17.588  0.00  0.00    +0.000 C 
BRANCH  16  19
ATOM     18  O   UNL     1       7.782   4.328  17.314  0.00  0.00    +0.000 OA
ATOM     19  C   UNL     1       7.116   5.186  17.885  0.00  0.00    +0.000 C 
BRANCH  19  20
ATOM     20  C   UNL     1       5.697   4.923  18.237  0.00  0.00    +0.000 A 
ATOM     21  C   UNL     1       5.131   5.651  19.290  0.00  0.00    +0.000 A 
ATOM     22  C   UNL     1       3.813   5.408  19.685  0.00  0.00    +0.000 A 
ATOM     23  C   UNL     1       3.059   4.423  19.041  0.00  0.00    +0.000 A 
ATOM     24 CL   UNL     1       1.444   4.161  19.594  0.00  0.00    +0.000 Cl
ATOM     25  C   UNL     1       3.626   3.686  17.995  0.00  0.00    +0.000 A 
ATOM     26 CL   UNL     1       2.762   2.432  17.176  0.00  0.00    +0.000 Cl
ATOM     27  C   UNL     1       4.942   3.938  17.587  0.00  0.00    +0.000 A 
ENDBRANCH  19  20
ENDBRANCH  16  19
ENDBRANCH   1  17
TORSDOF 4
ENDMDL
MODEL 4
REMARK VINA RESULT:      -8.6      1.184      1.687
REMARK  Name = 
REMARK  4 active torsions:
REMARK  status: ('A' for Active; 'I' for Inactive)
REMARK    1  A    between atoms: C_2  and  C_3
REMARK    2  A    between atoms: C_2  and  C_19
REMARK    3  A    between atoms: C_4  and  C_5
REMARK    4  A    between atoms: C_7  and  C_8
REMARK                            x       y       z     vdW  Elec       q    Type
REMARK                         _______ _______ _______ _____ _____    ______ ____
ROOT
ATOM      1  C   UNL     1       8.295   8.859  18.034  0.00  0.00    +0.000 A 
ATOM      2  C   UNL     1       8.316  10.108  17.457  0.00  0.00    +0.000 A 
ATOM      3  C   UNL     1       9.064  10.934  18.326  0.00  0.00    +0.000 A 
ATOM      4  N   UNL     1       9.468  10.243  19.403  0.00  0.00    +0.000 NA
ATOM      5  N   UNL     1       8.958   9.010  19.223  0.00  0.00    +0.000 N 
ATOM      6  H   UNL     1       9.109   8.324  19.955  0.00  0.00    +0.000 HD
ENDROOT
BRANCH   3   7
ATOM      7  C   UNL     1       9.381  12.345  18.131  0.00  0.00    +0.000 A 
ATOM      8  C   UNL     1      10.594  12.716  17.511  0.00  0.00    +0.000 A 
ATOM      9  C   UNL     1      10.934  14.063  17.347  0.00  0.00    +0.000 A 
ATOM     10  C   UNL     1      10.050  15.006  17.819  0.00  0.00    +0.000 A 
ATOM     11  C   UNL     1       8.859  14.656  18.410  0.00  0.00    +0.000 A 
ATOM     12  C   UNL     1       8.489  13.338  18.570  0.00  0.00    +0.000 A 
ATOM     13  O   UNL     1       8.145  15.737  18.824  0.00  0.00    +0.000 OA
ATOM     14  C   UNL     1       9.050  16.805  18.473  0.00  0.00    +0.000 C 
ATOM     15  O   UNL     1      10.233  16.353  17.783  0.00  0.00    +0.000 OA
ENDBRANCH   3   7
BRANCH   1  17
ATOM     16  C   UNL     1       7.810   6.594  18.533  0.00  0.00    +0.000 C 
ATOM     17  C   UNL     1       7.748   7.611  17.663  0.00  0.00    +0.000 C 
BRANCH  16  19
ATOM     18  O   UNL     1       8.118   4.348  17.851  0.00  0.00    +0.000 OA
ATOM     19  C   UNL     1       7.337   5.241  18.166  0.00  0.00    +0.000 C 
BRANCH  19  20
ATOM     20  C   UNL     1       5.881   4.966  18.255  0.00  0.00    +0.000 A 
ATOM     21  C   UNL     1       5.014   5.723  17.458  0.00  0.00    +0.000 A 
ATOM     22  C   UNL     1       3.634   5.529  17.538  0.00  0.00    +0.000 A 
ATOM     23  C   UNL     1       3.108   4.589  18.429  0.00  0.00    +0.000 A 
ATOM     24 CL   UNL     1       1.391   4.415  18.492  0.00  0.00    +0.000 Cl
ATOM     25  C   UNL     1       3.972   3.837  19.234  0.00  0.00    +0.000 A 
ATOM     26 CL   UNL     1       3.391   2.679  20.380  0.00  0.00    +0.000 Cl
ATOM     27  C   UNL     1       5.358   4.019  19.145  0.00  0.00    +0.000 A 
ENDBRANCH  19  20
ENDBRANCH  16  19
ENDBRANCH   1  17
TORSDOF 4
ENDMDL
MODEL 5
REMARK VINA RESULT:      -8.6      1.092      1.112
REMARK  Name = 
REMARK  4 active torsions:
REMARK  status: ('A' for Active; 'I' for Inactive)
REMARK    1  A    between atoms: C_2  and  C_3
REMARK    2  A    between atoms: C_2  and  C_19
REMARK    3  A    between atoms: C_4  and  C_5
REMARK    4  A    between atoms: C_7  and  C_8
REMARK                            x       y       z     vdW  Elec       q    Type
REMARK                         _______ _______ _______ _____ _____    ______ ____
ROOT
ATOM      1  C   UNL     1       8.444   9.407  18.119  0.00  0.00    +0.000 A 
ATOM      2  C   UNL     1       8.750  10.689  17.721  0.00  0.00    +0.000 A 
ATOM      3  C   UNL     1       9.530  11.249  18.757  0.00  0.00    +0.000 A 
ATOM      4  N   UNL     1       9.683  10.372  19.761  0.00  0.00    +0.000 NA
ATOM      5  N   UNL     1       8.985   9.288  19.371  0.00  0.00    +0.000 N 
ATOM      6  H   UNL     1       8.931   8.504  20.013  0.00  0.00    +0.000 HD
ENDROOT
BRANCH   3   7
ATOM      7  C   UNL     1      10.111  12.587  18.785  0.00  0.00    +0.000 A 
ATOM      8  C   UNL     1      10.438  13.189  20.020  0.00  0.00    +0.000 A 
ATOM      9  C   UNL     1      10.962  14.484  20.072  0.00  0.00    +0.000 A 
ATOM     10  C   UNL     1      11.138  15.149  18.880  0.00  0.00    +0.000 A 
ATOM     11  C   UNL     1      10.837  14.568  17.671  0.00  0.00    +0.000 A 
ATOM     12  C   UNL     1      10.336  13.286  17.588  0.00  0.00    +0.000 A 
ATOM     13  O   UNL     1      11.064  15.402  16.622  0.00  0.00    +0.000 OA
ATOM     14  C   UNL     1      11.490  16.594  17.314  0.00  0.00    +0.000 C 
ATOM     15  O   UNL     1      11.595  16.423  18.742  0.00  0.00    +0.000 OA
ENDBRANCH   3   7
BRANCH   1  17
ATOM     16  C   UNL     1       7.797   7.127  18.105  0.00  0.00    +0.000 C 
ATOM     17  C   UNL     1       7.730   8.338  17.534  0.00  0.00    +0.000 C 
BRANCH  16  19
ATOM     18  O   UNL     1       7.738   5.232  16.688  0.00  0.00    +0.000 OA
ATOM     19  C   UNL     1       7.146   5.951  17.487  0.00  0.00    +0.000 C 
BRANCH  19  20
ATOM     20  C   UNL     1       5.764   5.618  17.914  0.00  0.00    +0.000 A 
ATOM     21  C   UNL     1       5.503   4.313  18.351  0.00  0.00    +0.000 A 
ATOM     22  C   UNL     1       4.209   3.942  18.723  0.00  0.00    +0.000 A 
ATOM     23  C   UNL     1       3.164   4.866  18.644  0.00  0.00    +0.000 A 
ATOM     24 CL   UNL     1       1.585   4.333  19.099  0.00  0.00    +0.000 Cl
ATOM     25  C   UNL     1       3.420   6.168  18.198  0.00  0.00    +0.000 A 
ATOM     26 CL   UNL     1       2.170   7.354  18.046  0.00  0.00    +0.000 Cl
ATOM     27  C   UNL     1       4.719   6.548  17.839  0.00  0.00    +0.000 A 
ENDBRANCH  19  20
ENDBRANCH  16  19
ENDBRANCH   1  17
TORSDOF 4
ENDMDL
MODEL 6
REMARK VINA RESULT:      -8.5      6.967      9.910
REMARK  Name = 
REMARK  4 active torsions:
REMARK  status: ('A' for Active; 'I' for Inactive)
REMARK    1  A    between atoms: C_2  and  C_3
REMARK    2  A    between atoms: C_2  and  C_19
REMARK    3  A    between atoms: C_4  and  C_5
REMARK    4  A    between atoms: C_7  and  C_8
REMARK                            x       y       z     vdW  Elec       q    Type
REMARK                         _______ _______ _______ _____ _____    ______ ____
ROOT
ATOM      1  C   UNL     1       1.758   8.351  19.487  0.00  0.00    +0.000 A 
ATOM      2  C   UNL     1       2.399   7.958  18.334  0.00  0.00    +0.000 A 
ATOM      3  C   UNL     1       2.972   6.696  18.610  0.00  0.00    +0.000 A 
ATOM      4  N   UNL     1       2.723   6.331  19.877  0.00  0.00    +0.000 NA
ATOM      5  N   UNL     1       2.027   7.362  20.395  0.00  0.00    +0.000 N 
ATOM      6  H   UNL     1       1.767   7.313  21.374  0.00  0.00    +0.000 HD
ENDROOT
BRANCH   3   7
ATOM      7  C   UNL     1       3.737   5.865  17.687  0.00  0.00    +0.000 A 
ATOM      8  C   UNL     1       3.575   4.463  17.700  0.00  0.00    +0.000 A 
ATOM      9  C   UNL     1       4.326   3.645  16.850  0.00  0.00    +0.000 A 
ATOM     10  C   UNL     1       5.229   4.256  16.011  0.00  0.00    +0.000 A 
ATOM     11  C   UNL     1       5.384   5.621  15.979  0.00  0.00    +0.000 A 
ATOM     12  C   UNL     1       4.647   6.454  16.793  0.00  0.00    +0.000 A 
ATOM     13  O   UNL     1       6.342   6.016  15.098  0.00  0.00    +0.000 OA
ATOM     14  C   UNL     1       6.808   4.737  14.618  0.00  0.00    +0.000 C 
ATOM     15  O   UNL     1       6.068   3.619  15.150  0.00  0.00    +0.000 OA
ENDBRANCH   3   7
BRANCH   1  17
ATOM     16  C   UNL     1       0.364  10.172  18.889  0.00  0.00    +0.000 C 
ATOM     17  C   UNL     1       0.987   9.477  19.851  0.00  0.00    +0.000 C 
BRANCH  16  19
ATOM     18  O   UNL     1       0.136  12.339  19.813  0.00  0.00    +0.000 OA
ATOM     19  C   UNL     1      -0.382  11.412  19.199  0.00  0.00    +0.000 C 
BRANCH  19  20
ATOM     20  C   UNL     1      -1.768  11.536  18.682  0.00  0.00    +0.000 A 
ATOM     21  C   UNL     1      -2.738  12.102  19.519  0.00  0.00    +0.000 A 
ATOM     22  C   UNL     1      -4.064  12.201  19.092  0.00  0.00    +0.000 A 
ATOM     23  C   UNL     1      -4.434  11.719  17.834  0.00  0.00    +0.000 A 
ATOM     24 CL   UNL     1      -6.094  11.854  17.379  0.00  0.00    +0.000 Cl
ATOM     25  C   UNL     1      -3.468  11.143  16.999  0.00  0.00    +0.000 A 
ATOM     26 CL   UNL     1      -3.860  10.499  15.443  0.00  0.00    +0.000 Cl
ATOM     27  C   UNL     1      -2.134  11.056  17.418  0.00  0.00    +0.000 A 
ENDBRANCH  19  20
ENDBRANCH  16  19
ENDBRANCH   1  17
TORSDOF 4
ENDMDL
MODEL 7
REMARK VINA RESULT:      -8.5      7.095      9.904
REMARK  Name = 
REMARK  4 active torsions:
REMARK  status: ('A' for Active; 'I' for Inactive)
REMARK    1  A    between atoms: C_2  and  C_3
REMARK    2  A    between atoms: C_2  and  C_19
REMARK    3  A    between atoms: C_4  and  C_5
REMARK    4  A    between atoms: C_7  and  C_8
REMARK                            x       y       z     vdW  Elec       q    Type
REMARK                         _______ _______ _______ _____ _____    ______ ____
ROOT
ATOM      1  C   UNL     1       1.651   8.488  19.199  0.00  0.00    +0.000 A 
ATOM      2  C   UNL     1       2.282   8.013  18.072  0.00  0.00    +0.000 A 
ATOM      3  C   UNL     1       2.936   6.821  18.457  0.00  0.00    +0.000 A 
ATOM      4  N   UNL     1       2.744   6.577  19.762  0.00  0.00    +0.000 NA
ATOM      5  N   UNL     1       2.003   7.616  20.194  0.00  0.00    +0.000 N 
ATOM      6  H   UNL     1       1.774   7.655  21.181  0.00  0.00    +0.000 HD
ENDROOT
BRANCH   3   7
ATOM      7  C   UNL     1       3.724   5.942  17.599  0.00  0.00    +0.000 A 
ATOM      8  C   UNL     1       3.491   4.550  17.612  0.00  0.00    +0.000 A 
ATOM      9  C   UNL     1       4.259   3.686  16.825  0.00  0.00    +0.000 A 
ATOM     10  C   UNL     1       5.250   4.241  16.049  0.00  0.00    +0.000 A 
ATOM     11  C   UNL     1       5.475   5.597  16.017  0.00  0.00    +0.000 A 
ATOM     12  C   UNL     1       4.724   6.475  16.768  0.00  0.00    +0.000 A 
ATOM     13  O   UNL     1       6.513   5.933  15.204  0.00  0.00    +0.000 OA
ATOM     14  C   UNL     1       6.948   4.627  14.771  0.00  0.00    +0.000 C 
ATOM     15  O   UNL     1       6.116   3.554  15.257  0.00  0.00    +0.000 OA
ENDBRANCH   3   7
BRANCH   1  17
ATOM     16  C   UNL     1       0.362  10.328  18.445  0.00  0.00    +0.000 C 
ATOM     17  C   UNL     1       0.825   9.601  19.471  0.00  0.00    +0.000 C 
BRANCH  16  19
ATOM     18  O   UNL     1       0.105  12.642  18.875  0.00  0.00    +0.000 OA
ATOM     19  C   UNL     1      -0.431  11.556  18.671  0.00  0.00    +0.000 C 
BRANCH  19  20
ATOM     20  C   UNL     1      -1.910  11.456  18.577  0.00  0.00    +0.000 A 
ATOM     21  C   UNL     1      -2.455  10.643  17.577  0.00  0.00    +0.000 A 
ATOM     22  C   UNL     1      -3.841  10.551  17.423  0.00  0.00    +0.000 A 
ATOM     23  C   UNL     1      -4.689  11.284  18.257  0.00  0.00    +0.000 A 
ATOM     24 CL   UNL     1      -6.391  11.140  17.998  0.00  0.00    +0.000 Cl
ATOM     25  C   UNL     1      -4.145  12.107  19.251  0.00  0.00    +0.000 A 
ATOM     26 CL   UNL     1      -5.134  13.065  20.297  0.00  0.00    +0.000 Cl
ATOM     27  C   UNL     1      -2.757  12.190  19.418  0.00  0.00    +0.000 A 
ENDBRANCH  19  20
ENDBRANCH  16  19
ENDBRANCH   1  17
TORSDOF 4
ENDMDL
MODEL 8
REMARK VINA RESULT:      -8.5      4.183     10.094
REMARK  Name = 
REMARK  4 active torsions:
REMARK  status: ('A' for Active; 'I' for Inactive)
REMARK    1  A    between atoms: C_2  and  C_3
REMARK    2  A    between atoms: C_2  and  C_19
REMARK    3  A    between atoms: C_4  and  C_5
REMARK    4  A    between atoms: C_7  and  C_8
REMARK                            x       y       z     vdW  Elec       q    Type
REMARK                         _______ _______ _______ _____ _____    ______ ____
ROOT
ATOM      1  C   UNL     1       7.880   7.873  18.054  0.00  0.00    +0.000 A 
ATOM      2  C   UNL     1       6.789   7.223  17.523  0.00  0.00    +0.000 A 
ATOM      3  C   UNL     1       6.679   5.999  18.219  0.00  0.00    +0.000 A 
ATOM      4  N   UNL     1       7.665   5.878  19.121  0.00  0.00    +0.000 NA
ATOM      5  N   UNL     1       8.397   6.999  18.973  0.00  0.00    +0.000 N 
ATOM      6  H   UNL     1       9.232   7.097  19.540  0.00  0.00    +0.000 HD
ENDROOT
BRANCH   3   7
ATOM      7  C   UNL     1       5.660   4.973  18.024  0.00  0.00    +0.000 A 
ATOM      8  C   UNL     1       5.204   4.669  16.722  0.00  0.00    +0.000 A 
ATOM      9  C   UNL     1       4.202   3.716  16.517  0.00  0.00    +0.000 A 
ATOM     10  C   UNL     1       3.675   3.095  17.625  0.00  0.00    +0.000 A 
ATOM     11  C   UNL     1       4.121   3.372  18.896  0.00  0.00    +0.000 A 
ATOM     12  C   UNL     1       5.119   4.294  19.129  0.00  0.00    +0.000 A 
ATOM     13  O   UNL     1       3.453   2.667  19.848  0.00  0.00    +0.000 OA
ATOM     14  C   UNL     1       2.499   1.955  19.033  0.00  0.00    +0.000 C 
ATOM     15  O   UNL     1       2.671   2.177  17.619  0.00  0.00    +0.000 OA
ENDBRANCH   3   7
BRANCH   1  17
ATOM     16  C   UNL     1       9.023   9.788  18.855  0.00  0.00    +0.000 C 
ATOM     17  C   UNL     1       8.493   9.123  17.819  0.00  0.00    +0.000 C 
BRANCH  16  19
ATOM     18  O   UNL     1      10.153  11.481  17.645  0.00  0.00    +0.000 OA
ATOM     19  C   UNL     1       9.596  11.141  18.685  0.00  0.00    +0.000 C 
BRANCH  19  20
ATOM     20  C   UNL     1       9.420  12.114  19.793  0.00  0.00    +0.000 A 
ATOM     21  C   UNL     1       9.399  11.626  21.105  0.00  0.00    +0.000 A 
ATOM     22  C   UNL     1       9.193  12.498  22.177  0.00  0.00    +0.000 A 
ATOM     23  C   UNL     1       8.990  13.861  21.943  0.00  0.00    +0.000 A 
ATOM     24 CL   UNL     1       8.721  14.879  23.312  0.00  0.00    +0.000 Cl
ATOM     25  C   UNL     1       9.001  14.350  20.631  0.00  0.00    +0.000 A 
ATOM     26 CL   UNL     1       8.726  16.018  20.266  0.00  0.00    +0.000 Cl
ATOM     27  C   UNL     1       9.221  13.480  19.555  0.00  0.00    +0.000 A 
ENDBRANCH  19  20
ENDBRANCH  16  19
ENDBRANCH   1  17
TORSDOF 4
ENDMDL
MODEL 9
REMARK VINA RESULT:      -8.4      1.543      2.003
REMARK  Name = 
REMARK  4 active torsions:
REMARK  status: ('A' for Active; 'I' for Inactive)
REMARK    1  A    between atoms: C_2  and  C_3
REMARK    2  A    between atoms: C_2  and  C_19
REMARK    3  A    between atoms: C_4  and  C_5
REMARK    4  A    between atoms: C_7  and  C_8
REMARK                            x       y       z     vdW  Elec       q    Type
REMARK                         _______ _______ _______ _____ _____    ______ ____
ROOT
ATOM      1  C   UNL     1       7.769   7.847  17.717  0.00  0.00    +0.000 A 
ATOM      2  C   UNL     1       7.901   9.175  17.382  0.00  0.00    +0.000 A 
ATOM      3  C   UNL     1       8.743   9.749  18.360  0.00  0.00    +0.000 A 
ATOM      4  N   UNL     1       9.100   8.833  19.273  0.00  0.00    +0.000 NA
ATOM      5  N   UNL     1       8.468   7.708  18.887  0.00  0.00    +0.000 N 
ATOM      6  H   UNL     1       8.567   6.885  19.472  0.00  0.00    +0.000 HD
ENDROOT
BRANCH   3   7
ATOM      7  C   UNL     1       9.192  11.136  18.419  0.00  0.00    +0.000 A 
ATOM      8  C   UNL     1      10.441  11.449  19.000  0.00  0.00    +0.000 A 
ATOM      9  C   UNL     1      10.874  12.775  19.100  0.00  0.00    +0.000 A 
ATOM     10  C   UNL     1      10.038  13.757  18.620  0.00  0.00    +0.000 A 
ATOM     11  C   UNL     1       8.827  13.463  18.039  0.00  0.00    +0.000 A 
ATOM     12  C   UNL     1       8.381  12.165  17.911  0.00  0.00    +0.000 A 
ATOM     13  O   UNL     1       8.150  14.577  17.654  0.00  0.00    +0.000 OA
ATOM     14  C   UNL     1       9.050  15.609  18.109  0.00  0.00    +0.000 C 
ATOM     15  O   UNL     1      10.275  15.096  18.671  0.00  0.00    +0.000 OA
ENDBRANCH   3   7
BRANCH   1  17
ATOM     16  C   UNL     1       5.761   6.792  17.029  0.00  0.00    +0.000 C 
ATOM     17  C   UNL     1       7.096   6.747  17.141  0.00  0.00    +0.000 C 
BRANCH  16  19
ATOM     18  O   UNL     1       5.230   5.137  15.422  0.00  0.00    +0.000 OA
ATOM     19  C   UNL     1       4.995   5.634  16.519  0.00  0.00    +0.000 C 
BRANCH  19  20
ATOM     20  C   UNL     1       3.965   5.037  17.407  0.00  0.00    +0.000 A 
ATOM     21  C   UNL     1       3.486   3.758  17.098  0.00  0.00    +0.000 A 
ATOM     22  C   UNL     1       2.488   3.173  17.879  0.00  0.00    +0.000 A 
ATOM     23  C   UNL     1       1.948   3.869  18.965  0.00  0.00    +0.000 A 
ATOM     24 CL   UNL     1       0.702   3.095  19.876  0.00  0.00    +0.000 Cl
ATOM     25  C   UNL     1       2.419   5.152  19.270  0.00  0.00    +0.000 A 
ATOM     26 CL   UNL     1       1.776   6.083  20.578  0.00  0.00    +0.000 Cl
ATOM     27  C   UNL     1       3.431   5.736  18.497  0.00  0.00    +0.000 A 
ENDBRANCH  19  20
ENDBRANCH  16  19
ENDBRANCH   1  17
TORSDOF 4
ENDMDL
