MODEL 1
REMARK VINA RESULT:      -8.0      0.000      0.000
REMARK  Name = 
REMARK  5 active torsions:
REMARK  status: ('A' for Active; 'I' for Inactive)
REMARK    1  A    between atoms: C_1  and  C_2
REMARK    2  A    between atoms: C_2  and  C_3
REMARK    3  A    between atoms: C_4  and  C_5
REMARK    4  A    between atoms: C_5  and  C_6
REMARK    5  A    between atoms: C_6  and  C_7
REMARK                            x       y       z     vdW  Elec       q    Type
REMARK                         _______ _______ _______ _____ _____    ______ ____
ROOT
ATOM      1  C   UNL     1       3.752   3.804  17.772  0.00  0.00    +0.000 C 
ATOM      2  C   UNL     1       4.388   3.351  18.861  0.00  0.00    +0.000 C 
ATOM      3  C   UNL     1       5.624   3.946  19.416  0.00  0.00    +0.000 C 
ATOM      4  N   UNL     1       6.047   5.173  18.773  0.00  0.00    +0.000 N 
ATOM      5  C   UNL     1       7.242   5.695  19.247  0.00  0.00    +0.000 A 
ATOM      6  O   UNL     1       7.810   5.326  20.272  0.00  0.00    +0.000 OA
ATOM      7  C   UNL     1       7.858   6.761  18.447  0.00  0.00    +0.000 A 
ATOM      8  C   UNL     1       7.341   7.146  17.287  0.00  0.00    +0.000 A 
ATOM      9  C   UNL     1       6.132   6.516  16.730  0.00  0.00    +0.000 A 
ATOM     10  O   UNL     1       5.651   6.972  15.695  0.00  0.00    +0.000 OA
ATOM     11  N   UNL     1       5.617   5.430  17.427  0.00  0.00    +0.000 N 
ATOM     12  C   UNL     1       4.284   4.988  17.021  0.00  0.00    +0.000 C 
ENDROOT
BRANCH   1  13
ATOM     13  C   UNL     1       2.476   3.191  17.216  0.00  0.00    +0.000 C 
BRANCH  13  14
ATOM     14  C   UNL     1       1.204   3.548  17.999  0.00  0.00    +0.000 C 
BRANCH  14  18
ATOM     15  C   UNL     1       1.256   2.659  21.791  0.00  0.00    +0.000 C 
ATOM     16  C   UNL     1       1.288   3.473  20.529  0.00  0.00    +0.000 C 
ATOM     17  C   UNL     1       1.576   4.943  20.666  0.00  0.00    +0.000 C 
ATOM     18  C   UNL     1       1.092   2.874  19.336  0.00  0.00    +0.000 C 
ENDBRANCH  14  18
ENDBRANCH  13  14
ENDBRANCH   1  13
TORSDOF 3
ENDMDL
MODEL 2
REMARK VINA RESULT:      -7.7      2.649      5.642
REMARK  Name = 
REMARK  5 active torsions:
REMARK  status: ('A' for Active; 'I' for Inactive)
REMARK    1  A    between atoms: C_1  and  C_2
REMARK    2  A    between atoms: C_2  and  C_3
REMARK    3  A    between atoms: C_4  and  C_5
REMARK    4  A    between atoms: C_5  and  C_6
REMARK    5  A    between atoms: C_6  and  C_7
REMARK                            x       y       z     vdW  Elec       q    Type
REMARK                         _______ _______ _______ _____ _____    ______ ____
ROOT
ATOM      1  C   UNL     1       4.481   4.819  16.823  0.00  0.00    +0.000 C 
ATOM      2  C   UNL     1       4.091   6.020  17.270  0.00  0.00    +0.000 C 
ATOM      3  C   UNL     1       3.194   6.229  18.429  0.00  0.00    +0.000 C 
ATOM      4  N   UNL     1       2.862   5.026  19.163  0.00  0.00    +0.000 N 
ATOM      5  C   UNL     1       1.968   5.211  20.208  0.00  0.00    +0.000 A 
ATOM      6  O   UNL     1       1.640   6.303  20.664  0.00  0.00    +0.000 OA
ATOM      7  C   UNL     1       1.379   4.000  20.793  0.00  0.00    +0.000 A 
ATOM      8  C   UNL     1       1.626   2.795  20.291  0.00  0.00    +0.000 A 
ATOM      9  C   UNL     1       2.489   2.608  19.113  0.00  0.00    +0.000 A 
ATOM     10  O   UNL     1       2.749   1.465  18.747  0.00  0.00    +0.000 OA
ATOM     11  N   UNL     1       2.950   3.760  18.489  0.00  0.00    +0.000 N 
ATOM     12  C   UNL     1       4.009   3.567  17.499  0.00  0.00    +0.000 C 
ENDROOT
BRANCH   1  13
ATOM     13  C   UNL     1       5.412   4.616  15.636  0.00  0.00    +0.000 C 
BRANCH  13  14
ATOM     14  C   UNL     1       6.899   4.845  15.946  0.00  0.00    +0.000 C 
BRANCH  14  18
ATOM     15  C   UNL     1       8.000   5.730  19.576  0.00  0.00    +0.000 C 
ATOM     16  C   UNL     1       7.578   5.902  18.145  0.00  0.00    +0.000 C 
ATOM     17  C   UNL     1       7.590   7.299  17.588  0.00  0.00    +0.000 C 
ATOM     18  C   UNL     1       7.235   4.824  17.409  0.00  0.00    +0.000 C 
ENDBRANCH  14  18
ENDBRANCH  13  14
ENDBRANCH   1  13
TORSDOF 3
ENDMDL
MODEL 3
REMARK VINA RESULT:      -7.6      3.687      6.323
REMARK  Name = 
REMARK  5 active torsions:
REMARK  status: ('A' for Active; 'I' for Inactive)
REMARK    1  A    between atoms: C_1  and  C_2
REMARK    2  A    between atoms: C_2  and  C_3
REMARK    3  A    between atoms: C_4  and  C_5
REMARK    4  A    between atoms: C_5  and  C_6
REMARK    5  A    between atoms: C_6  and  C_7
REMARK                            x       y       z     vdW  Elec       q    Type
REMARK                         _______ _______ _______ _____ _____    ______ ____
ROOT
ATOM      1  C   UNL     1       4.893   4.435  16.662  0.00  0.00    +0.000 C 
ATOM      2  C   UNL     1       4.746   5.759  16.805  0.00  0.00    +0.000 C 
ATOM      3  C   UNL     1       3.872   6.399  17.815  0.00  0.00    +0.000 C 
ATOM      4  N   UNL     1       3.272   5.484  18.762  0.00  0.00    +0.000 N 
ATOM      5  C   UNL     1       2.400   6.074  19.666  0.00  0.00    +0.000 A 
ATOM      6  O   UNL     1       2.291   7.284  19.847  0.00  0.00    +0.000 OA
ATOM      7  C   UNL     1       1.551   5.168  20.451  0.00  0.00    +0.000 A 
ATOM      8  C   UNL     1       1.559   3.856  20.244  0.00  0.00    +0.000 A 
ATOM      9  C   UNL     1       2.405   3.239  19.209  0.00  0.00    +0.000 A 
ATOM     10  O   UNL     1       2.434   2.015  19.122  0.00  0.00    +0.000 OA
ATOM     11  N   UNL     1       3.117   4.105  18.388  0.00  0.00    +0.000 N 
ATOM     12  C   UNL     1       4.146   3.488  17.553  0.00  0.00    +0.000 C 
ENDROOT
BRANCH   1  13
ATOM     13  C   UNL     1       5.801   3.788  15.627  0.00  0.00    +0.000 C 
BRANCH  13  14
ATOM     14  C   UNL     1       5.586   4.287  14.190  0.00  0.00    +0.000 C 
BRANCH  14  18
ATOM     15  C   UNL     1       6.556   2.102  11.115  0.00  0.00    +0.000 C 
ATOM     16  C   UNL     1       5.748   2.981  12.027  0.00  0.00    +0.000 C 
ATOM     17  C   UNL     1       4.313   3.229  11.649  0.00  0.00    +0.000 C 
ATOM     18  C   UNL     1       6.309   3.487  13.145  0.00  0.00    +0.000 C 
ENDBRANCH  14  18
ENDBRANCH  13  14
ENDBRANCH   1  13
TORSDOF 3
ENDMDL
MODEL 4
REMARK VINA RESULT:      -7.6      3.650      6.227
REMARK  Name = 
REMARK  5 active torsions:
REMARK  status: ('A' for Active; 'I' for Inactive)
REMARK    1  A    between atoms: C_1  and  C_2
REMARK    2  A    between atoms: C_2  and  C_3
REMARK    3  A    between atoms: C_4  and  C_5
REMARK    4  A    between atoms: C_5  and  C_6
REMARK    5  A    between atoms: C_6  and  C_7
REMARK                            x       y       z     vdW  Elec       q    Type
REMARK                         _______ _______ _______ _____ _____    ______ ____
ROOT
ATOM      1  C   UNL     1       5.524   5.270  15.748  0.00  0.00    +0.000 C 
ATOM      2  C   UNL     1       5.176   6.512  16.110  0.00  0.00    +0.000 C 
ATOM      3  C   UNL     1       4.197   6.828  17.175  0.00  0.00    +0.000 C 
ATOM      4  N   UNL     1       3.724   5.682  17.922  0.00  0.00    +0.000 N 
ATOM      5  C   UNL     1       2.756   5.969  18.874  0.00  0.00    +0.000 A 
ATOM      6  O   UNL     1       2.462   7.099  19.255  0.00  0.00    +0.000 OA
ATOM      7  C   UNL     1       2.040   4.825  19.452  0.00  0.00    +0.000 A 
ATOM      8  C   UNL     1       2.250   3.586  19.022  0.00  0.00    +0.000 A 
ATOM      9  C   UNL     1       3.199   3.292  17.935  0.00  0.00    +0.000 A 
ATOM     10  O   UNL     1       3.415   2.119  17.640  0.00  0.00    +0.000 OA
ATOM     11  N   UNL     1       3.787   4.384  17.309  0.00  0.00    +0.000 N 
ATOM     12  C   UNL     1       4.913   4.081  16.428  0.00  0.00    +0.000 C 
ENDROOT
BRANCH   1  13
ATOM     13  C   UNL     1       6.539   4.956  14.659  0.00  0.00    +0.000 C 
BRANCH  13  14
ATOM     14  C   UNL     1       6.226   3.694  13.840  0.00  0.00    +0.000 C 
BRANCH  14  18
ATOM     15  C   UNL     1       3.787   3.423  10.816  0.00  0.00    +0.000 C 
ATOM     16  C   UNL     1       4.893   3.086  11.775  0.00  0.00    +0.000 C 
ATOM     17  C   UNL     1       5.752   1.897  11.444  0.00  0.00    +0.000 C 
ATOM     18  C   UNL     1       5.097   3.856  12.864  0.00  0.00    +0.000 C 
ENDBRANCH  14  18
ENDBRANCH  13  14
ENDBRANCH   1  13
TORSDOF 3
ENDMDL
MODEL 5
REMARK VINA RESULT:      -7.6      2.547      5.531
REMARK  Name = 
REMARK  5 active torsions:
REMARK  status: ('A' for Active; 'I' for Inactive)
REMARK    1  A    between atoms: C_1  and  C_2
REMARK    2  A    between atoms: C_2  and  C_3
REMARK    3  A    between atoms: C_4  and  C_5
REMARK    4  A    between atoms: C_5  and  C_6
REMARK    5  A    between atoms: C_6  and  C_7
REMARK                            x       y       z     vdW  Elec       q    Type
REMARK                         _______ _______ _______ _____ _____    ______ ____
ROOT
ATOM      1  C   UNL     1       4.442   4.848  16.708  0.00  0.00    +0.000 C 
ATOM      2  C   UNL     1       4.269   3.522  16.781  0.00  0.00    +0.000 C 
ATOM      3  C   UNL     1       3.390   2.847  17.763  0.00  0.00    +0.000 C 
ATOM      4  N   UNL     1       2.593   3.740  18.577  0.00  0.00    +0.000 N 
ATOM      5  C   UNL     1       1.820   3.112  19.542  0.00  0.00    +0.000 A 
ATOM      6  O   UNL     1       1.609   1.903  19.593  0.00  0.00    +0.000 OA
ATOM      7  C   UNL     1       1.224   3.972  20.573  0.00  0.00    +0.000 A 
ATOM      8  C   UNL     1       1.483   5.274  20.624  0.00  0.00    +0.000 A 
ATOM      9  C   UNL     1       2.391   5.923  19.664  0.00  0.00    +0.000 A 
ATOM     10  O   UNL     1       2.523   7.143  19.709  0.00  0.00    +0.000 OA
ATOM     11  N   UNL     1       3.046   5.091  18.765  0.00  0.00    +0.000 N 
ATOM     12  C   UNL     1       3.726   5.761  17.658  0.00  0.00    +0.000 C 
ENDROOT
BRANCH   1  13
ATOM     13  C   UNL     1       5.340   5.533  15.688  0.00  0.00    +0.000 C 
BRANCH  13  14
ATOM     14  C   UNL     1       6.842   5.276  15.888  0.00  0.00    +0.000 C 
BRANCH  14  18
ATOM     15  C   UNL     1       8.135   5.805  19.524  0.00  0.00    +0.000 C 
ATOM     16  C   UNL     1       7.638   6.115  18.141  0.00  0.00    +0.000 C 
ATOM     17  C   UNL     1       7.626   7.560  17.723  0.00  0.00    +0.000 C 
ATOM     18  C   UNL     1       7.254   5.113  17.323  0.00  0.00    +0.000 C 
ENDBRANCH  14  18
ENDBRANCH  13  14
ENDBRANCH   1  13
TORSDOF 3
ENDMDL
MODEL 6
REMARK VINA RESULT:      -7.6      2.687      5.958
REMARK  Name = 
REMARK  5 active torsions:
REMARK  status: ('A' for Active; 'I' for Inactive)
REMARK    1  A    between atoms: C_1  and  C_2
REMARK    2  A    between atoms: C_2  and  C_3
REMARK    3  A    between atoms: C_4  and  C_5
REMARK    4  A    between atoms: C_5  and  C_6
REMARK    5  A    between atoms: C_6  and  C_7
REMARK                            x       y       z     vdW  Elec       q    Type
REMARK                         _______ _______ _______ _____ _____    ______ ____
ROOT
ATOM      1  C   UNL     1       4.368   5.343  16.979  0.00  0.00    +0.000 C 
ATOM      2  C   UNL     1       4.022   6.437  17.672  0.00  0.00    +0.000 C 
ATOM      3  C   UNL     1       3.087   6.437  18.820  0.00  0.00    +0.000 C 
ATOM      4  N   UNL     1       2.659   5.123  19.253  0.00  0.00    +0.000 N 
ATOM      5  C   UNL     1       1.731   5.126  20.284  0.00  0.00    +0.000 A 
ATOM      6  O   UNL     1       1.440   6.107  20.963  0.00  0.00    +0.000 OA
ATOM      7  C   UNL     1       1.052   3.854  20.563  0.00  0.00    +0.000 A 
ATOM      8  C   UNL     1       1.257   2.778  19.811  0.00  0.00    +0.000 A 
ATOM      9  C   UNL     1       2.161   2.805  18.649  0.00  0.00    +0.000 A 
ATOM     10  O   UNL     1       2.376   1.758  18.044  0.00  0.00    +0.000 OA
ATOM     11  N   UNL     1       2.710   4.037  18.315  0.00  0.00    +0.000 N 
ATOM     12  C   UNL     1       3.800   4.004  17.341  0.00  0.00    +0.000 C 
ENDROOT
BRANCH   1  13
ATOM     13  C   UNL     1       5.338   5.352  15.807  0.00  0.00    +0.000 C 
BRANCH  13  14
ATOM     14  C   UNL     1       6.821   5.366  16.208  0.00  0.00    +0.000 C 
BRANCH  14  18
ATOM     15  C   UNL     1       8.155   8.515  18.074  0.00  0.00    +0.000 C 
ATOM     16  C   UNL     1       7.753   7.091  17.810  0.00  0.00    +0.000 C 
ATOM     17  C   UNL     1       7.798   6.138  18.974  0.00  0.00    +0.000 C 
ATOM     18  C   UNL     1       7.348   6.723  16.577  0.00  0.00    +0.000 C 
ENDBRANCH  14  18
ENDBRANCH  13  14
ENDBRANCH   1  13
TORSDOF 3
ENDMDL
MODEL 7
REMARK VINA RESULT:      -7.4      3.365      6.265
REMARK  Name = 
REMARK  5 active torsions:
REMARK  status: ('A' for Active; 'I' for Inactive)
REMARK    1  A    between atoms: C_1  and  C_2
REMARK    2  A    between atoms: C_2  and  C_3
REMARK    3  A    between atoms: C_4  and  C_5
REMARK    4  A    between atoms: C_5  and  C_6
REMARK    5  A    between atoms: C_6  and  C_7
REMARK                            x       y       z     vdW  Elec       q    Type
REMARK                         _______ _______ _______ _____ _____    ______ ____
ROOT
ATOM      1  C   UNL     1       4.470   5.694  16.916  0.00  0.00    +0.000 C 
ATOM      2  C   UNL     1       3.988   6.708  17.648  0.00  0.00    +0.000 C 
ATOM      3  C   UNL     1       3.032   6.550  18.767  0.00  0.00    +0.000 C 
ATOM      4  N   UNL     1       2.743   5.178  19.128  0.00  0.00    +0.000 N 
ATOM      5  C   UNL     1       1.796   5.029  20.131  0.00  0.00    +0.000 A 
ATOM      6  O   UNL     1       1.383   5.939  20.846  0.00  0.00    +0.000 OA
ATOM      7  C   UNL     1       1.257   3.678  20.333  0.00  0.00    +0.000 A 
ATOM      8  C   UNL     1       1.598   2.669  19.540  0.00  0.00    +0.000 A 
ATOM      9  C   UNL     1       2.520   2.851  18.406  0.00  0.00    +0.000 A 
ATOM     10  O   UNL     1       2.865   1.864  17.761  0.00  0.00    +0.000 OA
ATOM     11  N   UNL     1       2.936   4.150  18.143  0.00  0.00    +0.000 N 
ATOM     12  C   UNL     1       4.046   4.285  17.201  0.00  0.00    +0.000 C 
ENDROOT
BRANCH   1  13
ATOM     13  C   UNL     1       5.460   5.866  15.774  0.00  0.00    +0.000 C 
BRANCH  13  14
ATOM     14  C   UNL     1       6.381   4.659  15.542  0.00  0.00    +0.000 C 
BRANCH  14  18
ATOM     15  C   UNL     1       5.898   3.087  12.012  0.00  0.00    +0.000 C 
ATOM     16  C   UNL     1       6.453   3.942  13.115  0.00  0.00    +0.000 C 
ATOM     17  C   UNL     1       7.499   4.956  12.738  0.00  0.00    +0.000 C 
ATOM     18  C   UNL     1       5.991   3.800  14.374  0.00  0.00    +0.000 C 
ENDBRANCH  14  18
ENDBRANCH  13  14
ENDBRANCH   1  13
TORSDOF 3
ENDMDL
MODEL 8
REMARK VINA RESULT:      -7.4      3.455      6.188
REMARK  Name = 
REMARK  5 active torsions:
REMARK  status: ('A' for Active; 'I' for Inactive)
REMARK    1  A    between atoms: C_1  and  C_2
REMARK    2  A    between atoms: C_2  and  C_3
REMARK    3  A    between atoms: C_4  and  C_5
REMARK    4  A    between atoms: C_5  and  C_6
REMARK    5  A    between atoms: C_6  and  C_7
REMARK                            x       y       z     vdW  Elec       q    Type
REMARK                         _______ _______ _______ _____ _____    ______ ____
ROOT
ATOM      1  C   UNL     1       5.054   4.410  17.129  0.00  0.00    +0.000 C 
ATOM      2  C   UNL     1       5.677   4.075  18.268  0.00  0.00    +0.000 C 
ATOM      3  C   UNL     1       4.993   3.543  19.468  0.00  0.00    +0.000 C 
ATOM      4  N   UNL     1       3.584   3.264  19.289  0.00  0.00    +0.000 N 
ATOM      5  C   UNL     1       2.928   2.829  20.432  0.00  0.00    +0.000 A 
ATOM      6  O   UNL     1       3.486   2.469  21.466  0.00  0.00    +0.000 OA
ATOM      7  C   UNL     1       1.461   2.811  20.383  0.00  0.00    +0.000 A 
ATOM      8  C   UNL     1       0.796   3.268  19.329  0.00  0.00    +0.000 A 
ATOM      9  C   UNL     1       1.489   3.831  18.158  0.00  0.00    +0.000 A 
ATOM     10  O   UNL     1       0.825   4.157  17.178  0.00  0.00    +0.000 OA
ATOM     11  N   UNL     1       2.869   3.957  18.253  0.00  0.00    +0.000 N 
ATOM     12  C   UNL     1       3.567   4.260  17.005  0.00  0.00    +0.000 C 
ENDROOT
BRANCH   1  13
ATOM     13  C   UNL     1       5.767   4.948  15.898  0.00  0.00    +0.000 C 
BRANCH  13  14
ATOM     14  C   UNL     1       5.191   4.455  14.562  0.00  0.00    +0.000 C 
BRANCH  14  18
ATOM     15  C   UNL     1       7.048   2.727  11.606  0.00  0.00    +0.000 C 
ATOM     16  C   UNL     1       5.948   3.368  12.404  0.00  0.00    +0.000 C 
ATOM     17  C   UNL     1       4.571   3.371  11.798  0.00  0.00    +0.000 C 
ATOM     18  C   UNL     1       6.214   3.885  13.621  0.00  0.00    +0.000 C 
ENDBRANCH  14  18
ENDBRANCH  13  14
ENDBRANCH   1  13
TORSDOF 3
ENDMDL
MODEL 9
REMARK VINA RESULT:      -7.4      2.623      5.982
REMARK  Name = 
REMARK  5 active torsions:
REMARK  status: ('A' for Active; 'I' for Inactive)
REMARK    1  A    between atoms: C_1  and  C_2
REMARK    2  A    between atoms: C_2  and  C_3
REMARK    3  A    between atoms: C_4  and  C_5
REMARK    4  A    between atoms: C_5  and  C_6
REMARK    5  A    between atoms: C_6  and  C_7
REMARK                            x       y       z     vdW  Elec       q    Type
REMARK                         _______ _______ _______ _____ _____    ______ ____
ROOT
ATOM      1  C   UNL     1       4.354   4.031  17.282  0.00  0.00    +0.000 C 
ATOM      2  C   UNL     1       3.151   4.603  17.136  0.00  0.00    +0.000 C 
ATOM      3  C   UNL     1       2.094   4.602  18.172  0.00  0.00    +0.000 C 
ATOM      4  N   UNL     1       2.497   4.048  19.447  0.00  0.00    +0.000 N 
ATOM      5  C   UNL     1       1.488   3.985  20.397  0.00  0.00    +0.000 A 
ATOM      6  O   UNL     1       0.399   4.546  20.302  0.00  0.00    +0.000 OA
ATOM      7  C   UNL     1       1.758   3.177  21.593  0.00  0.00    +0.000 A 
ATOM      8  C   UNL     1       2.879   2.476  21.719  0.00  0.00    +0.000 A 
ATOM      9  C   UNL     1       3.904   2.457  20.662  0.00  0.00    +0.000 A 
ATOM     10  O   UNL     1       4.957   1.860  20.870  0.00  0.00    +0.000 OA
ATOM     11  N   UNL     1       3.596   3.124  19.482  0.00  0.00    +0.000 N 
ATOM     12  C   UNL     1       4.709   3.325  18.556  0.00  0.00    +0.000 C 
ENDROOT
BRANCH   1  13
ATOM     13  C   UNL     1       5.438   4.046  16.214  0.00  0.00    +0.000 C 
BRANCH  13  14
ATOM     14  C   UNL     1       6.841   4.389  16.735  0.00  0.00    +0.000 C 
BRANCH  14  18
ATOM     15  C   UNL     1       7.757   8.070  17.617  0.00  0.00    +0.000 C 
ATOM     16  C   UNL     1       7.563   6.588  17.762  0.00  0.00    +0.000 C 
ATOM     17  C   UNL     1       7.793   5.995  19.126  0.00  0.00    +0.000 C 
ATOM     18  C   UNL     1       7.172   5.853  16.700  0.00  0.00    +0.000 C 
ENDBRANCH  14  18
ENDBRANCH  13  14
ENDBRANCH   1  13
TORSDOF 3
ENDMDL
