MODEL 1
REMARK VINA RESULT:      -7.6      0.000      0.000
REMARK  Name = 
REMARK  3 active torsions:
REMARK  status: ('A' for Active; 'I' for Inactive)
REMARK    1  A    between atoms: C_1  and  C_2
REMARK    2  A    between atoms: C_3  and  C_4
REMARK    3  A    between atoms: C_9  and  N_10
REMARK                            x       y       z     vdW  Elec       q    Type
REMARK                         _______ _______ _______ _____ _____    ______ ____
ROOT
ATOM      1  C   UNL     1       2.861   6.380  19.559  0.00  0.00    +0.000 C 
ATOM      2  O   UNL     1       2.814   5.846  20.671  0.00  0.00    +0.000 OA
ATOM      3  N   UNL     1       2.164   7.590  19.334  0.00  0.00    +0.000 N 
ATOM      4  C   UNL     1       1.456   8.159  20.475  0.00  0.00    +0.000 C 
ATOM      5  C   UNL     1       0.262   9.003  20.043  0.00  0.00    +0.000 C 
ATOM      6  C   UNL     1       0.627  10.119  19.040  0.00  0.00    +0.000 C 
ATOM      7  C   UNL     1       1.372   9.437  17.869  0.00  0.00    +0.000 C 
ATOM      8  C   UNL     1       2.551   8.571  18.316  0.00  0.00    +0.000 C 
ENDROOT
BRANCH   1  11
ATOM      9  C   UNL     1       2.075   3.993  17.465  0.00  0.00    +0.000 C 
ATOM     10  C   UNL     1       3.337   4.776  17.572  0.00  0.00    +0.000 A 
ATOM     11  C   UNL     1       3.646   5.786  18.484  0.00  0.00    +0.000 A 
ATOM     12  O   UNL     1       4.877   6.305  18.182  0.00  0.00    +0.000 OA
ATOM     13  C   UNL     1       5.395   5.583  17.153  0.00  0.00    +0.000 A 
ATOM     14  C   UNL     1       6.643   5.762  16.564  0.00  0.00    +0.000 A 
ATOM     15  F   UNL     1       7.488   6.718  16.970  0.00  0.00    +0.000 F 
ATOM     16  C   UNL     1       7.003   4.900  15.529  0.00  0.00    +0.000 A 
ATOM     17  C   UNL     1       6.130   3.896  15.105  0.00  0.00    +0.000 A 
ATOM     18  C   UNL     1       4.870   3.740  15.704  0.00  0.00    +0.000 A 
ATOM     19  C   UNL     1       4.494   4.607  16.751  0.00  0.00    +0.000 A 
ENDBRANCH   1  11
BRANCH   6  20
ATOM     20  N   UNL     1       1.379  11.308  19.563  0.00  0.00    +0.000 NA
ATOM     21  C   UNL     1       0.562  12.136  20.486  0.00  0.00    +0.000 C 
ATOM     22  C   UNL     1       1.258  13.380  21.063  0.00  0.00    +0.000 C 
ATOM     23  S   UNL     1       1.734  14.565  19.778  0.00  0.00    +0.000 S 
ATOM     24  C   UNL     1       2.654  13.390  18.752  0.00  0.00    +0.000 C 
ATOM     25  C   UNL     1       1.816  12.151  18.408  0.00  0.00    +0.000 C 
ENDBRANCH   6  20
TORSDOF 2
ENDMDL
MODEL 2
REMARK VINA RESULT:      -6.8      2.497      4.055
REMARK  Name = 
REMARK  3 active torsions:
REMARK  status: ('A' for Active; 'I' for Inactive)
REMARK    1  A    between atoms: C_1  and  C_2
REMARK    2  A    between atoms: C_3  and  C_4
REMARK    3  A    between atoms: C_9  and  N_10
REMARK                            x       y       z     vdW  Elec       q    Type
REMARK                         _______ _______ _______ _____ _____    ______ ____
ROOT
ATOM      1  C   UNL     1       6.332   4.876  17.531  0.00  0.00    +0.000 C 
ATOM      2  O   UNL     1       7.319   4.810  18.269  0.00  0.00    +0.000 OA
ATOM      3  N   UNL     1       5.072   5.219  18.077  0.00  0.00    +0.000 N 
ATOM      4  C   UNL     1       5.037   5.521  19.504  0.00  0.00    +0.000 C 
ATOM      5  C   UNL     1       3.674   5.225  20.116  0.00  0.00    +0.000 C 
ATOM      6  C   UNL     1       2.507   5.939  19.399  0.00  0.00    +0.000 C 
ATOM      7  C   UNL     1       2.616   5.571  17.899  0.00  0.00    +0.000 C 
ATOM      8  C   UNL     1       3.997   5.846  17.302  0.00  0.00    +0.000 C 
ENDROOT
BRANCH   1  11
ATOM      9  C   UNL     1       4.582   2.910  15.588  0.00  0.00    +0.000 C 
ATOM     10  C   UNL     1       5.723   3.802  15.246  0.00  0.00    +0.000 A 
ATOM     11  C   UNL     1       6.457   4.625  16.101  0.00  0.00    +0.000 A 
ATOM     12  O   UNL     1       7.363   5.345  15.368  0.00  0.00    +0.000 OA
ATOM     13  C   UNL     1       7.283   4.927  14.077  0.00  0.00    +0.000 A 
ATOM     14  C   UNL     1       8.056   5.378  13.012  0.00  0.00    +0.000 A 
ATOM     15  F   UNL     1       8.992   6.323  13.167  0.00  0.00    +0.000 F 
ATOM     16  C   UNL     1       7.836   4.807  11.759  0.00  0.00    +0.000 A 
ATOM     17  C   UNL     1       6.868   3.816  11.591  0.00  0.00    +0.000 A 
ATOM     18  C   UNL     1       6.088   3.382  12.676  0.00  0.00    +0.000 A 
ATOM     19  C   UNL     1       6.301   3.955  13.947  0.00  0.00    +0.000 A 
ENDBRANCH   1  11
BRANCH   6  20
ATOM     20  N   UNL     1       2.365   7.419  19.600  0.00  0.00    +0.000 NA
ATOM     21  C   UNL     1       1.401   7.755  20.678  0.00  0.00    +0.000 C 
ATOM     22  C   UNL     1       1.191   9.255  20.945  0.00  0.00    +0.000 C 
ATOM     23  S   UNL     1       0.507  10.124  19.512  0.00  0.00    +0.000 S 
ATOM     24  C   UNL     1       1.756   9.568  18.323  0.00  0.00    +0.000 C 
ATOM     25  C   UNL     1       1.903   8.040  18.320  0.00  0.00    +0.000 C 
ENDBRANCH   6  20
TORSDOF 2
ENDMDL
MODEL 3
REMARK VINA RESULT:      -6.6      5.655      7.775
REMARK  Name = 
REMARK  3 active torsions:
REMARK  status: ('A' for Active; 'I' for Inactive)
REMARK    1  A    between atoms: C_1  and  C_2
REMARK    2  A    between atoms: C_3  and  C_4
REMARK    3  A    between atoms: C_9  and  N_10
REMARK                            x       y       z     vdW  Elec       q    Type
REMARK                         _______ _______ _______ _____ _____    ______ ____
ROOT
ATOM      1  C   UNL     1       0.581  12.057  20.589  0.00  0.00    +0.000 C 
ATOM      2  O   UNL     1       0.592  11.583  21.728  0.00  0.00    +0.000 OA
ATOM      3  N   UNL     1       1.482  13.095  20.254  0.00  0.00    +0.000 N 
ATOM      4  C   UNL     1       2.416  13.512  21.295  0.00  0.00    +0.000 C 
ATOM      5  C   UNL     1       2.844  14.964  21.128  0.00  0.00    +0.000 C 
ATOM      6  C   UNL     1       3.435  15.277  19.735  0.00  0.00    +0.000 C 
ATOM      7  C   UNL     1       2.391  14.806  18.695  0.00  0.00    +0.000 C 
ATOM      8  C   UNL     1       1.947  13.355  18.889  0.00  0.00    +0.000 C 
ENDROOT
BRANCH   1  11
ATOM      9  C   UNL     1       1.052   9.769  18.299  0.00  0.00    +0.000 C 
ATOM     10  C   UNL     1      -0.169  10.564  18.599  0.00  0.00    +0.000 A 
ATOM     11  C   UNL     1      -0.337  11.542  19.581  0.00  0.00    +0.000 A 
ATOM     12  O   UNL     1      -1.640  11.966  19.578  0.00  0.00    +0.000 OA
ATOM     13  C   UNL     1      -2.280  11.343  18.552  0.00  0.00    +0.000 A 
ATOM     14  C   UNL     1      -3.609  11.519  18.179  0.00  0.00    +0.000 A 
ATOM     15  F   UNL     1      -4.425  12.353  18.837  0.00  0.00    +0.000 F 
ATOM     16  C   UNL     1      -4.077  10.801  17.080  0.00  0.00    +0.000 A 
ATOM     17  C   UNL     1      -3.230   9.936  16.384  0.00  0.00    +0.000 A 
ATOM     18  C   UNL     1      -1.895   9.762  16.784  0.00  0.00    +0.000 A 
ATOM     19  C   UNL     1      -1.412  10.482  17.897  0.00  0.00    +0.000 A 
ENDBRANCH   1  11
BRANCH   6  20
ATOM     20  N   UNL     1       4.806  14.753  19.426  0.00  0.00    +0.000 NA
ATOM     21  C   UNL     1       5.842  15.300  20.339  0.00  0.00    +0.000 C 
ATOM     22  C   UNL     1       7.280  14.818  20.085  0.00  0.00    +0.000 C 
ATOM     23  S   UNL     1       7.893  15.299  18.450  0.00  0.00    +0.000 S 
ATOM     24  C   UNL     1       6.512  14.607  17.505  0.00  0.00    +0.000 C 
ATOM     25  C   UNL     1       5.157  15.114  18.017  0.00  0.00    +0.000 C 
ENDBRANCH   6  20
TORSDOF 2
ENDMDL
MODEL 4
REMARK VINA RESULT:      -6.5      2.919      4.276
REMARK  Name = 
REMARK  3 active torsions:
REMARK  status: ('A' for Active; 'I' for Inactive)
REMARK    1  A    between atoms: C_1  and  C_2
REMARK    2  A    between atoms: C_3  and  C_4
REMARK    3  A    between atoms: C_9  and  N_10
REMARK                            x       y       z     vdW  Elec       q    Type
REMARK                         _______ _______ _______ _____ _____    ______ ____
ROOT
ATOM      1  C   UNL     1       2.172   8.435  18.233  0.00  0.00    +0.000 C 
ATOM      2  O   UNL     1       2.209   8.861  17.075  0.00  0.00    +0.000 OA
ATOM      3  N   UNL     1       1.716   9.279  19.274  0.00  0.00    +0.000 N 
ATOM      4  C   UNL     1       1.269  10.612  18.887  0.00  0.00    +0.000 C 
ATOM      5  C   UNL     1       1.436  11.620  20.018  0.00  0.00    +0.000 C 
ATOM      6  C   UNL     1       0.745  11.194  21.332  0.00  0.00    +0.000 C 
ATOM      7  C   UNL     1       1.269   9.777  21.669  0.00  0.00    +0.000 C 
ATOM      8  C   UNL     1       1.121   8.781  20.517  0.00  0.00    +0.000 C 
ENDROOT
BRANCH   1  11
ATOM      9  C   UNL     1       4.915   6.836  17.446  0.00  0.00    +0.000 C 
ATOM     10  C   UNL     1       3.736   6.361  18.220  0.00  0.00    +0.000 A 
ATOM     11  C   UNL     1       2.573   7.067  18.533  0.00  0.00    +0.000 A 
ATOM     12  O   UNL     1       1.777   6.292  19.335  0.00  0.00    +0.000 OA
ATOM     13  C   UNL     1       2.369   5.075  19.461  0.00  0.00    +0.000 A 
ATOM     14  C   UNL     1       1.871   3.983  20.165  0.00  0.00    +0.000 A 
ATOM     15  F   UNL     1       0.708   4.037  20.828  0.00  0.00    +0.000 F 
ATOM     16  C   UNL     1       2.620   2.807  20.158  0.00  0.00    +0.000 A 
ATOM     17  C   UNL     1       3.829   2.740  19.463  0.00  0.00    +0.000 A 
ATOM     18  C   UNL     1       4.321   3.857  18.768  0.00  0.00    +0.000 A 
ATOM     19  C   UNL     1       3.573   5.053  18.771  0.00  0.00    +0.000 A 
ENDBRANCH   1  11
BRANCH   6  20
ATOM     20  N   UNL     1      -0.753  11.261  21.385  0.00  0.00    +0.000 NA
ATOM     21  C   UNL     1      -1.320  12.127  20.320  0.00  0.00    +0.000 C 
ATOM     22  C   UNL     1      -2.853  12.256  20.308  0.00  0.00    +0.000 C 
ATOM     23  S   UNL     1      -3.495  13.013  21.823  0.00  0.00    +0.000 S 
ATOM     24  C   UNL     1      -2.677  11.881  22.976  0.00  0.00    +0.000 C 
ATOM     25  C   UNL     1      -1.166  11.795  22.720  0.00  0.00    +0.000 C 
ENDBRANCH   6  20
TORSDOF 2
ENDMDL
MODEL 5
REMARK VINA RESULT:      -6.4      1.454      1.831
REMARK  Name = 
REMARK  3 active torsions:
REMARK  status: ('A' for Active; 'I' for Inactive)
REMARK    1  A    between atoms: C_1  and  C_2
REMARK    2  A    between atoms: C_3  and  C_4
REMARK    3  A    between atoms: C_9  and  N_10
REMARK                            x       y       z     vdW  Elec       q    Type
REMARK                         _______ _______ _______ _____ _____    ______ ____
ROOT
ATOM      1  C   UNL     1       1.815   7.530  20.331  0.00  0.00    +0.000 C 
ATOM      2  O   UNL     1       1.855   7.333  21.548  0.00  0.00    +0.000 OA
ATOM      3  N   UNL     1       1.161   8.680  19.829  0.00  0.00    +0.000 N 
ATOM      4  C   UNL     1       0.603   9.598  20.816  0.00  0.00    +0.000 C 
ATOM      5  C   UNL     1      -0.584  10.377  20.263  0.00  0.00    +0.000 C 
ATOM      6  C   UNL     1      -0.268  11.138  18.957  0.00  0.00    +0.000 C 
ATOM      7  C   UNL     1       0.318  10.100  17.970  0.00  0.00    +0.000 C 
ATOM      8  C   UNL     1       1.491   9.304  18.545  0.00  0.00    +0.000 C 
ENDROOT
BRANCH   1  11
ATOM      9  C   UNL     1       1.267   4.340  19.855  0.00  0.00    +0.000 C 
ATOM     10  C   UNL     1       2.238   5.241  19.176  0.00  0.00    +0.000 A 
ATOM     11  C   UNL     1       2.454   6.601  19.408  0.00  0.00    +0.000 A 
ATOM     12  O   UNL     1       3.374   7.070  18.507  0.00  0.00    +0.000 OA
ATOM     13  C   UNL     1       3.814   6.016  17.770  0.00  0.00    +0.000 A 
ATOM     14  C   UNL     1       4.778   6.054  16.767  0.00  0.00    +0.000 A 
ATOM     15  F   UNL     1       5.385   7.193  16.411  0.00  0.00    +0.000 F 
ATOM     16  C   UNL     1       5.110   4.855  16.138  0.00  0.00    +0.000 A 
ATOM     17  C   UNL     1       4.487   3.662  16.509  0.00  0.00    +0.000 A 
ATOM     18  C   UNL     1       3.507   3.647  17.515  0.00  0.00    +0.000 A 
ATOM     19  C   UNL     1       3.162   4.854  18.157  0.00  0.00    +0.000 A 
ENDBRANCH   1  11
BRANCH   6  20
ATOM     20  N   UNL     1       0.593  12.363  19.054  0.00  0.00    +0.000 NA
ATOM     21  C   UNL     1       1.197  12.526  20.401  0.00  0.00    +0.000 C 
ATOM     22  C   UNL     1       2.092  13.763  20.588  0.00  0.00    +0.000 C 
ATOM     23  S   UNL     1       1.183  15.314  20.366  0.00  0.00    +0.000 S 
ATOM     24  C   UNL     1       0.497  14.914  18.738  0.00  0.00    +0.000 C 
ATOM     25  C   UNL     1      -0.238  13.566  18.742  0.00  0.00    +0.000 C 
ENDBRANCH   6  20
TORSDOF 2
ENDMDL
MODEL 6
REMARK VINA RESULT:      -6.3      2.875      3.853
REMARK  Name = 
REMARK  3 active torsions:
REMARK  status: ('A' for Active; 'I' for Inactive)
REMARK    1  A    between atoms: C_1  and  C_2
REMARK    2  A    between atoms: C_3  and  C_4
REMARK    3  A    between atoms: C_9  and  N_10
REMARK                            x       y       z     vdW  Elec       q    Type
REMARK                         _______ _______ _______ _____ _____    ______ ____
ROOT
ATOM      1  C   UNL     1       1.427   8.476  20.911  0.00  0.00    +0.000 C 
ATOM      2  O   UNL     1       1.902   8.658  22.036  0.00  0.00    +0.000 OA
ATOM      3  N   UNL     1       0.630   9.483  20.318  0.00  0.00    +0.000 N 
ATOM      4  C   UNL     1       0.458  10.715  21.079  0.00  0.00    +0.000 C 
ATOM      5  C   UNL     1      -0.853  11.416  20.743  0.00  0.00    +0.000 C 
ATOM      6  C   UNL     1      -1.031  11.700  19.235  0.00  0.00    +0.000 C 
ATOM      7  C   UNL     1      -0.832  10.351  18.503  0.00  0.00    +0.000 C 
ATOM      8  C   UNL     1       0.473   9.644  18.869  0.00  0.00    +0.000 C 
ENDROOT
BRANCH   1  11
ATOM      9  C   UNL     1       3.023   8.016  18.093  0.00  0.00    +0.000 C 
ATOM     10  C   UNL     1       2.380   7.015  18.986  0.00  0.00    +0.000 A 
ATOM     11  C   UNL     1       1.698   7.244  20.182  0.00  0.00    +0.000 A 
ATOM     12  O   UNL     1       1.339   6.042  20.734  0.00  0.00    +0.000 OA
ATOM     13  C   UNL     1       1.699   5.059  19.867  0.00  0.00    +0.000 A 
ATOM     14  C   UNL     1       1.484   3.694  20.029  0.00  0.00    +0.000 A 
ATOM     15  F   UNL     1       0.882   3.196  21.117  0.00  0.00    +0.000 F 
ATOM     16  C   UNL     1       1.910   2.842  19.011  0.00  0.00    +0.000 A 
ATOM     17  C   UNL     1       2.532   3.355  17.871  0.00  0.00    +0.000 A 
ATOM     18  C   UNL     1       2.751   4.735  17.731  0.00  0.00    +0.000 A 
ATOM     19  C   UNL     1       2.326   5.605  18.756  0.00  0.00    +0.000 A 
ENDBRANCH   1  11
BRANCH   6  20
ATOM     20  N   UNL     1      -0.199  12.791  18.628  0.00  0.00    +0.000 NA
ATOM     21  C   UNL     1       1.258  12.532  18.757  0.00  0.00    +0.000 C 
ATOM     22  C   UNL     1       2.184  13.607  18.165  0.00  0.00    +0.000 C 
ATOM     23  S   UNL     1       1.990  15.213  18.980  0.00  0.00    +0.000 S 
ATOM     24  C   UNL     1       0.195  15.329  18.770  0.00  0.00    +0.000 C 
ATOM     25  C   UNL     1      -0.527  14.084  19.304  0.00  0.00    +0.000 C 
ENDBRANCH   6  20
TORSDOF 2
ENDMDL
MODEL 7
REMARK VINA RESULT:      -6.2      2.443      3.841
REMARK  Name = 
REMARK  3 active torsions:
REMARK  status: ('A' for Active; 'I' for Inactive)
REMARK    1  A    between atoms: C_1  and  C_2
REMARK    2  A    between atoms: C_3  and  C_4
REMARK    3  A    between atoms: C_9  and  N_10
REMARK                            x       y       z     vdW  Elec       q    Type
REMARK                         _______ _______ _______ _____ _____    ______ ____
ROOT
ATOM      1  C   UNL     1       5.364   4.657  18.096  0.00  0.00    +0.000 C 
ATOM      2  O   UNL     1       5.932   3.998  18.972  0.00  0.00    +0.000 OA
ATOM      3  N   UNL     1       4.150   5.319  18.395  0.00  0.00    +0.000 N 
ATOM      4  C   UNL     1       3.665   5.209  19.767  0.00  0.00    +0.000 C 
ATOM      5  C   UNL     1       2.149   5.337  19.848  0.00  0.00    +0.000 C 
ATOM      6  C   UNL     1       1.603   6.628  19.199  0.00  0.00    +0.000 C 
ATOM      7  C   UNL     1       2.162   6.670  17.757  0.00  0.00    +0.000 C 
ATOM      8  C   UNL     1       3.682   6.513  17.685  0.00  0.00    +0.000 C 
ENDROOT
BRANCH   1  11
ATOM      9  C   UNL     1       7.722   6.647  17.008  0.00  0.00    +0.000 C 
ATOM     10  C   UNL     1       6.953   5.607  16.273  0.00  0.00    +0.000 A 
ATOM     11  C   UNL     1       5.944   4.776  16.764  0.00  0.00    +0.000 A 
ATOM     12  O   UNL     1       5.561   3.901  15.782  0.00  0.00    +0.000 OA
ATOM     13  C   UNL     1       6.242   4.220  14.649  0.00  0.00    +0.000 A 
ATOM     14  C   UNL     1       6.121   3.599  13.410  0.00  0.00    +0.000 A 
ATOM     15  F   UNL     1       5.289   2.568  13.212  0.00  0.00    +0.000 F 
ATOM     16  C   UNL     1       6.894   4.088  12.358  0.00  0.00    +0.000 A 
ATOM     17  C   UNL     1       7.759   5.167  12.555  0.00  0.00    +0.000 A 
ATOM     18  C   UNL     1       7.876   5.773  13.816  0.00  0.00    +0.000 A 
ATOM     19  C   UNL     1       7.100   5.284  14.888  0.00  0.00    +0.000 A 
ENDBRANCH   1  11
BRANCH   6  20
ATOM     20  N   UNL     1       1.832   7.922  19.923  0.00  0.00    +0.000 NA
ATOM     21  C   UNL     1       1.191   7.944  21.263  0.00  0.00    +0.000 C 
ATOM     22  C   UNL     1       1.371   9.240  22.071  0.00  0.00    +0.000 C 
ATOM     23  S   UNL     1       0.631  10.675  21.250  0.00  0.00    +0.000 S 
ATOM     24  C   UNL     1       1.475  10.457  19.663  0.00  0.00    +0.000 C 
ATOM     25  C   UNL     1       1.280   9.042  19.100  0.00  0.00    +0.000 C 
ENDBRANCH   6  20
TORSDOF 2
ENDMDL
MODEL 8
REMARK VINA RESULT:      -6.2      0.993      1.511
REMARK  Name = 
REMARK  3 active torsions:
REMARK  status: ('A' for Active; 'I' for Inactive)
REMARK    1  A    between atoms: C_1  and  C_2
REMARK    2  A    between atoms: C_3  and  C_4
REMARK    3  A    between atoms: C_9  and  N_10
REMARK                            x       y       z     vdW  Elec       q    Type
REMARK                         _______ _______ _______ _____ _____    ______ ____
ROOT
ATOM      1  C   UNL     1       2.112   7.284  19.916  0.00  0.00    +0.000 C 
ATOM      2  O   UNL     1       2.116   6.950  21.104  0.00  0.00    +0.000 OA
ATOM      3  N   UNL     1       1.360   8.411  19.509  0.00  0.00    +0.000 N 
ATOM      4  C   UNL     1       0.659   9.144  20.558  0.00  0.00    +0.000 C 
ATOM      5  C   UNL     1      -0.579   9.856  20.026  0.00  0.00    +0.000 C 
ATOM      6  C   UNL     1      -0.287  10.794  18.834  0.00  0.00    +0.000 C 
ATOM      7  C   UNL     1       0.454   9.945  17.774  0.00  0.00    +0.000 C 
ATOM      8  C   UNL     1       1.679   9.213  18.324  0.00  0.00    +0.000 C 
ENDROOT
BRANCH   1  11
ATOM      9  C   UNL     1       1.506   4.389  18.517  0.00  0.00    +0.000 C 
ATOM     10  C   UNL     1       2.656   5.312  18.314  0.00  0.00    +0.000 A 
ATOM     11  C   UNL     1       2.891   6.540  18.934  0.00  0.00    +0.000 A 
ATOM     12  O   UNL     1       4.018   7.107  18.399  0.00  0.00    +0.000 OA
ATOM     13  C   UNL     1       4.554   6.221  17.518  0.00  0.00    +0.000 A 
ATOM     14  C   UNL     1       5.722   6.392  16.782  0.00  0.00    +0.000 A 
ATOM     15  F   UNL     1       6.459   7.507  16.871  0.00  0.00    +0.000 F 
ATOM     16  C   UNL     1       6.121   5.353  15.943  0.00  0.00    +0.000 A 
ATOM     17  C   UNL     1       5.362   4.184  15.851  0.00  0.00    +0.000 A 
ATOM     18  C   UNL     1       4.179   4.036  16.592  0.00  0.00    +0.000 A 
ATOM     19  C   UNL     1       3.765   5.082  17.443  0.00  0.00    +0.000 A 
ENDBRANCH   1  11
BRANCH   6  20
ATOM     20  N   UNL     1       0.430  12.081  19.119  0.00  0.00    +0.000 NA
ATOM     21  C   UNL     1       1.838  12.062  18.646  0.00  0.00    +0.000 C 
ATOM     22  C   UNL     1       2.648  13.343  18.905  0.00  0.00    +0.000 C 
ATOM     23  S   UNL     1       2.824  13.706  20.670  0.00  0.00    +0.000 S 
ATOM     24  C   UNL     1       1.057  13.641  21.066  0.00  0.00    +0.000 C 
ATOM     25  C   UNL     1       0.413  12.330  20.593  0.00  0.00    +0.000 C 
ENDBRANCH   6  20
TORSDOF 2
ENDMDL
MODEL 9
REMARK VINA RESULT:      -6.0      5.887      8.366
REMARK  Name = 
REMARK  3 active torsions:
REMARK  status: ('A' for Active; 'I' for Inactive)
REMARK    1  A    between atoms: C_1  and  C_2
REMARK    2  A    between atoms: C_3  and  C_4
REMARK    3  A    between atoms: C_9  and  N_10
REMARK                            x       y       z     vdW  Elec       q    Type
REMARK                         _______ _______ _______ _____ _____    ______ ____
ROOT
ATOM      1  C   UNL     1       2.232  14.129  20.774  0.00  0.00    +0.000 C 
ATOM      2  O   UNL     1       2.101  14.291  21.990  0.00  0.00    +0.000 OA
ATOM      3  N   UNL     1       3.354  14.679  20.110  0.00  0.00    +0.000 N 
ATOM      4  C   UNL     1       4.327  15.380  20.942  0.00  0.00    +0.000 C 
ATOM      5  C   UNL     1       5.078  16.450  20.161  0.00  0.00    +0.000 C 
ATOM      6  C   UNL     1       5.765  15.916  18.885  0.00  0.00    +0.000 C 
ATOM      7  C   UNL     1       4.672  15.190  18.064  0.00  0.00    +0.000 C 
ATOM      8  C   UNL     1       3.906  14.136  18.866  0.00  0.00    +0.000 C 
ENDROOT
BRANCH   1  11
ATOM      9  C   UNL     1      -0.319  15.152  18.999  0.00  0.00    +0.000 C 
ATOM     10  C   UNL     1       0.160  13.765  19.248  0.00  0.00    +0.000 A 
ATOM     11  C   UNL     1       1.251  13.359  20.019  0.00  0.00    +0.000 A 
ATOM     12  O   UNL     1       1.396  12.001  19.914  0.00  0.00    +0.000 OA
ATOM     13  C   UNL     1       0.365  11.526  19.167  0.00  0.00    +0.000 A 
ATOM     14  C   UNL     1       0.120  10.194  18.849  0.00  0.00    +0.000 A 
ATOM     15  F   UNL     1       0.925   9.206  19.263  0.00  0.00    +0.000 F 
ATOM     16  C   UNL     1      -1.010   9.904  18.084  0.00  0.00    +0.000 A 
ATOM     17  C   UNL     1      -1.858  10.927  17.656  0.00  0.00    +0.000 A 
ATOM     18  C   UNL     1      -1.586  12.267  17.976  0.00  0.00    +0.000 A 
ATOM     19  C   UNL     1      -0.445  12.571  18.748  0.00  0.00    +0.000 A 
ENDBRANCH   1  11
BRANCH   6  20
ATOM     20  N   UNL     1       6.990  15.067  19.055  0.00  0.00    +0.000 NA
ATOM     21  C   UNL     1       8.187  15.867  19.422  0.00  0.00    +0.000 C 
ATOM     22  C   UNL     1       9.491  15.072  19.609  0.00  0.00    +0.000 C 
ATOM     23  S   UNL     1      10.017  14.237  18.091  0.00  0.00    +0.000 S 
ATOM     24  C   UNL     1       8.453  13.376  17.783  0.00  0.00    +0.000 C 
ATOM     25  C   UNL     1       7.260  14.342  17.776  0.00  0.00    +0.000 C 
ENDBRANCH   6  20
TORSDOF 2
ENDMDL
