MODEL 1
REMARK VINA RESULT:      -8.4      0.000      0.000
REMARK  Name = 
REMARK  9 active torsions:
REMARK  status: ('A' for Active; 'I' for Inactive)
REMARK    1  A    between atoms: S_2  and  C_4
REMARK    2  A    between atoms: S_2  and  N_24
REMARK    3  A    between atoms: C_4  and  C_5
REMARK    4  A    between atoms: C_5  and  N_6
REMARK    5  A    between atoms: C_11  and  C_12
REMARK    6  A    between atoms: N_13  and  O_14
REMARK    7  A    between atoms: N_15  and  C_16
REMARK    8  A    between atoms: N_24  and  C_25
REMARK    9  A    between atoms: C_25  and  C_26
REMARK                            x       y       z     vdW  Elec       q    Type
REMARK                         _______ _______ _______ _____ _____    ______ ____
ROOT
ATOM      1  N   UNL     1       5.714   3.992  18.839  0.00  0.00    +0.000 N 
ATOM      2  C   UNL     1       4.766   3.388  19.611  0.00  0.00    +0.000 A 
ATOM      3  N   UNL     1       5.080   2.319  20.345  0.00  0.00    +0.000 NA
ATOM      4  O   UNL     1       3.962   2.034  21.105  0.00  0.00    +0.000 OA
ATOM      5  N   UNL     1       2.936   2.929  20.846  0.00  0.00    +0.000 NA
ATOM      6  C   UNL     1       3.397   3.712  19.857  0.00  0.00    +0.000 A 
ATOM      7  H   UNL     1       6.601   3.489  18.793  0.00  0.00    +0.000 HD
ENDROOT
BRANCH   6   8
ATOM      8  C   UNL     1       2.555   4.770  19.298  0.00  0.00    +0.000 C 
ATOM      9  N   UNL     1       1.742   4.398  18.355  0.00  0.00    +0.000 NA
ATOM     10  N   UNL     1       2.925   6.023  19.770  0.00  0.00    +0.000 N 
ATOM     11  H   UNL     1       3.777   6.084  20.316  0.00  0.00    +0.000 HD
BRANCH  10  12
ATOM     12  C   UNL     1       2.149   7.202  19.763  0.00  0.00    +0.000 A 
ATOM     13  C   UNL     1       2.167   8.062  18.655  0.00  0.00    +0.000 A 
ATOM     14  C   UNL     1       1.520   9.289  18.692  0.00  0.00    +0.000 A 
ATOM     15  C   UNL     1       0.830   9.670  19.836  0.00  0.00    +0.000 A 
ATOM     16  F   UNL     1       0.239  10.874  19.866  0.00  0.00    +0.000 F 
ATOM     17  C   UNL     1       0.774   8.816  20.938  0.00  0.00    +0.000 A 
ATOM     18 BR   UNL     1      -0.156   9.336  22.500  0.00  0.00    +0.000 Br
ATOM     19  C   UNL     1       1.436   7.583  20.901  0.00  0.00    +0.000 A 
ENDBRANCH  10  12
BRANCH   9  20
ATOM     20  O   UNL     1       1.247   5.485  17.624  0.00  0.00    +0.000 OA
ATOM     21  H   UNL     1       1.399   6.248  18.212  0.00  0.00    +0.000 HD
ENDBRANCH   9  20
ENDBRANCH   6   8
BRANCH   1  22
ATOM     22  C   UNL     1       5.865   5.435  18.578  0.00  0.00    +0.000 C 
BRANCH  22  23
ATOM     23  C   UNL     1       6.041   5.793  17.129  0.00  0.00    +0.000 C 
BRANCH  23  25
ATOM     24  O   UNL     1       7.738   5.604  15.172  0.00  0.00    +0.000 OA
ATOM     25  S   UNL     1       7.235   4.823  16.276  0.00  0.00    +0.000 S 
ATOM     26  O   UNL     1       8.105   4.163  17.222  0.00  0.00    +0.000 OA
BRANCH  25  27
ATOM     27  N   UNL     1       6.169   3.658  15.627  0.00  0.00    +0.000 NA
ATOM     28  H   UNL     1       5.539   3.305  16.345  0.00  0.00    +0.000 HD
BRANCH  27  29
ATOM     29  C   UNL     1       5.413   4.114  14.457  0.00  0.00    +0.000 C 
BRANCH  29  30
ATOM     30  C   UNL     1       5.742   3.217  13.298  0.00  0.00    +0.000 C 
ATOM     31  C   UNL     1       5.154   3.430  11.920  0.00  0.00    +0.000 C 
ATOM     32  C   UNL     1       6.601   3.742  12.174  0.00  0.00    +0.000 C 
ENDBRANCH  29  30
ENDBRANCH  27  29
ENDBRANCH  25  27
ENDBRANCH  23  25
ENDBRANCH  22  23
ENDBRANCH   1  22
TORSDOF 9
ENDMDL
MODEL 2
REMARK VINA RESULT:      -7.9      1.141      1.174
REMARK  Name = 
REMARK  9 active torsions:
REMARK  status: ('A' for Active; 'I' for Inactive)
REMARK    1  A    between atoms: S_2  and  C_4
REMARK    2  A    between atoms: S_2  and  N_24
REMARK    3  A    between atoms: C_4  and  C_5
REMARK    4  A    between atoms: C_5  and  N_6
REMARK    5  A    between atoms: C_11  and  C_12
REMARK    6  A    between atoms: N_13  and  O_14
REMARK    7  A    between atoms: N_15  and  C_16
REMARK    8  A    between atoms: N_24  and  C_25
REMARK    9  A    between atoms: C_25  and  C_26
REMARK                            x       y       z     vdW  Elec       q    Type
REMARK                         _______ _______ _______ _____ _____    ______ ____
ROOT
ATOM      1  N   UNL     1       5.208   3.117  19.242  0.00  0.00    +0.000 N 
ATOM      2  C   UNL     1       4.203   2.949  20.149  0.00  0.00    +0.000 A 
ATOM      3  N   UNL     1       4.314   2.035  21.114  0.00  0.00    +0.000 NA
ATOM      4  O   UNL     1       3.216   2.207  21.933  0.00  0.00    +0.000 OA
ATOM      5  N   UNL     1       2.406   3.235  21.480  0.00  0.00    +0.000 NA
ATOM      6  C   UNL     1       2.963   3.636  20.326  0.00  0.00    +0.000 A 
ATOM      7  H   UNL     1       5.952   2.421  19.308  0.00  0.00    +0.000 HD
ENDROOT
BRANCH   6   8
ATOM      8  C   UNL     1       2.347   4.706  19.540  0.00  0.00    +0.000 C 
ATOM      9  N   UNL     1       1.665   4.316  18.505  0.00  0.00    +0.000 NA
ATOM     10  N   UNL     1       2.772   5.960  19.959  0.00  0.00    +0.000 N 
ATOM     11  H   UNL     1       3.523   5.997  20.639  0.00  0.00    +0.000 HD
BRANCH  10  12
ATOM     12  C   UNL     1       2.143   7.200  19.715  0.00  0.00    +0.000 A 
ATOM     13  C   UNL     1       2.358   7.884  18.510  0.00  0.00    +0.000 A 
ATOM     14  C   UNL     1       1.858   9.164  18.316  0.00  0.00    +0.000 A 
ATOM     15  C   UNL     1       1.122   9.777  19.323  0.00  0.00    +0.000 A 
ATOM     16  F   UNL     1       0.677  11.027  19.130  0.00  0.00    +0.000 F 
ATOM     17  C   UNL     1       0.872   9.102  20.517  0.00  0.00    +0.000 A 
ATOM     18 BR   UNL     1      -0.122   9.937  21.892  0.00  0.00    +0.000 Br
ATOM     19  C   UNL     1       1.385   7.814  20.714  0.00  0.00    +0.000 A 
ENDBRANCH  10  12
BRANCH   9  20
ATOM     20  O   UNL     1       1.421   5.364  17.608  0.00  0.00    +0.000 OA
ATOM     21  H   UNL     1       0.711   5.876  18.037  0.00  0.00    +0.000 HD
ENDBRANCH   9  20
ENDBRANCH   6   8
BRANCH   1  22
ATOM     22  C   UNL     1       5.665   4.383  18.641  0.00  0.00    +0.000 C 
BRANCH  22  23
ATOM     23  C   UNL     1       5.446   4.484  17.157  0.00  0.00    +0.000 C 
BRANCH  23  25
ATOM     24  O   UNL     1       5.124   7.037  16.809  0.00  0.00    +0.000 OA
ATOM     25  S   UNL     1       6.028   5.977  16.433  0.00  0.00    +0.000 S 
ATOM     26  O   UNL     1       7.459   6.082  16.594  0.00  0.00    +0.000 OA
BRANCH  25  27
ATOM     27  N   UNL     1       5.700   5.589  14.803  0.00  0.00    +0.000 NA
ATOM     28  H   UNL     1       5.493   6.431  14.267  0.00  0.00    +0.000 HD
BRANCH  27  29
ATOM     29  C   UNL     1       6.748   4.804  14.144  0.00  0.00    +0.000 C 
BRANCH  29  30
ATOM     30  C   UNL     1       6.117   3.586  13.533  0.00  0.00    +0.000 C 
ATOM     31  C   UNL     1       5.075   3.679  12.439  0.00  0.00    +0.000 C 
ATOM     32  C   UNL     1       6.463   3.204  12.115  0.00  0.00    +0.000 C 
ENDBRANCH  29  30
ENDBRANCH  27  29
ENDBRANCH  25  27
ENDBRANCH  23  25
ENDBRANCH  22  23
ENDBRANCH   1  22
TORSDOF 9
ENDMDL
MODEL 3
REMARK VINA RESULT:      -7.6      4.200      7.497
REMARK  Name = 
REMARK  9 active torsions:
REMARK  status: ('A' for Active; 'I' for Inactive)
REMARK    1  A    between atoms: S_2  and  C_4
REMARK    2  A    between atoms: S_2  and  N_24
REMARK    3  A    between atoms: C_4  and  C_5
REMARK    4  A    between atoms: C_5  and  N_6
REMARK    5  A    between atoms: C_11  and  C_12
REMARK    6  A    between atoms: N_13  and  O_14
REMARK    7  A    between atoms: N_15  and  C_16
REMARK    8  A    between atoms: N_24  and  C_25
REMARK    9  A    between atoms: C_25  and  C_26
REMARK                            x       y       z     vdW  Elec       q    Type
REMARK                         _______ _______ _______ _____ _____    ______ ____
ROOT
ATOM      1  N   UNL     1       5.171   4.125  19.200  0.00  0.00    +0.000 N 
ATOM      2  C   UNL     1       6.261   4.945  19.175  0.00  0.00    +0.000 A 
ATOM      3  N   UNL     1       6.974   5.149  20.284  0.00  0.00    +0.000 NA
ATOM      4  O   UNL     1       8.069   5.899  19.903  0.00  0.00    +0.000 OA
ATOM      5  N   UNL     1       8.045   6.171  18.545  0.00  0.00    +0.000 NA
ATOM      6  C   UNL     1       6.883   5.662  18.107  0.00  0.00    +0.000 A 
ATOM      7  H   UNL     1       4.908   3.807  20.133  0.00  0.00    +0.000 HD
ENDROOT
BRANCH   6   8
ATOM      8  C   UNL     1       6.501   5.793  16.700  0.00  0.00    +0.000 C 
ATOM      9  N   UNL     1       5.727   6.799  16.424  0.00  0.00    +0.000 NA
ATOM     10  N   UNL     1       6.902   4.692  15.955  0.00  0.00    +0.000 N 
ATOM     11  H   UNL     1       7.278   3.897  16.460  0.00  0.00    +0.000 HD
BRANCH  10  12
ATOM     12  C   UNL     1       7.050   4.617  14.553  0.00  0.00    +0.000 A 
ATOM     13  C   UNL     1       7.950   5.460  13.885  0.00  0.00    +0.000 A 
ATOM     14  C   UNL     1       8.002   5.492  12.498  0.00  0.00    +0.000 A 
ATOM     15  C   UNL     1       7.163   4.670  11.757  0.00  0.00    +0.000 A 
ATOM     16  F   UNL     1       7.205   4.739  10.418  0.00  0.00    +0.000 F 
ATOM     17  C   UNL     1       6.283   3.802  12.403  0.00  0.00    +0.000 A 
ATOM     18 BR   UNL     1       5.134   2.687  11.397  0.00  0.00    +0.000 Br
ATOM     19  C   UNL     1       6.225   3.778  13.802  0.00  0.00    +0.000 A 
ENDBRANCH  10  12
BRANCH   9  20
ATOM     20  O   UNL     1       5.110   6.663  15.174  0.00  0.00    +0.000 OA
ATOM     21  H   UNL     1       5.168   5.707  14.989  0.00  0.00    +0.000 HD
ENDBRANCH   9  20
ENDBRANCH   6   8
BRANCH   1  22
ATOM     22  C   UNL     1       4.721   3.208  18.138  0.00  0.00    +0.000 C 
BRANCH  22  23
ATOM     23  C   UNL     1       3.617   3.749  17.272  0.00  0.00    +0.000 C 
BRANCH  23  25
ATOM     24  O   UNL     1       1.182   4.646  17.390  0.00  0.00    +0.000 OA
ATOM     25  S   UNL     1       2.419   4.709  18.130  0.00  0.00    +0.000 S 
ATOM     26  O   UNL     1       2.490   4.440  19.548  0.00  0.00    +0.000 OA
BRANCH  25  27
ATOM     27  N   UNL     1       3.102   6.247  17.842  0.00  0.00    +0.000 NA
ATOM     28  H   UNL     1       3.083   6.469  16.849  0.00  0.00    +0.000 HD
BRANCH  27  29
ATOM     29  C   UNL     1       2.503   7.332  18.625  0.00  0.00    +0.000 C 
BRANCH  29  30
ATOM     30  C   UNL     1       2.123   8.442  17.686  0.00  0.00    +0.000 C 
ATOM     31  C   UNL     1       0.830   9.215  17.831  0.00  0.00    +0.000 C 
ATOM     32  C   UNL     1       2.137   9.868  18.179  0.00  0.00    +0.000 C 
ENDBRANCH  29  30
ENDBRANCH  27  29
ENDBRANCH  25  27
ENDBRANCH  23  25
ENDBRANCH  22  23
ENDBRANCH   1  22
TORSDOF 9
ENDMDL
MODEL 4
REMARK VINA RESULT:      -7.5      4.351      6.699
REMARK  Name = 
REMARK  9 active torsions:
REMARK  status: ('A' for Active; 'I' for Inactive)
REMARK    1  A    between atoms: S_2  and  C_4
REMARK    2  A    between atoms: S_2  and  N_24
REMARK    3  A    between atoms: C_4  and  C_5
REMARK    4  A    between atoms: C_5  and  N_6
REMARK    5  A    between atoms: C_11  and  C_12
REMARK    6  A    between atoms: N_13  and  O_14
REMARK    7  A    between atoms: N_15  and  C_16
REMARK    8  A    between atoms: N_24  and  C_25
REMARK    9  A    between atoms: C_25  and  C_26
REMARK                            x       y       z     vdW  Elec       q    Type
REMARK                         _______ _______ _______ _____ _____    ______ ____
ROOT
ATOM      1  N   UNL     1       1.742   7.917  19.732  0.00  0.00    +0.000 N 
ATOM      2  C   UNL     1       1.351   8.821  20.676  0.00  0.00    +0.000 A 
ATOM      3  N   UNL     1       1.721   8.665  21.948  0.00  0.00    +0.000 NA
ATOM      4  O   UNL     1       1.291   9.797  22.613  0.00  0.00    +0.000 OA
ATOM      5  N   UNL     1       0.645  10.671  21.753  0.00  0.00    +0.000 NA
ATOM      6  C   UNL     1       0.598  10.031  20.574  0.00  0.00    +0.000 A 
ATOM      7  H   UNL     1       2.214   7.094  20.109  0.00  0.00    +0.000 HD
ENDROOT
BRANCH   6   8
ATOM      8  C   UNL     1      -0.052  10.652  19.420  0.00  0.00    +0.000 C 
ATOM      9  N   UNL     1       0.649  11.559  18.806  0.00  0.00    +0.000 NA
ATOM     10  N   UNL     1      -1.383  10.273  19.314  0.00  0.00    +0.000 N 
ATOM     11  H   UNL     1      -1.780   9.740  20.080  0.00  0.00    +0.000 HD
BRANCH  10  12
ATOM     12  C   UNL     1      -2.206  10.353  18.171  0.00  0.00    +0.000 A 
ATOM     13  C   UNL     1      -1.809   9.762  16.962  0.00  0.00    +0.000 A 
ATOM     14  C   UNL     1      -2.542   9.954  15.799  0.00  0.00    +0.000 A 
ATOM     15  C   UNL     1      -3.694  10.729  15.829  0.00  0.00    +0.000 A 
ATOM     16  F   UNL     1      -4.370  10.930  14.688  0.00  0.00    +0.000 F 
ATOM     17  C   UNL     1      -4.123  11.301  17.027  0.00  0.00    +0.000 A 
ATOM     18 BR   UNL     1      -5.685  12.364  17.070  0.00  0.00    +0.000 Br
ATOM     19  C   UNL     1      -3.377  11.114  18.197  0.00  0.00    +0.000 A 
ENDBRANCH  10  12
BRANCH   9  20
ATOM     20  O   UNL     1      -0.139  12.358  17.969  0.00  0.00    +0.000 OA
ATOM     21  H   UNL     1      -0.499  11.727  17.318  0.00  0.00    +0.000 HD
ENDBRANCH   9  20
ENDBRANCH   6   8
BRANCH   1  22
ATOM     22  C   UNL     1       2.113   8.193  18.332  0.00  0.00    +0.000 C 
BRANCH  22  23
ATOM     23  C   UNL     1       3.374   7.514  17.875  0.00  0.00    +0.000 C 
BRANCH  23  25
ATOM     24  O   UNL     1       1.921   5.365  17.745  0.00  0.00    +0.000 OA
ATOM     25  S   UNL     1       3.303   5.757  17.884  0.00  0.00    +0.000 S 
ATOM     26  O   UNL     1       4.351   5.213  17.052  0.00  0.00    +0.000 OA
BRANCH  25  27
ATOM     27  N   UNL     1       3.735   5.513  19.517  0.00  0.00    +0.000 NA
ATOM     28  H   UNL     1       3.282   6.201  20.117  0.00  0.00    +0.000 HD
BRANCH  27  29
ATOM     29  C   UNL     1       3.489   4.157  20.014  0.00  0.00    +0.000 C 
BRANCH  29  30
ATOM     30  C   UNL     1       2.299   4.193  20.929  0.00  0.00    +0.000 C 
ATOM     31  C   UNL     1       0.993   3.510  20.582  0.00  0.00    +0.000 C 
ATOM     32  C   UNL     1       1.880   2.936  21.650  0.00  0.00    +0.000 C 
ENDBRANCH  29  30
ENDBRANCH  27  29
ENDBRANCH  25  27
ENDBRANCH  23  25
ENDBRANCH  22  23
ENDBRANCH   1  22
TORSDOF 9
ENDMDL
MODEL 5
REMARK VINA RESULT:      -7.4      1.907      2.827
REMARK  Name = 
REMARK  9 active torsions:
REMARK  status: ('A' for Active; 'I' for Inactive)
REMARK    1  A    between atoms: S_2  and  C_4
REMARK    2  A    between atoms: S_2  and  N_24
REMARK    3  A    between atoms: C_4  and  C_5
REMARK    4  A    between atoms: C_5  and  N_6
REMARK    5  A    between atoms: C_11  and  C_12
REMARK    6  A    between atoms: N_13  and  O_14
REMARK    7  A    between atoms: N_15  and  C_16
REMARK    8  A    between atoms: N_24  and  C_25
REMARK    9  A    between atoms: C_25  and  C_26
REMARK                            x       y       z     vdW  Elec       q    Type
REMARK                         _______ _______ _______ _____ _____    ______ ____
ROOT
ATOM      1  N   UNL     1       4.769   2.821  19.175  0.00  0.00    +0.000 N 
ATOM      2  C   UNL     1       3.856   2.914  20.184  0.00  0.00    +0.000 A 
ATOM      3  N   UNL     1       3.918   2.083  21.225  0.00  0.00    +0.000 NA
ATOM      4  O   UNL     1       2.960   2.518  22.120  0.00  0.00    +0.000 OA
ATOM      5  N   UNL     1       2.288   3.629  21.638  0.00  0.00    +0.000 NA
ATOM      6  C   UNL     1       2.775   3.822  20.402  0.00  0.00    +0.000 A 
ATOM      7  H   UNL     1       5.389   2.014  19.244  0.00  0.00    +0.000 HD
ENDROOT
BRANCH   6   8
ATOM      8  C   UNL     1       2.264   4.911  19.568  0.00  0.00    +0.000 C 
ATOM      9  N   UNL     1       1.727   4.547  18.442  0.00  0.00    +0.000 NA
ATOM     10  N   UNL     1       2.623   6.155  20.071  0.00  0.00    +0.000 N 
ATOM     11  H   UNL     1       3.277   6.176  20.845  0.00  0.00    +0.000 HD
BRANCH  10  12
ATOM     12  C   UNL     1       2.027   7.400  19.777  0.00  0.00    +0.000 A 
ATOM     13  C   UNL     1       2.249   8.024  18.540  0.00  0.00    +0.000 A 
ATOM     14  C   UNL     1       1.783   9.307  18.294  0.00  0.00    +0.000 A 
ATOM     15  C   UNL     1       1.073   9.985  19.278  0.00  0.00    +0.000 A 
ATOM     16  F   UNL     1       0.660  11.237  19.033  0.00  0.00    +0.000 F 
ATOM     17  C   UNL     1       0.816   9.371  20.503  0.00  0.00    +0.000 A 
ATOM     18 BR   UNL     1      -0.142  10.292  21.847  0.00  0.00    +0.000 Br
ATOM     19  C   UNL     1       1.295   8.079  20.753  0.00  0.00    +0.000 A 
ENDBRANCH  10  12
BRANCH   9  20
ATOM     20  O   UNL     1       1.599   5.617  17.547  0.00  0.00    +0.000 OA
ATOM     21  H   UNL     1       1.764   5.210  16.676  0.00  0.00    +0.000 HD
ENDBRANCH   9  20
ENDBRANCH   6   8
BRANCH   1  22
ATOM     22  C   UNL     1       5.362   3.929  18.404  0.00  0.00    +0.000 C 
BRANCH  22  23
ATOM     23  C   UNL     1       5.158   3.835  16.918  0.00  0.00    +0.000 C 
BRANCH  23  25
ATOM     24  O   UNL     1       7.730   4.159  16.769  0.00  0.00    +0.000 OA
ATOM     25  S   UNL     1       6.549   4.319  15.956  0.00  0.00    +0.000 S 
ATOM     26  O   UNL     1       6.443   3.775  14.623  0.00  0.00    +0.000 OA
BRANCH  25  27
ATOM     27  N   UNL     1       6.210   5.991  15.880  0.00  0.00    +0.000 NA
ATOM     28  H   UNL     1       5.422   6.227  16.480  0.00  0.00    +0.000 HD
BRANCH  27  29
ATOM     29  C   UNL     1       7.357   6.855  16.172  0.00  0.00    +0.000 C 
BRANCH  29  30
ATOM     30  C   UNL     1       7.176   7.439  17.544  0.00  0.00    +0.000 C 
ATOM     31  C   UNL     1       8.243   7.338  18.612  0.00  0.00    +0.000 C 
ATOM     32  C   UNL     1       7.974   8.656  17.944  0.00  0.00    +0.000 C 
ENDBRANCH  29  30
ENDBRANCH  27  29
ENDBRANCH  25  27
ENDBRANCH  23  25
ENDBRANCH  22  23
ENDBRANCH   1  22
TORSDOF 9
ENDMDL
MODEL 6
REMARK VINA RESULT:      -7.4      1.472      1.790
REMARK  Name = 
REMARK  9 active torsions:
REMARK  status: ('A' for Active; 'I' for Inactive)
REMARK    1  A    between atoms: S_2  and  C_4
REMARK    2  A    between atoms: S_2  and  N_24
REMARK    3  A    between atoms: C_4  and  C_5
REMARK    4  A    between atoms: C_5  and  N_6
REMARK    5  A    between atoms: C_11  and  C_12
REMARK    6  A    between atoms: N_13  and  O_14
REMARK    7  A    between atoms: N_15  and  C_16
REMARK    8  A    between atoms: N_24  and  C_25
REMARK    9  A    between atoms: C_25  and  C_26
REMARK                            x       y       z     vdW  Elec       q    Type
REMARK                         _______ _______ _______ _____ _____    ______ ____
ROOT
ATOM      1  N   UNL     1       4.588   3.231  18.965  0.00  0.00    +0.000 N 
ATOM      2  C   UNL     1       3.705   3.213  20.005  0.00  0.00    +0.000 A 
ATOM      3  N   UNL     1       3.722   2.208  20.883  0.00  0.00    +0.000 NA
ATOM      4  O   UNL     1       2.820   2.549  21.872  0.00  0.00    +0.000 OA
ATOM      5  N   UNL     1       2.229   3.775  21.614  0.00  0.00    +0.000 NA
ATOM      6  C   UNL     1       2.704   4.147  20.415  0.00  0.00    +0.000 A 
ATOM      7  H   UNL     1       5.142   2.380  18.871  0.00  0.00    +0.000 HD
ENDROOT
BRANCH   6   8
ATOM      8  C   UNL     1       2.266   5.401  19.801  0.00  0.00    +0.000 C 
ATOM      9  N   UNL     1       2.117   5.369  18.511  0.00  0.00    +0.000 NA
ATOM     10  N   UNL     1       2.268   6.448  20.714  0.00  0.00    +0.000 N 
ATOM     11  H   UNL     1       2.678   6.273  21.625  0.00  0.00    +0.000 HD
BRANCH  10  12
ATOM     12  C   UNL     1       1.578   7.674  20.610  0.00  0.00    +0.000 A 
ATOM     13  C   UNL     1       0.439   7.921  21.389  0.00  0.00    +0.000 A 
ATOM     14  C   UNL     1      -0.326   9.062  21.195  0.00  0.00    +0.000 A 
ATOM     15  C   UNL     1       0.045   9.985  20.225  0.00  0.00    +0.000 A 
ATOM     16  F   UNL     1      -0.725  11.065  20.030  0.00  0.00    +0.000 F 
ATOM     17  C   UNL     1       1.192   9.773  19.460  0.00  0.00    +0.000 A 
ATOM     18 BR   UNL     1       1.695  11.022  18.133  0.00  0.00    +0.000 Br
ATOM     19  C   UNL     1       1.957   8.616  19.651  0.00  0.00    +0.000 A 
ENDBRANCH  10  12
BRANCH   9  20
ATOM     20  O   UNL     1       2.062   6.652  17.953  0.00  0.00    +0.000 OA
ATOM     21  H   UNL     1       1.691   6.503  17.063  0.00  0.00    +0.000 HD
ENDBRANCH   9  20
ENDBRANCH   6   8
BRANCH   1  22
ATOM     22  C   UNL     1       5.251   4.410  18.380  0.00  0.00    +0.000 C 
BRANCH  22  23
ATOM     23  C   UNL     1       5.392   4.368  16.883  0.00  0.00    +0.000 C 
BRANCH  23  25
ATOM     24  O   UNL     1       6.648   6.628  16.644  0.00  0.00    +0.000 OA
ATOM     25  S   UNL     1       6.780   5.246  16.255  0.00  0.00    +0.000 S 
ATOM     26  O   UNL     1       7.989   4.487  16.479  0.00  0.00    +0.000 OA
BRANCH  25  27
ATOM     27  N   UNL     1       6.387   5.148  14.596  0.00  0.00    +0.000 NA
ATOM     28  H   UNL     1       7.162   5.476  14.022  0.00  0.00    +0.000 HD
BRANCH  27  29
ATOM     29  C   UNL     1       5.945   3.823  14.155  0.00  0.00    +0.000 C 
BRANCH  29  30
ATOM     30  C   UNL     1       5.999   3.777  12.655  0.00  0.00    +0.000 C 
ATOM     31  C   UNL     1       5.941   2.476  11.884  0.00  0.00    +0.000 C 
ATOM     32  C   UNL     1       4.760   3.404  11.879  0.00  0.00    +0.000 C 
ENDBRANCH  29  30
ENDBRANCH  27  29
ENDBRANCH  25  27
ENDBRANCH  23  25
ENDBRANCH  22  23
ENDBRANCH   1  22
TORSDOF 9
ENDMDL
MODEL 7
REMARK VINA RESULT:      -7.4      1.250      1.402
REMARK  Name = 
REMARK  9 active torsions:
REMARK  status: ('A' for Active; 'I' for Inactive)
REMARK    1  A    between atoms: S_2  and  C_4
REMARK    2  A    between atoms: S_2  and  N_24
REMARK    3  A    between atoms: C_4  and  C_5
REMARK    4  A    between atoms: C_5  and  N_6
REMARK    5  A    between atoms: C_11  and  C_12
REMARK    6  A    between atoms: N_13  and  O_14
REMARK    7  A    between atoms: N_15  and  C_16
REMARK    8  A    between atoms: N_24  and  C_25
REMARK    9  A    between atoms: C_25  and  C_26
REMARK                            x       y       z     vdW  Elec       q    Type
REMARK                         _______ _______ _______ _____ _____    ______ ____
ROOT
ATOM      1  N   UNL     1       5.886   3.981  18.709  0.00  0.00    +0.000 N 
ATOM      2  C   UNL     1       4.757   3.637  19.392  0.00  0.00    +0.000 A 
ATOM      3  N   UNL     1       4.693   2.474  20.042  0.00  0.00    +0.000 NA
ATOM      4  O   UNL     1       3.497   2.486  20.733  0.00  0.00    +0.000 OA
ATOM      5  N   UNL     1       2.802   3.665  20.516  0.00  0.00    +0.000 NA
ATOM      6  C   UNL     1       3.533   4.340  19.615  0.00  0.00    +0.000 A 
ATOM      7  H   UNL     1       6.584   3.239  18.653  0.00  0.00    +0.000 HD
ENDROOT
BRANCH   6   8
ATOM      8  C   UNL     1       3.079   5.641  19.120  0.00  0.00    +0.000 C 
ATOM      9  N   UNL     1       3.245   5.841  17.847  0.00  0.00    +0.000 NA
ATOM     10  N   UNL     1       2.720   6.489  20.159  0.00  0.00    +0.000 N 
ATOM     11  H   UNL     1       2.924   6.184  21.104  0.00  0.00    +0.000 HD
BRANCH  10  12
ATOM     12  C   UNL     1       1.909   7.641  20.079  0.00  0.00    +0.000 A 
ATOM     13  C   UNL     1       1.840   8.385  18.892  0.00  0.00    +0.000 A 
ATOM     14  C   UNL     1       1.157   9.593  18.845  0.00  0.00    +0.000 A 
ATOM     15  C   UNL     1       0.520  10.070  19.983  0.00  0.00    +0.000 A 
ATOM     16  F   UNL     1      -0.106  11.254  19.927  0.00  0.00    +0.000 F 
ATOM     17  C   UNL     1       0.551   9.330  21.166  0.00  0.00    +0.000 A 
ATOM     18 BR   UNL     1      -0.309   9.981  22.719  0.00  0.00    +0.000 Br
ATOM     19  C   UNL     1       1.248   8.117  21.214  0.00  0.00    +0.000 A 
ENDBRANCH  10  12
BRANCH   9  20
ATOM     20  O   UNL     1       3.143   7.196  17.507  0.00  0.00    +0.000 OA
ATOM     21  H   UNL     1       4.026   7.554  17.713  0.00  0.00    +0.000 HD
ENDBRANCH   9  20
ENDBRANCH   6   8
BRANCH   1  22
ATOM     22  C   UNL     1       6.475   5.326  18.580  0.00  0.00    +0.000 C 
BRANCH  22  23
ATOM     23  C   UNL     1       7.213   5.564  17.292  0.00  0.00    +0.000 C 
BRANCH  23  25
ATOM     24  O   UNL     1       5.580   4.076  15.926  0.00  0.00    +0.000 OA
ATOM     25  S   UNL     1       6.239   5.357  15.842  0.00  0.00    +0.000 S 
ATOM     26  O   UNL     1       5.527   6.578  15.544  0.00  0.00    +0.000 OA
BRANCH  25  27
ATOM     27  N   UNL     1       7.517   5.195  14.722  0.00  0.00    +0.000 NA
ATOM     28  H   UNL     1       8.148   4.446  15.001  0.00  0.00    +0.000 HD
BRANCH  27  29
ATOM     29  C   UNL     1       7.087   5.017  13.333  0.00  0.00    +0.000 C 
BRANCH  29  30
ATOM     30  C   UNL     1       6.309   3.735  13.237  0.00  0.00    +0.000 C 
ATOM     31  C   UNL     1       5.108   3.587  12.329  0.00  0.00    +0.000 C 
ATOM     32  C   UNL     1       6.400   2.905  11.980  0.00  0.00    +0.000 C 
ENDBRANCH  29  30
ENDBRANCH  27  29
ENDBRANCH  25  27
ENDBRANCH  23  25
ENDBRANCH  22  23
ENDBRANCH   1  22
TORSDOF 9
ENDMDL
MODEL 8
REMARK VINA RESULT:      -7.3      1.352      1.646
REMARK  Name = 
REMARK  9 active torsions:
REMARK  status: ('A' for Active; 'I' for Inactive)
REMARK    1  A    between atoms: S_2  and  C_4
REMARK    2  A    between atoms: S_2  and  N_24
REMARK    3  A    between atoms: C_4  and  C_5
REMARK    4  A    between atoms: C_5  and  N_6
REMARK    5  A    between atoms: C_11  and  C_12
REMARK    6  A    between atoms: N_13  and  O_14
REMARK    7  A    between atoms: N_15  and  C_16
REMARK    8  A    between atoms: N_24  and  C_25
REMARK    9  A    between atoms: C_25  and  C_26
REMARK                            x       y       z     vdW  Elec       q    Type
REMARK                         _______ _______ _______ _____ _____    ______ ____
ROOT
ATOM      1  N   UNL     1       4.811   2.704  18.930  0.00  0.00    +0.000 N 
ATOM      2  C   UNL     1       3.968   2.803  19.998  0.00  0.00    +0.000 A 
ATOM      3  N   UNL     1       4.136   2.015  21.062  0.00  0.00    +0.000 NA
ATOM      4  O   UNL     1       3.227   2.450  22.006  0.00  0.00    +0.000 OA
ATOM      5  N   UNL     1       2.480   3.516  21.534  0.00  0.00    +0.000 NA
ATOM      6  C   UNL     1       2.870   3.679  20.260  0.00  0.00    +0.000 A 
ATOM      7  H   UNL     1       5.466   1.923  18.984  0.00  0.00    +0.000 HD
ENDROOT
BRANCH   6   8
ATOM      8  C   UNL     1       2.260   4.715  19.426  0.00  0.00    +0.000 C 
ATOM      9  N   UNL     1       1.473   4.284  18.487  0.00  0.00    +0.000 NA
ATOM     10  N   UNL     1       2.795   5.969  19.692  0.00  0.00    +0.000 N 
ATOM     11  H   UNL     1       3.600   6.014  20.307  0.00  0.00    +0.000 HD
BRANCH  10  12
ATOM     12  C   UNL     1       2.227   7.223  19.381  0.00  0.00    +0.000 A 
ATOM     13  C   UNL     1       2.543   7.872  18.179  0.00  0.00    +0.000 A 
ATOM     14  C   UNL     1       2.102   9.163  17.926  0.00  0.00    +0.000 A 
ATOM     15  C   UNL     1       1.323   9.823  18.868  0.00  0.00    +0.000 A 
ATOM     16  F   UNL     1       0.934  11.082  18.621  0.00  0.00    +0.000 F 
ATOM     17  C   UNL     1       0.972   9.184  20.058  0.00  0.00    +0.000 A 
ATOM     18 BR   UNL     1      -0.081  10.082  21.346  0.00  0.00    +0.000 Br
ATOM     19  C   UNL     1       1.426   7.885  20.315  0.00  0.00    +0.000 A 
ENDBRANCH  10  12
BRANCH   9  20
ATOM     20  O   UNL     1       1.222   5.262  17.516  0.00  0.00    +0.000 OA
ATOM     21  H   UNL     1       0.778   4.770  16.800  0.00  0.00    +0.000 HD
ENDBRANCH   9  20
ENDBRANCH   6   8
BRANCH   1  22
ATOM     22  C   UNL     1       5.305   3.801  18.079  0.00  0.00    +0.000 C 
BRANCH  22  23
ATOM     23  C   UNL     1       5.979   4.917  18.828  0.00  0.00    +0.000 C 
BRANCH  23  25
ATOM     24  O   UNL     1       8.194   6.226  19.185  0.00  0.00    +0.000 OA
ATOM     25  S   UNL     1       7.578   5.339  18.229  0.00  0.00    +0.000 S 
ATOM     26  O   UNL     1       8.243   4.162  17.720  0.00  0.00    +0.000 OA
BRANCH  25  27
ATOM     27  N   UNL     1       7.085   6.292  16.900  0.00  0.00    +0.000 NA
ATOM     28  H   UNL     1       7.893   6.642  16.388  0.00  0.00    +0.000 HD
BRANCH  27  29
ATOM     29  C   UNL     1       6.148   5.626  15.991  0.00  0.00    +0.000 C 
BRANCH  29  30
ATOM     30  C   UNL     1       6.924   4.691  15.109  0.00  0.00    +0.000 C 
ATOM     31  C   UNL     1       6.253   3.817  14.071  0.00  0.00    +0.000 C 
ATOM     32  C   UNL     1       7.066   5.004  13.639  0.00  0.00    +0.000 C 
ENDBRANCH  29  30
ENDBRANCH  27  29
ENDBRANCH  25  27
ENDBRANCH  23  25
ENDBRANCH  22  23
ENDBRANCH   1  22
TORSDOF 9
ENDMDL
MODEL 9
REMARK VINA RESULT:      -7.2      1.392      1.559
REMARK  Name = 
REMARK  9 active torsions:
REMARK  status: ('A' for Active; 'I' for Inactive)
REMARK    1  A    between atoms: S_2  and  C_4
REMARK    2  A    between atoms: S_2  and  N_24
REMARK    3  A    between atoms: C_4  and  C_5
REMARK    4  A    between atoms: C_5  and  N_6
REMARK    5  A    between atoms: C_11  and  C_12
REMARK    6  A    between atoms: N_13  and  O_14
REMARK    7  A    between atoms: N_15  and  C_16
REMARK    8  A    between atoms: N_24  and  C_25
REMARK    9  A    between atoms: C_25  and  C_26
REMARK                            x       y       z     vdW  Elec       q    Type
REMARK                         _______ _______ _______ _____ _____    ______ ____
ROOT
ATOM      1  N   UNL     1       4.878   2.806  18.510  0.00  0.00    +0.000 N 
ATOM      2  C   UNL     1       4.147   2.792  19.662  0.00  0.00    +0.000 A 
ATOM      3  N   UNL     1       4.443   1.929  20.635  0.00  0.00    +0.000 NA
ATOM      4  O   UNL     1       3.625   2.257  21.699  0.00  0.00    +0.000 OA
ATOM      5  N   UNL     1       2.807   3.332  21.393  0.00  0.00    +0.000 NA
ATOM      6  C   UNL     1       3.060   3.608  20.104  0.00  0.00    +0.000 A 
ATOM      7  H   UNL     1       5.554   2.045  18.434  0.00  0.00    +0.000 HD
ENDROOT
BRANCH   6   8
ATOM      8  C   UNL     1       2.342   4.686  19.423  0.00  0.00    +0.000 C 
ATOM      9  N   UNL     1       1.530   4.308  18.482  0.00  0.00    +0.000 NA
ATOM     10  N   UNL     1       2.813   5.936  19.802  0.00  0.00    +0.000 N 
ATOM     11  H   UNL     1       3.648   5.967  20.376  0.00  0.00    +0.000 HD
BRANCH  10  12
ATOM     12  C   UNL     1       2.153   7.176  19.662  0.00  0.00    +0.000 A 
ATOM     13  C   UNL     1       2.301   7.936  18.493  0.00  0.00    +0.000 A 
ATOM     14  C   UNL     1       1.772   9.215  18.401  0.00  0.00    +0.000 A 
ATOM     15  C   UNL     1       1.072   9.751  19.474  0.00  0.00    +0.000 A 
ATOM     16  F   UNL     1       0.596  11.001  19.379  0.00  0.00    +0.000 F 
ATOM     17  C   UNL     1       0.887   9.000  20.635  0.00  0.00    +0.000 A 
ATOM     18 BR   UNL     1      -0.058   9.729  22.101  0.00  0.00    +0.000 Br
ATOM     19  C   UNL     1       1.430   7.713  20.729  0.00  0.00    +0.000 A 
ENDBRANCH  10  12
BRANCH   9  20
ATOM     20  O   UNL     1       1.165   5.367  17.641  0.00  0.00    +0.000 OA
ATOM     21  H   UNL     1       1.601   6.142  18.042  0.00  0.00    +0.000 HD
ENDBRANCH   9  20
ENDBRANCH   6   8
BRANCH   1  22
ATOM     22  C   UNL     1       5.254   3.983  17.707  0.00  0.00    +0.000 C 
BRANCH  22  23
ATOM     23  C   UNL     1       6.649   4.488  17.953  0.00  0.00    +0.000 C 
BRANCH  23  25
ATOM     24  O   UNL     1       5.528   6.825  17.790  0.00  0.00    +0.000 OA
ATOM     25  S   UNL     1       6.841   6.226  17.770  0.00  0.00    +0.000 S 
ATOM     26  O   UNL     1       7.923   6.697  18.603  0.00  0.00    +0.000 OA
BRANCH  25  27
ATOM     27  N   UNL     1       7.374   6.233  16.148  0.00  0.00    +0.000 NA
ATOM     28  H   UNL     1       8.250   6.744  16.058  0.00  0.00    +0.000 HD
BRANCH  27  29
ATOM     29  C   UNL     1       7.489   4.903  15.542  0.00  0.00    +0.000 C 
BRANCH  29  30
ATOM     30  C   UNL     1       6.733   4.904  14.244  0.00  0.00    +0.000 C 
ATOM     31  C   UNL     1       6.274   3.626  13.577  0.00  0.00    +0.000 C 
ATOM     32  C   UNL     1       5.271   4.528  14.237  0.00  0.00    +0.000 C 
ENDBRANCH  29  30
ENDBRANCH  27  29
ENDBRANCH  25  27
ENDBRANCH  23  25
ENDBRANCH  22  23
ENDBRANCH   1  22
TORSDOF 9
ENDMDL
