MODEL 1
REMARK VINA RESULT:      -7.0      0.000      0.000
REMARK  Name = 
REMARK  4 active torsions:
REMARK  status: ('A' for Active; 'I' for Inactive)
REMARK    1  A    between atoms: N_7  and  C_8
REMARK    2  A    between atoms: C_8  and  C_9
REMARK    3  A    between atoms: C_9  and  N_10
REMARK    4  A    between atoms: N_10  and  C_11
REMARK                            x       y       z     vdW  Elec       q    Type
REMARK                         _______ _______ _______ _____ _____    ______ ____
ROOT
ATOM      1  N   UNL     1       2.018   6.122  21.105  0.00  0.00    +0.000 N 
ATOM      2  H   UNL     1       2.037   5.802  22.076  0.00  0.00    +0.000 HD
ENDROOT
BRANCH   1   3
ATOM      3  C   UNL     1       1.944   5.008  20.230  0.00  0.00    +0.000 A 
ATOM      4  C   UNL     1       0.970   4.017  20.395  0.00  0.00    +0.000 A 
ATOM      5  C   UNL     1       0.900   2.968  19.499  0.00  0.00    +0.000 A 
ATOM      6  N   UNL     1       1.706   2.842  18.433  0.00  0.00    +0.000 NA
ATOM      7  C   UNL     1       2.626   3.793  18.226  0.00  0.00    +0.000 A 
ATOM      8  C   UNL     1       3.409   3.659  17.094  0.00  0.00    +0.000 A 
ATOM      9  C   UNL     1       4.387   4.595  16.778  0.00  0.00    +0.000 A 
ATOM     10 CL   UNL     1       5.322   4.401  15.347  0.00  0.00    +0.000 Cl
ATOM     11  C   UNL     1       4.599   5.687  17.607  0.00  0.00    +0.000 A 
ATOM     12  C   UNL     1       3.815   5.844  18.755  0.00  0.00    +0.000 A 
ATOM     13  C   UNL     1       2.805   4.906  19.092  0.00  0.00    +0.000 A 
ENDBRANCH   1   3
BRANCH   1  14
ATOM     14  C   UNL     1       1.107   7.256  20.877  0.00  0.00    +0.000 C 
BRANCH  14  15
ATOM     15  C   UNL     1       1.615   8.566  21.501  0.00  0.00    +0.000 C 
BRANCH  15  22
ATOM     16  O   UNL     1       0.338   9.642  23.762  0.00  0.00    +0.000 OA
ATOM     17  C   UNL     1       0.027  10.058  22.650  0.00  0.00    +0.000 C 
ATOM     18  C   UNL     1      -1.040  11.100  22.445  0.00  0.00    +0.000 C 
ATOM     19  S   UNL     1      -0.984  11.527  20.699  0.00  0.00    +0.000 S 
ATOM     20  C   UNL     1       0.232  10.322  20.326  0.00  0.00    +0.000 C 
ATOM     21  S   UNL     1       0.811  10.116  18.776  0.00  0.00    +0.000 S 
ATOM     22  N   UNL     1       0.601   9.637  21.463  0.00  0.00    +0.000 N 
ENDBRANCH  15  22
ENDBRANCH  14  15
ENDBRANCH   1  14
TORSDOF 4
ENDMDL
MODEL 2
REMARK VINA RESULT:      -6.9      4.478      7.581
REMARK  Name = 
REMARK  4 active torsions:
REMARK  status: ('A' for Active; 'I' for Inactive)
REMARK    1  A    between atoms: N_7  and  C_8
REMARK    2  A    between atoms: C_8  and  C_9
REMARK    3  A    between atoms: C_9  and  N_10
REMARK    4  A    between atoms: N_10  and  C_11
REMARK                            x       y       z     vdW  Elec       q    Type
REMARK                         _______ _______ _______ _____ _____    ______ ____
ROOT
ATOM      1  N   UNL     1       2.559   6.968  19.898  0.00  0.00    +0.000 N 
ATOM      2  H   UNL     1       2.890   7.036  20.862  0.00  0.00    +0.000 HD
ENDROOT
BRANCH   1   3
ATOM      3  C   UNL     1       1.903   8.170  19.526  0.00  0.00    +0.000 A 
ATOM      4  C   UNL     1       1.925   8.633  18.205  0.00  0.00    +0.000 A 
ATOM      5  C   UNL     1       1.242   9.785  17.870  0.00  0.00    +0.000 A 
ATOM      6  N   UNL     1       0.511  10.499  18.741  0.00  0.00    +0.000 NA
ATOM      7  C   UNL     1       0.439  10.064  20.005  0.00  0.00    +0.000 A 
ATOM      8  C   UNL     1      -0.359  10.795  20.866  0.00  0.00    +0.000 A 
ATOM      9  C   UNL     1      -0.513  10.424  22.197  0.00  0.00    +0.000 A 
ATOM     10 CL   UNL     1      -1.534  11.351  23.227  0.00  0.00    +0.000 Cl
ATOM     11  C   UNL     1       0.146   9.307  22.689  0.00  0.00    +0.000 A 
ATOM     12  C   UNL     1       0.954   8.551  21.834  0.00  0.00    +0.000 A 
ATOM     13  C   UNL     1       1.119   8.905  20.469  0.00  0.00    +0.000 A 
ENDBRANCH   1   3
BRANCH   1  14
ATOM     14  C   UNL     1       3.552   6.395  18.973  0.00  0.00    +0.000 C 
BRANCH  14  15
ATOM     15  C   UNL     1       4.147   5.072  19.481  0.00  0.00    +0.000 C 
BRANCH  15  22
ATOM     16  O   UNL     1       4.388   3.735  17.020  0.00  0.00    +0.000 OA
ATOM     17  C   UNL     1       3.542   3.354  17.823  0.00  0.00    +0.000 C 
ATOM     18  C   UNL     1       2.599   2.217  17.528  0.00  0.00    +0.000 C 
ATOM     19  S   UNL     1       1.710   1.902  19.058  0.00  0.00    +0.000 S 
ATOM     20  C   UNL     1       2.450   3.250  19.899  0.00  0.00    +0.000 C 
ATOM     21  S   UNL     1       2.068   3.607  21.483  0.00  0.00    +0.000 S 
ATOM     22  N   UNL     1       3.343   3.903  19.078  0.00  0.00    +0.000 N 
ENDBRANCH  15  22
ENDBRANCH  14  15
ENDBRANCH   1  14
TORSDOF 4
ENDMDL
MODEL 3
REMARK VINA RESULT:      -6.9      1.211      1.349
REMARK  Name = 
REMARK  4 active torsions:
REMARK  status: ('A' for Active; 'I' for Inactive)
REMARK    1  A    between atoms: N_7  and  C_8
REMARK    2  A    between atoms: C_8  and  C_9
REMARK    3  A    between atoms: C_9  and  N_10
REMARK    4  A    between atoms: N_10  and  C_11
REMARK                            x       y       z     vdW  Elec       q    Type
REMARK                         _______ _______ _______ _____ _____    ______ ____
ROOT
ATOM      1  N   UNL     1       1.878   7.727  19.751  0.00  0.00    +0.000 N 
ATOM      2  H   UNL     1       2.472   8.316  19.164  0.00  0.00    +0.000 HD
ENDROOT
BRANCH   1   3
ATOM      3  C   UNL     1       2.354   6.391  19.734  0.00  0.00    +0.000 A 
ATOM      4  C   UNL     1       1.873   5.435  20.637  0.00  0.00    +0.000 A 
ATOM      5  C   UNL     1       2.327   4.133  20.564  0.00  0.00    +0.000 A 
ATOM      6  N   UNL     1       3.201   3.698  19.643  0.00  0.00    +0.000 NA
ATOM      7  C   UNL     1       3.653   4.578  18.741  0.00  0.00    +0.000 A 
ATOM      8  C   UNL     1       4.515   4.088  17.777  0.00  0.00    +0.000 A 
ATOM      9  C   UNL     1       5.035   4.914  16.787  0.00  0.00    +0.000 A 
ATOM     10 CL   UNL     1       6.087   4.256  15.594  0.00  0.00    +0.000 Cl
ATOM     11  C   UNL     1       4.698   6.259  16.755  0.00  0.00    +0.000 A 
ATOM     12  C   UNL     1       3.823   6.774  17.718  0.00  0.00    +0.000 A 
ATOM     13  C   UNL     1       3.274   5.948  18.732  0.00  0.00    +0.000 A 
ENDBRANCH   1   3
BRANCH   1  14
ATOM     14  C   UNL     1       1.546   8.337  21.050  0.00  0.00    +0.000 C 
BRANCH  14  15
ATOM     15  C   UNL     1       0.033   8.512  21.259  0.00  0.00    +0.000 C 
BRANCH  15  22
ATOM     16  O   UNL     1      -0.002   9.952  23.672  0.00  0.00    +0.000 OA
ATOM     17  C   UNL     1      -0.359  10.513  22.640  0.00  0.00    +0.000 C 
ATOM     18  C   UNL     1      -0.850  11.936  22.621  0.00  0.00    +0.000 C 
ATOM     19  S   UNL     1      -1.048  12.366  20.887  0.00  0.00    +0.000 S 
ATOM     20  C   UNL     1      -0.648  10.756  20.323  0.00  0.00    +0.000 C 
ATOM     21  S   UNL     1      -0.637  10.376  18.699  0.00  0.00    +0.000 S 
ATOM     22  N   UNL     1      -0.358   9.928  21.385  0.00  0.00    +0.000 N 
ENDBRANCH  15  22
ENDBRANCH  14  15
ENDBRANCH   1  14
TORSDOF 4
ENDMDL
MODEL 4
REMARK VINA RESULT:      -6.9      4.487      7.373
REMARK  Name = 
REMARK  4 active torsions:
REMARK  status: ('A' for Active; 'I' for Inactive)
REMARK    1  A    between atoms: N_7  and  C_8
REMARK    2  A    between atoms: C_8  and  C_9
REMARK    3  A    between atoms: C_9  and  N_10
REMARK    4  A    between atoms: N_10  and  C_11
REMARK                            x       y       z     vdW  Elec       q    Type
REMARK                         _______ _______ _______ _____ _____    ______ ____
ROOT
ATOM      1  N   UNL     1       2.792   6.807  20.153  0.00  0.00    +0.000 N 
ATOM      2  H   UNL     1       3.769   6.864  19.857  0.00  0.00    +0.000 HD
ENDROOT
BRANCH   1   3
ATOM      3  C   UNL     1       2.067   7.913  19.640  0.00  0.00    +0.000 A 
ATOM      4  C   UNL     1       2.050   8.200  18.270  0.00  0.00    +0.000 A 
ATOM      5  C   UNL     1       1.299   9.260  17.800  0.00  0.00    +0.000 A 
ATOM      6  N   UNL     1       0.539  10.040  18.584  0.00  0.00    +0.000 NA
ATOM      7  C   UNL     1       0.504   9.770  19.895  0.00  0.00    +0.000 A 
ATOM      8  C   UNL     1      -0.326  10.563  20.667  0.00  0.00    +0.000 A 
ATOM      9  C   UNL     1      -0.445  10.361  22.038  0.00  0.00    +0.000 A 
ATOM     10 CL   UNL     1      -1.506  11.357  22.956  0.00  0.00    +0.000 Cl
ATOM     11  C   UNL     1       0.280   9.354  22.659  0.00  0.00    +0.000 A 
ATOM     12  C   UNL     1       1.121   8.539  21.895  0.00  0.00    +0.000 A 
ATOM     13  C   UNL     1       1.252   8.720  20.494  0.00  0.00    +0.000 A 
ENDBRANCH   1   3
BRANCH   1  14
ATOM     14  C   UNL     1       2.212   5.461  20.012  0.00  0.00    +0.000 C 
BRANCH  14  15
ATOM     15  C   UNL     1       3.273   4.348  20.032  0.00  0.00    +0.000 C 
BRANCH  15  22
ATOM     16  O   UNL     1       5.802   5.545  19.767  0.00  0.00    +0.000 OA
ATOM     17  C   UNL     1       5.308   4.980  18.796  0.00  0.00    +0.000 C 
ATOM     18  C   UNL     1       5.987   4.933  17.454  0.00  0.00    +0.000 C 
ATOM     19  S   UNL     1       4.993   3.836  16.434  0.00  0.00    +0.000 S 
ATOM     20  C   UNL     1       3.763   3.622  17.664  0.00  0.00    +0.000 C 
ATOM     21  S   UNL     1       2.422   2.665  17.401  0.00  0.00    +0.000 S 
ATOM     22  N   UNL     1       4.088   4.325  18.803  0.00  0.00    +0.000 N 
ENDBRANCH  15  22
ENDBRANCH  14  15
ENDBRANCH   1  14
TORSDOF 4
ENDMDL
MODEL 5
REMARK VINA RESULT:      -6.8      4.300      7.318
REMARK  Name = 
REMARK  4 active torsions:
REMARK  status: ('A' for Active; 'I' for Inactive)
REMARK    1  A    between atoms: N_7  and  C_8
REMARK    2  A    between atoms: C_8  and  C_9
REMARK    3  A    between atoms: C_9  and  N_10
REMARK    4  A    between atoms: N_10  and  C_11
REMARK                            x       y       z     vdW  Elec       q    Type
REMARK                         _______ _______ _______ _____ _____    ______ ____
ROOT
ATOM      1  N   UNL     1       2.180   6.726  20.841  0.00  0.00    +0.000 N 
ATOM      2  H   UNL     1       3.196   6.621  20.881  0.00  0.00    +0.000 HD
ENDROOT
BRANCH   1   3
ATOM      3  C   UNL     1       1.841   7.837  20.027  0.00  0.00    +0.000 A 
ATOM      4  C   UNL     1       2.227   7.900  18.683  0.00  0.00    +0.000 A 
ATOM      5  C   UNL     1       1.844   8.977  17.909  0.00  0.00    +0.000 A 
ATOM      6  N   UNL     1       1.079   9.985  18.358  0.00  0.00    +0.000 NA
ATOM      7  C   UNL     1       0.662   9.938  19.630  0.00  0.00    +0.000 A 
ATOM      8  C   UNL     1      -0.162  10.967  20.048  0.00  0.00    +0.000 A 
ATOM      9  C   UNL     1      -0.661  11.009  21.345  0.00  0.00    +0.000 A 
ATOM     10 CL   UNL     1      -1.701  12.296  21.816  0.00  0.00    +0.000 Cl
ATOM     11  C   UNL     1      -0.329  10.012  22.251  0.00  0.00    +0.000 A 
ATOM     12  C   UNL     1       0.499   8.960  21.847  0.00  0.00    +0.000 A 
ATOM     13  C   UNL     1       1.012   8.891  20.526  0.00  0.00    +0.000 A 
ENDBRANCH   1   3
BRANCH   1  14
ATOM     14  C   UNL     1       1.465   5.456  20.629  0.00  0.00    +0.000 C 
BRANCH  14  15
ATOM     15  C   UNL     1       2.379   4.227  20.761  0.00  0.00    +0.000 C 
BRANCH  15  22
ATOM     16  O   UNL     1       0.879   2.419  19.216  0.00  0.00    +0.000 OA
ATOM     17  C   UNL     1       1.976   2.785  18.805  0.00  0.00    +0.000 C 
ATOM     18  C   UNL     1       2.568   2.276  17.518  0.00  0.00    +0.000 C 
ATOM     19  S   UNL     1       4.058   3.243  17.242  0.00  0.00    +0.000 S 
ATOM     20  C   UNL     1       3.922   4.098  18.767  0.00  0.00    +0.000 C 
ATOM     21  S   UNL     1       5.047   5.238  19.232  0.00  0.00    +0.000 S 
ATOM     22  N   UNL     1       2.797   3.694  19.450  0.00  0.00    +0.000 N 
ENDBRANCH  15  22
ENDBRANCH  14  15
ENDBRANCH   1  14
TORSDOF 4
ENDMDL
MODEL 6
REMARK VINA RESULT:      -6.8      1.569      2.010
REMARK  Name = 
REMARK  4 active torsions:
REMARK  status: ('A' for Active; 'I' for Inactive)
REMARK    1  A    between atoms: N_7  and  C_8
REMARK    2  A    between atoms: C_8  and  C_9
REMARK    3  A    between atoms: C_9  and  N_10
REMARK    4  A    between atoms: N_10  and  C_11
REMARK                            x       y       z     vdW  Elec       q    Type
REMARK                         _______ _______ _______ _____ _____    ______ ____
ROOT
ATOM      1  N   UNL     1       1.943   5.787  20.999  0.00  0.00    +0.000 N 
ATOM      2  H   UNL     1       1.936   5.380  21.937  0.00  0.00    +0.000 HD
ENDROOT
BRANCH   1   3
ATOM      3  C   UNL     1       1.913   4.758  20.024  0.00  0.00    +0.000 A 
ATOM      4  C   UNL     1       0.927   3.765  20.043  0.00  0.00    +0.000 A 
ATOM      5  C   UNL     1       0.903   2.802  19.054  0.00  0.00    +0.000 A 
ATOM      6  N   UNL     1       1.766   2.766  18.027  0.00  0.00    +0.000 NA
ATOM      7  C   UNL     1       2.701   3.723  17.958  0.00  0.00    +0.000 A 
ATOM      8  C   UNL     1       3.545   3.685  16.863  0.00  0.00    +0.000 A 
ATOM      9  C   UNL     1       4.542   4.637  16.688  0.00  0.00    +0.000 A 
ATOM     10 CL   UNL     1       5.555   4.565  15.298  0.00  0.00    +0.000 Cl
ATOM     11  C   UNL     1       4.712   5.648  17.624  0.00  0.00    +0.000 A 
ATOM     12  C   UNL     1       3.866   5.707  18.736  0.00  0.00    +0.000 A 
ATOM     13  C   UNL     1       2.836   4.751  18.930  0.00  0.00    +0.000 A 
ENDBRANCH   1   3
BRANCH   1  14
ATOM     14  C   UNL     1       1.023   6.927  20.847  0.00  0.00    +0.000 C 
BRANCH  14  15
ATOM     15  C   UNL     1       1.753   8.276  20.746  0.00  0.00    +0.000 C 
BRANCH  15  22
ATOM     16  O   UNL     1       1.464   9.144  18.088  0.00  0.00    +0.000 OA
ATOM     17  C   UNL     1       0.833   9.716  18.972  0.00  0.00    +0.000 C 
ATOM     18  C   UNL     1      -0.065  10.892  18.695  0.00  0.00    +0.000 C 
ATOM     19  S   UNL     1      -0.915  11.241  20.240  0.00  0.00    +0.000 S 
ATOM     20  C   UNL     1      -0.025  10.026  21.136  0.00  0.00    +0.000 C 
ATOM     21  S   UNL     1      -0.295   9.767  22.761  0.00  0.00    +0.000 S 
ATOM     22  N   UNL     1       0.861   9.367  20.312  0.00  0.00    +0.000 N 
ENDBRANCH  15  22
ENDBRANCH  14  15
ENDBRANCH   1  14
TORSDOF 4
ENDMDL
MODEL 7
REMARK VINA RESULT:      -6.8      4.501      7.773
REMARK  Name = 
REMARK  4 active torsions:
REMARK  status: ('A' for Active; 'I' for Inactive)
REMARK    1  A    between atoms: N_7  and  C_8
REMARK    2  A    between atoms: C_8  and  C_9
REMARK    3  A    between atoms: C_9  and  N_10
REMARK    4  A    between atoms: N_10  and  C_11
REMARK                            x       y       z     vdW  Elec       q    Type
REMARK                         _______ _______ _______ _____ _____    ______ ____
ROOT
ATOM      1  N   UNL     1       1.884   7.599  20.839  0.00  0.00    +0.000 N 
ATOM      2  H   UNL     1       2.623   7.852  21.499  0.00  0.00    +0.000 HD
ENDROOT
BRANCH   1   3
ATOM      3  C   UNL     1       1.289   8.772  20.308  0.00  0.00    +0.000 A 
ATOM      4  C   UNL     1       1.444   9.120  18.961  0.00  0.00    +0.000 A 
ATOM      5  C   UNL     1       0.816  10.247  18.467  0.00  0.00    +0.000 A 
ATOM      6  N   UNL     1       0.019  11.039  19.201  0.00  0.00    +0.000 NA
ATOM      7  C   UNL     1      -0.181  10.713  20.484  0.00  0.00    +0.000 A 
ATOM      8  C   UNL     1      -1.044  11.522  21.200  0.00  0.00    +0.000 A 
ATOM      9  C   UNL     1      -1.330  11.267  22.537  0.00  0.00    +0.000 A 
ATOM     10 CL   UNL     1      -2.428  12.287  23.383  0.00  0.00    +0.000 Cl
ATOM     11  C   UNL     1      -0.741  10.188  23.181  0.00  0.00    +0.000 A 
ATOM     12  C   UNL     1       0.131   9.355  22.474  0.00  0.00    +0.000 A 
ATOM     13  C   UNL     1       0.431   9.591  21.107  0.00  0.00    +0.000 A 
ENDBRANCH   1   3
BRANCH   1  14
ATOM     14  C   UNL     1       2.268   6.523  19.910  0.00  0.00    +0.000 C 
BRANCH  14  15
ATOM     15  C   UNL     1       2.586   5.200  20.625  0.00  0.00    +0.000 C 
BRANCH  15  22
ATOM     16  O   UNL     1       0.486   3.473  19.913  0.00  0.00    +0.000 OA
ATOM     17  C   UNL     1       1.603   3.276  19.443  0.00  0.00    +0.000 C 
ATOM     18  C   UNL     1       1.903   2.121  18.525  0.00  0.00    +0.000 C 
ATOM     19  S   UNL     1       3.586   2.375  17.945  0.00  0.00    +0.000 S 
ATOM     20  C   UNL     1       3.843   3.783  18.957  0.00  0.00    +0.000 C 
ATOM     21  S   UNL     1       5.294   4.605  18.955  0.00  0.00    +0.000 S 
ATOM     22  N   UNL     1       2.711   4.069  19.687  0.00  0.00    +0.000 N 
ENDBRANCH  15  22
ENDBRANCH  14  15
ENDBRANCH   1  14
TORSDOF 4
ENDMDL
MODEL 8
REMARK VINA RESULT:      -6.7      3.268      5.170
REMARK  Name = 
REMARK  4 active torsions:
REMARK  status: ('A' for Active; 'I' for Inactive)
REMARK    1  A    between atoms: N_7  and  C_8
REMARK    2  A    between atoms: C_8  and  C_9
REMARK    3  A    between atoms: C_9  and  N_10
REMARK    4  A    between atoms: N_10  and  C_11
REMARK                            x       y       z     vdW  Elec       q    Type
REMARK                         _______ _______ _______ _____ _____    ______ ____
ROOT
ATOM      1  N   UNL     1       5.428   3.374  18.658  0.00  0.00    +0.000 N 
ATOM      2  H   UNL     1       5.221   2.626  17.993  0.00  0.00    +0.000 HD
ENDROOT
BRANCH   1   3
ATOM      3  C   UNL     1       6.121   4.425  18.004  0.00  0.00    +0.000 A 
ATOM      4  C   UNL     1       6.737   5.452  18.728  0.00  0.00    +0.000 A 
ATOM      5  C   UNL     1       7.438   6.437  18.061  0.00  0.00    +0.000 A 
ATOM      6  N   UNL     1       7.600   6.464  16.728  0.00  0.00    +0.000 NA
ATOM      7  C   UNL     1       7.054   5.477  16.008  0.00  0.00    +0.000 A 
ATOM      8  C   UNL     1       7.279   5.509  14.644  0.00  0.00    +0.000 A 
ATOM      9  C   UNL     1       6.767   4.525  13.805  0.00  0.00    +0.000 A 
ATOM     10 CL   UNL     1       7.091   4.592  12.117  0.00  0.00    +0.000 Cl
ATOM     11  C   UNL     1       6.008   3.489  14.330  0.00  0.00    +0.000 A 
ATOM     12  C   UNL     1       5.772   3.436  15.707  0.00  0.00    +0.000 A 
ATOM     13  C   UNL     1       6.293   4.423  16.584  0.00  0.00    +0.000 A 
ENDBRANCH   1   3
BRANCH   1  14
ATOM     14  C   UNL     1       4.293   3.717  19.531  0.00  0.00    +0.000 C 
BRANCH  14  15
ATOM     15  C   UNL     1       3.076   4.241  18.750  0.00  0.00    +0.000 C 
BRANCH  15  22
ATOM     16  O   UNL     1       1.607   4.346  21.144  0.00  0.00    +0.000 OA
ATOM     17  C   UNL     1       1.787   5.382  20.512  0.00  0.00    +0.000 C 
ATOM     18  C   UNL     1       1.220   6.706  20.949  0.00  0.00    +0.000 C 
ATOM     19  S   UNL     1       1.920   7.935  19.838  0.00  0.00    +0.000 S 
ATOM     20  C   UNL     1       2.739   6.741  18.850  0.00  0.00    +0.000 C 
ATOM     21  S   UNL     1       3.649   7.181  17.524  0.00  0.00    +0.000 S 
ATOM     22  N   UNL     1       2.518   5.473  19.339  0.00  0.00    +0.000 N 
ENDBRANCH  15  22
ENDBRANCH  14  15
ENDBRANCH   1  14
TORSDOF 4
ENDMDL
MODEL 9
REMARK VINA RESULT:      -6.7      1.847      2.312
REMARK  Name = 
REMARK  4 active torsions:
REMARK  status: ('A' for Active; 'I' for Inactive)
REMARK    1  A    between atoms: N_7  and  C_8
REMARK    2  A    between atoms: C_8  and  C_9
REMARK    3  A    between atoms: C_9  and  N_10
REMARK    4  A    between atoms: N_10  and  C_11
REMARK                            x       y       z     vdW  Elec       q    Type
REMARK                         _______ _______ _______ _____ _____    ______ ____
ROOT
ATOM      1  N   UNL     1       2.032   7.776  19.860  0.00  0.00    +0.000 N 
ATOM      2  H   UNL     1       2.836   8.339  19.577  0.00  0.00    +0.000 HD
ENDROOT
BRANCH   1   3
ATOM      3  C   UNL     1       2.357   6.397  19.786  0.00  0.00    +0.000 A 
ATOM      4  C   UNL     1       1.791   5.468  20.667  0.00  0.00    +0.000 A 
ATOM      5  C   UNL     1       2.097   4.128  20.540  0.00  0.00    +0.000 A 
ATOM      6  N   UNL     1       2.900   3.633  19.584  0.00  0.00    +0.000 NA
ATOM      7  C   UNL     1       3.429   4.491  18.702  0.00  0.00    +0.000 A 
ATOM      8  C   UNL     1       4.214   3.945  17.703  0.00  0.00    +0.000 A 
ATOM      9  C   UNL     1       4.802   4.744  16.730  0.00  0.00    +0.000 A 
ATOM     10 CL   UNL     1       5.752   4.019  15.491  0.00  0.00    +0.000 Cl
ATOM     11  C   UNL     1       4.614   6.119  16.751  0.00  0.00    +0.000 A 
ATOM     12  C   UNL     1       3.821   6.691  17.751  0.00  0.00    +0.000 A 
ATOM     13  C   UNL     1       3.203   5.894  18.749  0.00  0.00    +0.000 A 
ENDBRANCH   1   3
BRANCH   1  14
ATOM     14  C   UNL     1       1.362   8.276  21.073  0.00  0.00    +0.000 C 
BRANCH  14  15
ATOM     15  C   UNL     1      -0.076   8.750  20.809  0.00  0.00    +0.000 C 
BRANCH  15  22
ATOM     16  O   UNL     1       0.370   9.820  18.249  0.00  0.00    +0.000 OA
ATOM     17  C   UNL     1       0.127  10.584  19.178  0.00  0.00    +0.000 C 
ATOM     18  C   UNL     1       0.094  12.080  19.009  0.00  0.00    +0.000 C 
ATOM     19  S   UNL     1      -0.501  12.741  20.571  0.00  0.00    +0.000 S 
ATOM     20  C   UNL     1      -0.539  11.172  21.351  0.00  0.00    +0.000 C 
ATOM     21  S   UNL     1      -1.017  10.998  22.940  0.00  0.00    +0.000 S 
ATOM     22  N   UNL     1      -0.142  10.186  20.476  0.00  0.00    +0.000 N 
ENDBRANCH  15  22
ENDBRANCH  14  15
ENDBRANCH   1  14
TORSDOF 4
ENDMDL
