MODEL 1
REMARK VINA RESULT:      -7.0      0.000      0.000
REMARK  Name = 
REMARK  5 active torsions:
REMARK  status: ('A' for Active; 'I' for Inactive)
REMARK    1  A    between atoms: C_1  and  C_2
REMARK    2  A    between atoms: C_2  and  C_3
REMARK    3  A    between atoms: C_2  and  C_4
REMARK    4  A    between atoms: C_4  and  N_5
REMARK    5  A    between atoms: C_4  and  C_6
REMARK                            x       y       z     vdW  Elec       q    Type
REMARK                         _______ _______ _______ _____ _____    ______ ____
ROOT
ATOM      1  C   UNL     1       0.670  10.393  20.067  0.00  0.00    +0.000 C 
ATOM      2  O   UNL     1       0.003  10.571  21.089  0.00  0.00    +0.000 OA
ATOM      3  N   UNL     1       1.397   9.223  19.860  0.00  0.00    +0.000 N 
ATOM      4  C   UNL     1       1.210   8.075  20.756  0.00  0.00    +0.000 C 
ATOM      5  C   UNL     1       0.927   6.805  19.934  0.00  0.00    +0.000 C 
ATOM      6  C   UNL     1       2.063   6.555  18.938  0.00  0.00    +0.000 C 
ATOM      7  C   UNL     1       2.848   5.441  18.881  0.00  0.00    +0.000 C 
ATOM      8  C   UNL     1       3.913   5.362  17.843  0.00  0.00    +0.000 A 
ATOM      9  C   UNL     1       5.049   6.181  17.910  0.00  0.00    +0.000 A 
ATOM     10  C   UNL     1       6.047   6.085  16.936  0.00  0.00    +0.000 A 
ATOM     11  C   UNL     1       5.927   5.151  15.910  0.00  0.00    +0.000 A 
ATOM     12 CL   UNL     1       7.166   5.012  14.726  0.00  0.00    +0.000 Cl
ATOM     13  C   UNL     1       4.811   4.315  15.844  0.00  0.00    +0.000 A 
ATOM     14  C   UNL     1       3.798   4.416  16.810  0.00  0.00    +0.000 A 
ATOM     15  C   UNL     1       2.624   3.471  16.790  0.00  0.00    +0.000 C 
ATOM     16  C   UNL     1       2.728   2.458  17.933  0.00  0.00    +0.000 C 
ATOM     17  C   UNL     1       2.574   2.946  19.358  0.00  0.00    +0.000 A 
ATOM     18  C   UNL     1       2.402   1.949  20.337  0.00  0.00    +0.000 A 
ATOM     19  C   UNL     1       2.275   2.287  21.678  0.00  0.00    +0.000 A 
ATOM     20  C   UNL     1       2.350   3.620  22.015  0.00  0.00    +0.000 A 
ATOM     21  N   UNL     1       2.546   4.607  21.117  0.00  0.00    +0.000 NA
ATOM     22  C   UNL     1       2.633   4.278  19.799  0.00  0.00    +0.000 A 
ATOM     23  C   UNL     1       2.190   7.773  18.021  0.00  0.00    +0.000 C 
ATOM     24  C   UNL     1       2.452   9.037  18.855  0.00  0.00    +0.000 C 
ENDROOT
BRANCH   1  25
ATOM     25  C   UNL     1       0.706  11.467  18.939  0.00  0.00    +0.000 C 
BRANCH  25  27
ATOM     26  C   UNL     1      -1.256  10.221  17.879  0.00  0.00    +0.000 C 
ATOM     27  C   UNL     1      -0.654  11.598  18.200  0.00  0.00    +0.000 C 
ATOM     28  C   UNL     1      -1.682  12.370  19.040  0.00  0.00    +0.000 C 
ENDBRANCH  25  27
BRANCH  25  29
ATOM     29  N   UNL     1       1.121  12.755  19.541  0.00  0.00    +0.000 NA
ATOM     30  H   UNL     1       0.971  13.490  18.845  0.00  0.00    +0.000 HD
ATOM     31  H   UNL     1       2.122  12.743  19.720  0.00  0.00    +0.000 HD
ENDBRANCH  25  29
ENDBRANCH   1  25
TORSDOF 3
ENDMDL
MODEL 2
REMARK VINA RESULT:      -6.4      5.613      8.920
REMARK  Name = 
REMARK  5 active torsions:
REMARK  status: ('A' for Active; 'I' for Inactive)
REMARK    1  A    between atoms: C_1  and  C_2
REMARK    2  A    between atoms: C_2  and  C_3
REMARK    3  A    between atoms: C_2  and  C_4
REMARK    4  A    between atoms: C_4  and  N_5
REMARK    5  A    between atoms: C_4  and  C_6
REMARK                            x       y       z     vdW  Elec       q    Type
REMARK                         _______ _______ _______ _____ _____    ______ ____
ROOT
ATOM      1  C   UNL     1       2.476  15.709  17.847  0.00  0.00    +0.000 C 
ATOM      2  O   UNL     1       3.568  15.412  17.357  0.00  0.00    +0.000 OA
ATOM      3  N   UNL     1       1.629  14.746  18.391  0.00  0.00    +0.000 N 
ATOM      4  C   UNL     1       2.114  13.376  18.596  0.00  0.00    +0.000 C 
ATOM      5  C   UNL     1       1.838  12.929  20.043  0.00  0.00    +0.000 C 
ATOM      6  C   UNL     1       0.344  13.045  20.357  0.00  0.00    +0.000 C 
ATOM      7  C   UNL     1      -0.475  12.023  20.743  0.00  0.00    +0.000 C 
ATOM      8  C   UNL     1      -1.910  12.313  21.009  0.00  0.00    +0.000 A 
ATOM      9  C   UNL     1      -2.786  12.645  19.965  0.00  0.00    +0.000 A 
ATOM     10  C   UNL     1      -4.135  12.900  20.229  0.00  0.00    +0.000 A 
ATOM     11  C   UNL     1      -4.618  12.796  21.532  0.00  0.00    +0.000 A 
ATOM     12 CL   UNL     1      -6.282  13.082  21.855  0.00  0.00    +0.000 Cl
ATOM     13  C   UNL     1      -3.761  12.445  22.576  0.00  0.00    +0.000 A 
ATOM     14  C   UNL     1      -2.403  12.202  22.321  0.00  0.00    +0.000 A 
ATOM     15  C   UNL     1      -1.483  11.754  23.428  0.00  0.00    +0.000 C 
ATOM     16  C   UNL     1      -1.119  10.277  23.262  0.00  0.00    +0.000 C 
ATOM     17  C   UNL     1      -0.248   9.866  22.093  0.00  0.00    +0.000 A 
ATOM     18  C   UNL     1       0.279   8.562  22.143  0.00  0.00    +0.000 A 
ATOM     19  C   UNL     1       1.071   8.077  21.112  0.00  0.00    +0.000 A 
ATOM     20  C   UNL     1       1.299   8.903  20.033  0.00  0.00    +0.000 A 
ATOM     21  N   UNL     1       0.790  10.148  19.926  0.00  0.00    +0.000 NA
ATOM     22  C   UNL     1       0.044  10.635  20.955  0.00  0.00    +0.000 A 
ATOM     23  C   UNL     1      -0.092  14.496  20.148  0.00  0.00    +0.000 C 
ATOM     24  C   UNL     1       0.207  14.936  18.707  0.00  0.00    +0.000 C 
ENDROOT
BRANCH   1  25
ATOM     25  C   UNL     1       2.003  17.193  17.906  0.00  0.00    +0.000 C 
BRANCH  25  27
ATOM     26  C   UNL     1       1.104  18.309  20.020  0.00  0.00    +0.000 C 
ATOM     27  C   UNL     1       2.364  17.879  19.251  0.00  0.00    +0.000 C 
ATOM     28  C   UNL     1       3.169  16.943  20.165  0.00  0.00    +0.000 C 
ENDBRANCH  25  27
BRANCH  25  29
ATOM     29  N   UNL     1       2.597  17.912  16.755  0.00  0.00    +0.000 NA
ATOM     30  H   UNL     1       2.673  18.900  17.008  0.00  0.00    +0.000 HD
ATOM     31  H   UNL     1       1.961  17.876  15.963  0.00  0.00    +0.000 HD
ENDBRANCH  25  29
ENDBRANCH   1  25
TORSDOF 3
ENDMDL
MODEL 3
REMARK VINA RESULT:      -6.2      3.528      7.934
REMARK  Name = 
REMARK  5 active torsions:
REMARK  status: ('A' for Active; 'I' for Inactive)
REMARK    1  A    between atoms: C_1  and  C_2
REMARK    2  A    between atoms: C_2  and  C_3
REMARK    3  A    between atoms: C_2  and  C_4
REMARK    4  A    between atoms: C_4  and  N_5
REMARK    5  A    between atoms: C_4  and  C_6
REMARK                            x       y       z     vdW  Elec       q    Type
REMARK                         _______ _______ _______ _____ _____    ______ ____
ROOT
ATOM      1  C   UNL     1       3.556   5.986  18.894  0.00  0.00    +0.000 C 
ATOM      2  O   UNL     1       4.126   5.515  19.881  0.00  0.00    +0.000 OA
ATOM      3  N   UNL     1       2.463   6.841  19.017  0.00  0.00    +0.000 N 
ATOM      4  C   UNL     1       2.099   7.380  20.333  0.00  0.00    +0.000 C 
ATOM      5  C   UNL     1       1.960   8.911  20.256  0.00  0.00    +0.000 C 
ATOM      6  C   UNL     1       0.929   9.296  19.191  0.00  0.00    +0.000 C 
ATOM      7  C   UNL     1      -0.213  10.013  19.403  0.00  0.00    +0.000 C 
ATOM      8  C   UNL     1      -1.109  10.299  18.249  0.00  0.00    +0.000 A 
ATOM      9  C   UNL     1      -1.845   9.275  17.635  0.00  0.00    +0.000 A 
ATOM     10  C   UNL     1      -2.692   9.562  16.561  0.00  0.00    +0.000 A 
ATOM     11  C   UNL     1      -2.830  10.875  16.117  0.00  0.00    +0.000 A 
ATOM     12 CL   UNL     1      -3.893  11.234  14.815  0.00  0.00    +0.000 Cl
ATOM     13  C   UNL     1      -2.119  11.906  16.734  0.00  0.00    +0.000 A 
ATOM     14  C   UNL     1      -1.255  11.624  17.803  0.00  0.00    +0.000 A 
ATOM     15  C   UNL     1      -0.537  12.737  18.523  0.00  0.00    +0.000 C 
ATOM     16  C   UNL     1      -1.143  12.960  19.910  0.00  0.00    +0.000 C 
ATOM     17  C   UNL     1      -0.968  11.888  20.965  0.00  0.00    +0.000 A 
ATOM     18  C   UNL     1      -1.296  12.258  22.283  0.00  0.00    +0.000 A 
ATOM     19  C   UNL     1      -1.195  11.344  23.323  0.00  0.00    +0.000 A 
ATOM     20  C   UNL     1      -0.789  10.064  23.016  0.00  0.00    +0.000 A 
ATOM     21  N   UNL     1      -0.494   9.654  21.765  0.00  0.00    +0.000 NA
ATOM     22  C   UNL     1      -0.559  10.562  20.752  0.00  0.00    +0.000 A 
ATOM     23  C   UNL     1       1.377   8.726  17.844  0.00  0.00    +0.000 C 
ATOM     24  C   UNL     1       1.532   7.201  17.940  0.00  0.00    +0.000 C 
ENDROOT
BRANCH   1  25
ATOM     25  C   UNL     1       4.056   5.666  17.454  0.00  0.00    +0.000 C 
BRANCH  25  27
ATOM     26  C   UNL     1       6.453   6.547  17.520  0.00  0.00    +0.000 C 
ATOM     27  C   UNL     1       5.050   6.732  16.919  0.00  0.00    +0.000 C 
ATOM     28  C   UNL     1       5.187   6.662  15.391  0.00  0.00    +0.000 C 
ENDBRANCH  25  27
BRANCH  25  29
ATOM     29  N   UNL     1       4.664   4.316  17.466  0.00  0.00    +0.000 NA
ATOM     30  H   UNL     1       5.619   4.398  17.108  0.00  0.00    +0.000 HD
ATOM     31  H   UNL     1       4.173   3.713  16.810  0.00  0.00    +0.000 HD
ENDBRANCH  25  29
ENDBRANCH   1  25
TORSDOF 3
ENDMDL
MODEL 4
REMARK VINA RESULT:      -6.2      0.851      1.164
REMARK  Name = 
REMARK  5 active torsions:
REMARK  status: ('A' for Active; 'I' for Inactive)
REMARK    1  A    between atoms: C_1  and  C_2
REMARK    2  A    between atoms: C_2  and  C_3
REMARK    3  A    between atoms: C_2  and  C_4
REMARK    4  A    between atoms: C_4  and  N_5
REMARK    5  A    between atoms: C_4  and  C_6
REMARK                            x       y       z     vdW  Elec       q    Type
REMARK                         _______ _______ _______ _____ _____    ______ ____
ROOT
ATOM      1  C   UNL     1       0.918  10.593  19.702  0.00  0.00    +0.000 C 
ATOM      2  O   UNL     1       0.244  10.825  20.708  0.00  0.00    +0.000 OA
ATOM      3  N   UNL     1       1.612   9.396  19.544  0.00  0.00    +0.000 N 
ATOM      4  C   UNL     1       1.379   8.285  20.474  0.00  0.00    +0.000 C 
ATOM      5  C   UNL     1       1.069   6.996  19.691  0.00  0.00    +0.000 C 
ATOM      6  C   UNL     1       2.210   6.680  18.720  0.00  0.00    +0.000 C 
ATOM      7  C   UNL     1       2.962   5.541  18.711  0.00  0.00    +0.000 C 
ATOM      8  C   UNL     1       4.037   5.396  17.692  0.00  0.00    +0.000 A 
ATOM      9  C   UNL     1       5.197   6.183  17.748  0.00  0.00    +0.000 A 
ATOM     10  C   UNL     1       6.204   6.025  16.792  0.00  0.00    +0.000 A 
ATOM     11  C   UNL     1       6.069   5.061  15.795  0.00  0.00    +0.000 A 
ATOM     12 CL   UNL     1       7.319   4.846  14.635  0.00  0.00    +0.000 Cl
ATOM     13  C   UNL     1       4.930   4.257  15.742  0.00  0.00    +0.000 A 
ATOM     14  C   UNL     1       3.907   4.420  16.689  0.00  0.00    +0.000 A 
ATOM     15  C   UNL     1       2.706   3.510  16.684  0.00  0.00    +0.000 C 
ATOM     16  C   UNL     1       2.764   2.534  17.861  0.00  0.00    +0.000 C 
ATOM     17  C   UNL     1       2.607   3.073  19.267  0.00  0.00    +0.000 A 
ATOM     18  C   UNL     1       2.391   2.116  20.276  0.00  0.00    +0.000 A 
ATOM     19  C   UNL     1       2.256   2.501  21.603  0.00  0.00    +0.000 A 
ATOM     20  C   UNL     1       2.368   3.842  21.897  0.00  0.00    +0.000 A 
ATOM     21  N   UNL     1       2.605   4.792  20.969  0.00  0.00    +0.000 NA
ATOM     22  C   UNL     1       2.699   4.417  19.664  0.00  0.00    +0.000 A 
ATOM     23  C   UNL     1       2.386   7.862  17.765  0.00  0.00    +0.000 C 
ATOM     24  C   UNL     1       2.674   9.145  18.560  0.00  0.00    +0.000 C 
ENDROOT
BRANCH   1  25
ATOM     25  C   UNL     1       1.001  11.627  18.539  0.00  0.00    +0.000 C 
BRANCH  25  27
ATOM     26  C   UNL     1       1.731  14.073  18.638  0.00  0.00    +0.000 C 
ATOM     27  C   UNL     1       0.628  13.064  18.994  0.00  0.00    +0.000 C 
ATOM     28  C   UNL     1      -0.674  13.547  18.336  0.00  0.00    +0.000 C 
ENDBRANCH  25  27
BRANCH  25  29
ATOM     29  N   UNL     1       2.368  11.576  17.973  0.00  0.00    +0.000 NA
ATOM     30  H   UNL     1       2.294  11.704  16.960  0.00  0.00    +0.000 HD
ATOM     31  H   UNL     1       2.761  10.648  18.107  0.00  0.00    +0.000 HD
ENDBRANCH  25  29
ENDBRANCH   1  25
TORSDOF 3
ENDMDL
MODEL 5
REMARK VINA RESULT:      -6.0      5.830      8.829
REMARK  Name = 
REMARK  5 active torsions:
REMARK  status: ('A' for Active; 'I' for Inactive)
REMARK    1  A    between atoms: C_1  and  C_2
REMARK    2  A    between atoms: C_2  and  C_3
REMARK    3  A    between atoms: C_2  and  C_4
REMARK    4  A    between atoms: C_4  and  N_5
REMARK    5  A    between atoms: C_4  and  C_6
REMARK                            x       y       z     vdW  Elec       q    Type
REMARK                         _______ _______ _______ _____ _____    ______ ____
ROOT
ATOM      1  C   UNL     1       2.886  17.224  19.948  0.00  0.00    +0.000 C 
ATOM      2  O   UNL     1       2.504  18.392  20.040  0.00  0.00    +0.000 OA
ATOM      3  N   UNL     1       2.028  16.150  20.174  0.00  0.00    +0.000 N 
ATOM      4  C   UNL     1       0.584  16.383  20.310  0.00  0.00    +0.000 C 
ATOM      5  C   UNL     1      -0.192  15.453  19.361  0.00  0.00    +0.000 C 
ATOM      6  C   UNL     1       0.166  13.991  19.642  0.00  0.00    +0.000 C 
ATOM      7  C   UNL     1      -0.706  13.009  20.011  0.00  0.00    +0.000 C 
ATOM      8  C   UNL     1      -0.186  11.634  20.245  0.00  0.00    +0.000 A 
ATOM      9  C   UNL     1       0.630  11.349  21.350  0.00  0.00    +0.000 A 
ATOM     10  C   UNL     1       1.099  10.050  21.564  0.00  0.00    +0.000 A 
ATOM     11  C   UNL     1       0.731   9.026  20.693  0.00  0.00    +0.000 A 
ATOM     12 CL   UNL     1       1.284   7.423  20.971  0.00  0.00    +0.000 Cl
ATOM     13  C   UNL     1      -0.098   9.293  19.603  0.00  0.00    +0.000 A 
ATOM     14  C   UNL     1      -0.561  10.598  19.372  0.00  0.00    +0.000 A 
ATOM     15  C   UNL     1      -1.514  10.884  18.240  0.00  0.00    +0.000 C 
ATOM     16  C   UNL     1      -2.919  11.167  18.776  0.00  0.00    +0.000 C 
ATOM     17  C   UNL     1      -3.156  12.435  19.570  0.00  0.00    +0.000 A 
ATOM     18  C   UNL     1      -4.502  12.780  19.796  0.00  0.00    +0.000 A 
ATOM     19  C   UNL     1      -4.831  13.910  20.531  0.00  0.00    +0.000 A 
ATOM     20  C   UNL     1      -3.801  14.661  21.051  0.00  0.00    +0.000 A 
ATOM     21  N   UNL     1      -2.497  14.354  20.887  0.00  0.00    +0.000 NA
ATOM     22  C   UNL     1      -2.176  13.266  20.135  0.00  0.00    +0.000 A 
ATOM     23  C   UNL     1       1.674  13.810  19.459  0.00  0.00    +0.000 C 
ATOM     24  C   UNL     1       2.437  14.758  20.397  0.00  0.00    +0.000 C 
ENDROOT
BRANCH   1  25
ATOM     25  C   UNL     1       4.354  16.893  19.543  0.00  0.00    +0.000 C 
BRANCH  25  27
ATOM     26  C   UNL     1       4.982  15.090  17.846  0.00  0.00    +0.000 C 
ATOM     27  C   UNL     1       4.489  16.533  18.039  0.00  0.00    +0.000 C 
ATOM     28  C   UNL     1       3.147  16.667  17.302  0.00  0.00    +0.000 C 
ENDBRANCH  25  27
BRANCH  25  29
ATOM     29  N   UNL     1       5.203  18.052  19.901  0.00  0.00    +0.000 NA
ATOM     30  H   UNL     1       5.826  17.763  20.660  0.00  0.00    +0.000 HD
ATOM     31  H   UNL     1       4.626  18.796  20.284  0.00  0.00    +0.000 HD
ENDBRANCH  25  29
ENDBRANCH   1  25
TORSDOF 3
ENDMDL
MODEL 6
REMARK VINA RESULT:      -6.0      6.240      8.980
REMARK  Name = 
REMARK  5 active torsions:
REMARK  status: ('A' for Active; 'I' for Inactive)
REMARK    1  A    between atoms: C_1  and  C_2
REMARK    2  A    between atoms: C_2  and  C_3
REMARK    3  A    between atoms: C_2  and  C_4
REMARK    4  A    between atoms: C_4  and  N_5
REMARK    5  A    between atoms: C_4  and  C_6
REMARK                            x       y       z     vdW  Elec       q    Type
REMARK                         _______ _______ _______ _____ _____    ______ ____
ROOT
ATOM      1  C   UNL     1      -3.882  14.333  24.164  0.00  0.00    +0.000 C 
ATOM      2  O   UNL     1      -3.542  15.258  24.904  0.00  0.00    +0.000 OA
ATOM      3  N   UNL     1      -3.207  14.057  22.977  0.00  0.00    +0.000 N 
ATOM      4  C   UNL     1      -1.933  14.725  22.685  0.00  0.00    +0.000 C 
ATOM      5  C   UNL     1      -0.863  13.683  22.313  0.00  0.00    +0.000 C 
ATOM      6  C   UNL     1      -1.336  12.842  21.124  0.00  0.00    +0.000 C 
ATOM      7  C   UNL     1      -0.704  12.731  19.920  0.00  0.00    +0.000 C 
ATOM      8  C   UNL     1      -1.305  11.865  18.868  0.00  0.00    +0.000 A 
ATOM      9  C   UNL     1      -2.499  12.228  18.228  0.00  0.00    +0.000 A 
ATOM     10  C   UNL     1      -3.043  11.412  17.233  0.00  0.00    +0.000 A 
ATOM     11  C   UNL     1      -2.382  10.246  16.853  0.00  0.00    +0.000 A 
ATOM     12 CL   UNL     1      -3.035   9.255  15.610  0.00  0.00    +0.000 Cl
ATOM     13  C   UNL     1      -1.182   9.885  17.467  0.00  0.00    +0.000 A 
ATOM     14  C   UNL     1      -0.637  10.692  18.478  0.00  0.00    +0.000 A 
ATOM     15  C   UNL     1       0.694  10.350  19.098  0.00  0.00    +0.000 C 
ATOM     16  C   UNL     1       1.776  11.323  18.624  0.00  0.00    +0.000 C 
ATOM     17  C   UNL     1       1.706  12.768  19.073  0.00  0.00    +0.000 A 
ATOM     18  C   UNL     1       2.858  13.543  18.843  0.00  0.00    +0.000 A 
ATOM     19  C   UNL     1       2.892  14.885  19.195  0.00  0.00    +0.000 A 
ATOM     20  C   UNL     1       1.757  15.433  19.749  0.00  0.00    +0.000 A 
ATOM     21  N   UNL     1       0.619  14.739  19.960  0.00  0.00    +0.000 NA
ATOM     22  C   UNL     1       0.600  13.414  19.648  0.00  0.00    +0.000 A 
ATOM     23  C   UNL     1      -2.651  12.155  21.499  0.00  0.00    +0.000 C 
ATOM     24  C   UNL     1      -3.703  13.205  21.888  0.00  0.00    +0.000 C 
ENDROOT
BRANCH   1  25
ATOM     25  C   UNL     1      -5.074  13.404  24.542  0.00  0.00    +0.000 C 
BRANCH  25  27
ATOM     26  C   UNL     1      -7.238  12.369  23.663  0.00  0.00    +0.000 C 
ATOM     27  C   UNL     1      -6.286  13.572  23.586  0.00  0.00    +0.000 C 
ATOM     28  C   UNL     1      -7.100  14.831  23.921  0.00  0.00    +0.000 C 
ENDBRANCH  25  27
BRANCH  25  29
ATOM     29  N   UNL     1      -4.584  12.006  24.554  0.00  0.00    +0.000 NA
ATOM     30  H   UNL     1      -5.363  11.403  24.829  0.00  0.00    +0.000 HD
ATOM     31  H   UNL     1      -3.879  11.896  25.278  0.00  0.00    +0.000 HD
ENDBRANCH  25  29
ENDBRANCH   1  25
TORSDOF 3
ENDMDL
MODEL 7
REMARK VINA RESULT:      -6.0      5.825      9.180
REMARK  Name = 
REMARK  5 active torsions:
REMARK  status: ('A' for Active; 'I' for Inactive)
REMARK    1  A    between atoms: C_1  and  C_2
REMARK    2  A    between atoms: C_2  and  C_3
REMARK    3  A    between atoms: C_2  and  C_4
REMARK    4  A    between atoms: C_4  and  N_5
REMARK    5  A    between atoms: C_4  and  C_6
REMARK                            x       y       z     vdW  Elec       q    Type
REMARK                         _______ _______ _______ _____ _____    ______ ____
ROOT
ATOM      1  C   UNL     1      -2.323  15.939  24.563  0.00  0.00    +0.000 C 
ATOM      2  O   UNL     1      -3.309  16.650  24.770  0.00  0.00    +0.000 OA
ATOM      3  N   UNL     1      -2.362  14.873  23.668  0.00  0.00    +0.000 N 
ATOM      4  C   UNL     1      -3.519  14.704  22.779  0.00  0.00    +0.000 C 
ATOM      5  C   UNL     1      -3.046  14.550  21.322  0.00  0.00    +0.000 C 
ATOM      6  C   UNL     1      -2.075  13.372  21.202  0.00  0.00    +0.000 C 
ATOM      7  C   UNL     1      -2.243  12.272  20.413  0.00  0.00    +0.000 C 
ATOM      8  C   UNL     1      -1.195  11.215  20.418  0.00  0.00    +0.000 A 
ATOM      9  C   UNL     1      -0.994  10.400  21.542  0.00  0.00    +0.000 A 
ATOM     10  C   UNL     1      -0.015   9.403  21.526  0.00  0.00    +0.000 A 
ATOM     11  C   UNL     1       0.746   9.197  20.377  0.00  0.00    +0.000 A 
ATOM     12 CL   UNL     1       1.932   7.953  20.346  0.00  0.00    +0.000 Cl
ATOM     13  C   UNL     1       0.542   9.987  19.245  0.00  0.00    +0.000 A 
ATOM     14  C   UNL     1      -0.429  11.000  19.259  0.00  0.00    +0.000 A 
ATOM     15  C   UNL     1      -0.708  11.811  18.019  0.00  0.00    +0.000 C 
ATOM     16  C   UNL     1      -2.053  11.415  17.407  0.00  0.00    +0.000 C 
ATOM     17  C   UNL     1      -3.325  11.747  18.159  0.00  0.00    +0.000 A 
ATOM     18  C   UNL     1      -4.524  11.615  17.434  0.00  0.00    +0.000 A 
ATOM     19  C   UNL     1      -5.748  11.871  18.036  0.00  0.00    +0.000 A 
ATOM     20  C   UNL     1      -5.749  12.232  19.365  0.00  0.00    +0.000 A 
ATOM     21  N   UNL     1      -4.628  12.341  20.109  0.00  0.00    +0.000 NA
ATOM     22  C   UNL     1      -3.426  12.125  19.507  0.00  0.00    +0.000 A 
ATOM     23  C   UNL     1      -0.885  13.620  22.131  0.00  0.00    +0.000 C 
ATOM     24  C   UNL     1      -1.372  13.792  23.579  0.00  0.00    +0.000 C 
ENDROOT
BRANCH   1  25
ATOM     25  C   UNL     1      -0.969  16.223  25.279  0.00  0.00    +0.000 C 
BRANCH  25  27
ATOM     26  C   UNL     1       0.389  18.126  26.309  0.00  0.00    +0.000 C 
ATOM     27  C   UNL     1      -0.527  17.706  25.149  0.00  0.00    +0.000 C 
ATOM     28  C   UNL     1       0.238  17.956  23.840  0.00  0.00    +0.000 C 
ENDBRANCH  25  27
BRANCH  25  29
ATOM     29  N   UNL     1      -1.104  15.821  26.698  0.00  0.00    +0.000 NA
ATOM     30  H   UNL     1      -0.165  15.778  27.103  0.00  0.00    +0.000 HD
ATOM     31  H   UNL     1      -1.472  14.875  26.752  0.00  0.00    +0.000 HD
ENDBRANCH  25  29
ENDBRANCH   1  25
TORSDOF 3
ENDMDL
MODEL 8
REMARK VINA RESULT:      -5.9      5.797      8.414
REMARK  Name = 
REMARK  5 active torsions:
REMARK  status: ('A' for Active; 'I' for Inactive)
REMARK    1  A    between atoms: C_1  and  C_2
REMARK    2  A    between atoms: C_2  and  C_3
REMARK    3  A    between atoms: C_2  and  C_4
REMARK    4  A    between atoms: C_4  and  N_5
REMARK    5  A    between atoms: C_4  and  C_6
REMARK                            x       y       z     vdW  Elec       q    Type
REMARK                         _______ _______ _______ _____ _____    ______ ____
ROOT
ATOM      1  C   UNL     1      -2.644  16.312  24.538  0.00  0.00    +0.000 C 
ATOM      2  O   UNL     1      -3.379  15.913  25.445  0.00  0.00    +0.000 OA
ATOM      3  N   UNL     1      -1.778  15.454  23.864  0.00  0.00    +0.000 N 
ATOM      4  C   UNL     1      -1.879  14.003  24.066  0.00  0.00    +0.000 C 
ATOM      5  C   UNL     1      -1.972  13.287  22.707  0.00  0.00    +0.000 C 
ATOM      6  C   UNL     1      -0.765  13.645  21.835  0.00  0.00    +0.000 C 
ATOM      7  C   UNL     1       0.144  12.766  21.324  0.00  0.00    +0.000 C 
ATOM      8  C   UNL     1       1.263  13.288  20.493  0.00  0.00    +0.000 A 
ATOM      9  C   UNL     1       2.293  14.049  21.063  0.00  0.00    +0.000 A 
ATOM     10  C   UNL     1       3.344  14.521  20.272  0.00  0.00    +0.000 A 
ATOM     11  C   UNL     1       3.384  14.208  18.914  0.00  0.00    +0.000 A 
ATOM     12 CL   UNL     1       4.690  14.763  17.945  0.00  0.00    +0.000 Cl
ATOM     13  C   UNL     1       2.376  13.433  18.339  0.00  0.00    +0.000 A 
ATOM     14  C   UNL     1       1.310  12.969  19.125  0.00  0.00    +0.000 A 
ATOM     15  C   UNL     1       0.254  12.072  18.530  0.00  0.00    +0.000 C 
ATOM     16  C   UNL     1       0.414  10.639  19.041  0.00  0.00    +0.000 C 
ATOM     17  C   UNL     1       0.133  10.347  20.501  0.00  0.00    +0.000 A 
ATOM     18  C   UNL     1       0.024   8.988  20.850  0.00  0.00    +0.000 A 
ATOM     19  C   UNL     1      -0.209   8.610  22.165  0.00  0.00    +0.000 A 
ATOM     20  C   UNL     1      -0.304   9.605  23.113  0.00  0.00    +0.000 A 
ATOM     21  N   UNL     1      -0.176  10.918  22.831  0.00  0.00    +0.000 NA
ATOM     22  C   UNL     1       0.016  11.289  21.536  0.00  0.00    +0.000 A 
ATOM     23  C   UNL     1      -0.731  15.163  21.643  0.00  0.00    +0.000 C 
ATOM     24  C   UNL     1      -0.659  15.867  23.007  0.00  0.00    +0.000 C 
ENDROOT
BRANCH   1  25
ATOM     25  C   UNL     1      -2.674  17.802  24.083  0.00  0.00    +0.000 C 
BRANCH  25  27
ATOM     26  C   UNL     1      -2.824  18.426  21.611  0.00  0.00    +0.000 C 
ATOM     27  C   UNL     1      -3.614  18.035  22.870  0.00  0.00    +0.000 C 
ATOM     28  C   UNL     1      -4.428  16.775  22.535  0.00  0.00    +0.000 C 
ENDBRANCH  25  27
BRANCH  25  29
ATOM     29  N   UNL     1      -3.072  18.631  25.244  0.00  0.00    +0.000 NA
ATOM     30  H   UNL     1      -3.544  19.465  24.887  0.00  0.00    +0.000 HD
ATOM     31  H   UNL     1      -2.242  18.966  25.727  0.00  0.00    +0.000 HD
ENDBRANCH  25  29
ENDBRANCH   1  25
TORSDOF 3
ENDMDL
MODEL 9
REMARK VINA RESULT:      -5.9      7.084     10.748
REMARK  Name = 
REMARK  5 active torsions:
REMARK  status: ('A' for Active; 'I' for Inactive)
REMARK    1  A    between atoms: C_1  and  C_2
REMARK    2  A    between atoms: C_2  and  C_3
REMARK    3  A    between atoms: C_2  and  C_4
REMARK    4  A    between atoms: C_4  and  N_5
REMARK    5  A    between atoms: C_4  and  C_6
REMARK                            x       y       z     vdW  Elec       q    Type
REMARK                         _______ _______ _______ _____ _____    ______ ____
ROOT
ATOM      1  C   UNL     1      -4.880  16.154  22.453  0.00  0.00    +0.000 C 
ATOM      2  O   UNL     1      -5.513  17.212  22.443  0.00  0.00    +0.000 OA
ATOM      3  N   UNL     1      -3.887  15.883  21.515  0.00  0.00    +0.000 N 
ATOM      4  C   UNL     1      -3.413  16.948  20.622  0.00  0.00    +0.000 C 
ATOM      5  C   UNL     1      -1.877  17.037  20.676  0.00  0.00    +0.000 C 
ATOM      6  C   UNL     1      -1.255  15.686  20.312  0.00  0.00    +0.000 C 
ATOM      7  C   UNL     1      -0.397  15.452  19.277  0.00  0.00    +0.000 C 
ATOM      8  C   UNL     1       0.115  14.071  19.064  0.00  0.00    +0.000 A 
ATOM      9  C   UNL     1      -0.732  13.046  18.618  0.00  0.00    +0.000 A 
ATOM     10  C   UNL     1      -0.233  11.757  18.410  0.00  0.00    +0.000 A 
ATOM     11  C   UNL     1       1.119  11.495  18.619  0.00  0.00    +0.000 A 
ATOM     12 CL   UNL     1       1.741   9.918  18.337  0.00  0.00    +0.000 Cl
ATOM     13  C   UNL     1       1.977  12.512  19.042  0.00  0.00    +0.000 A 
ATOM     14  C   UNL     1       1.480  13.804  19.268  0.00  0.00    +0.000 A 
ATOM     15  C   UNL     1       2.410  14.926  19.656  0.00  0.00    +0.000 C 
ATOM     16  C   UNL     1       2.601  15.896  18.489  0.00  0.00    +0.000 C 
ATOM     17  C   UNL     1       1.429  16.746  18.045  0.00  0.00    +0.000 A 
ATOM     18  C   UNL     1       1.730  17.804  17.167  0.00  0.00    +0.000 A 
ATOM     19  C   UNL     1       0.726  18.630  16.681  0.00  0.00    +0.000 A 
ATOM     20  C   UNL     1      -0.569  18.362  17.065  0.00  0.00    +0.000 A 
ATOM     21  N   UNL     1      -0.910  17.341  17.879  0.00  0.00    +0.000 NA
ATOM     22  C   UNL     1       0.080  16.555  18.384  0.00  0.00    +0.000 A 
ATOM     23  C   UNL     1      -1.768  14.629  21.291  0.00  0.00    +0.000 C 
ATOM     24  C   UNL     1      -3.302  14.564  21.242  0.00  0.00    +0.000 C 
ENDROOT
BRANCH   1  25
ATOM     25  C   UNL     1      -5.147  15.074  23.545  0.00  0.00    +0.000 C 
BRANCH  25  27
ATOM     26  C   UNL     1      -3.220  13.862  24.705  0.00  0.00    +0.000 C 
ATOM     27  C   UNL     1      -4.104  15.120  24.694  0.00  0.00    +0.000 C 
ATOM     28  C   UNL     1      -3.175  16.338  24.567  0.00  0.00    +0.000 C 
ENDBRANCH  25  27
BRANCH  25  29
ATOM     29  N   UNL     1      -6.523  15.264  24.055  0.00  0.00    +0.000 NA
ATOM     30  H   UNL     1      -6.458  15.642  25.004  0.00  0.00    +0.000 HD
ATOM     31  H   UNL     1      -6.983  14.362  24.147  0.00  0.00    +0.000 HD
ENDBRANCH  25  29
ENDBRANCH   1  25
TORSDOF 3
ENDMDL
