MODEL 1
REMARK VINA RESULT:      -8.6      0.000      0.000
REMARK  Name = 
REMARK  7 active torsions:
REMARK  status: ('A' for Active; 'I' for Inactive)
REMARK    1  A    between atoms: C_1  and  C_2
REMARK    2  A    between atoms: C_6  and  C_7
REMARK    3  A    between atoms: C_7  and  C_8
REMARK    4  A    between atoms: C_11  and  N_12
REMARK    5  A    between atoms: N_18  and  C_19
REMARK    6  A    between atoms: C_19  and  C_20
REMARK    7  A    between atoms: N_24  and  C_25
REMARK                            x       y       z     vdW  Elec       q    Type
REMARK                         _______ _______ _______ _____ _____    ______ ____
ROOT
ATOM      1  C   UNL     1       2.406   1.817  17.991  0.00  0.00    +0.000 C 
ATOM      2  C   UNL     1       2.294   3.289  17.903  0.00  0.00    +0.000 A 
ATOM      3  N   UNL     1       1.101   3.911  17.860  0.00  0.00    +0.000 NA
ATOM      4  O   UNL     1       1.385   5.276  17.765  0.00  0.00    +0.000 OA
ATOM      5  C   UNL     1       2.729   5.428  17.749  0.00  0.00    +0.000 A 
ATOM      6  C   UNL     1       3.426   6.661  17.611  0.00  0.00    +0.000 A 
ATOM      7  N   UNL     1       4.734   6.640  17.557  0.00  0.00    +0.000 NA
ATOM      8  N   UNL     1       5.403   5.392  17.653  0.00  0.00    +0.000 N 
ATOM      9  C   UNL     1       4.772   4.138  17.803  0.00  0.00    +0.000 A 
ATOM     10  O   UNL     1       5.365   3.069  17.865  0.00  0.00    +0.000 OA
ATOM     11  C   UNL     1       3.343   4.220  17.832  0.00  0.00    +0.000 A 
ENDROOT
BRANCH   6  12
ATOM     12  C   UNL     1       2.674   7.966  17.499  0.00  0.00    +0.000 C 
BRANCH  12  13
ATOM     13  C   UNL     1       2.039   8.433  18.790  0.00  0.00    +0.000 A 
ATOM     14  C   UNL     1       1.330   9.645  18.845  0.00  0.00    +0.000 A 
ATOM     15  C   UNL     1       0.660  10.028  20.010  0.00  0.00    +0.000 A 
ATOM     16  C   UNL     1       0.685   9.190  21.129  0.00  0.00    +0.000 A 
ATOM     17  C   UNL     1       1.402   7.988  21.099  0.00  0.00    +0.000 A 
ATOM     18  C   UNL     1       2.075   7.615  19.931  0.00  0.00    +0.000 A 
BRANCH  16  19
ATOM     19  N   UNL     1      -0.073   9.556  22.333  0.00  0.00    +0.000 N 
ATOM     20  O   UNL     1      -0.858   8.716  22.798  0.00  0.00    +0.000 OA
ATOM     21  O   UNL     1       0.126  10.677  22.823  0.00  0.00    +0.000 OA
ENDBRANCH  16  19
ENDBRANCH  12  13
ENDBRANCH   6  12
BRANCH   8  22
ATOM     22  C   UNL     1       6.862   5.418  17.641  0.00  0.00    +0.000 C 
BRANCH  22  23
ATOM     23  C   UNL     1       7.379   6.816  17.758  0.00  0.00    +0.000 A 
ATOM     24  N   UNL     1       7.208   7.778  16.878  0.00  0.00    +0.000 NA
ATOM     25  N   UNL     1       7.821   8.941  17.266  0.00  0.00    +0.000 NA
ATOM     26  C   UNL     1       8.472   8.846  18.410  0.00  0.00    +0.000 A 
ATOM     27  N   UNL     1       9.211   9.813  19.010  0.00  0.00    +0.000 N 
ATOM     28  S   UNL     1       8.285   7.293  19.142  0.00  0.00    +0.000 S 
ATOM     29  H   UNL     1       9.515   9.676  19.963  0.00  0.00    +0.000 HD
BRANCH  27  30
ATOM     30  C   UNL     1       9.635  11.014  18.406  0.00  0.00    +0.000 A 
ATOM     31  C   UNL     1       8.766  12.092  18.181  0.00  0.00    +0.000 A 
ATOM     32  C   UNL     1       9.231  13.324  17.723  0.00  0.00    +0.000 A 
ATOM     33  C   UNL     1      10.584  13.499  17.467  0.00  0.00    +0.000 A 
ATOM     34  C   UNL     1      11.464  12.433  17.645  0.00  0.00    +0.000 A 
ATOM     35  C   UNL     1      10.994  11.199  18.112  0.00  0.00    +0.000 A 
ENDBRANCH  27  30
ENDBRANCH  22  23
ENDBRANCH   8  22
TORSDOF 6
ENDMDL
MODEL 2
REMARK VINA RESULT:      -8.5      1.718      2.108
REMARK  Name = 
REMARK  7 active torsions:
REMARK  status: ('A' for Active; 'I' for Inactive)
REMARK    1  A    between atoms: C_1  and  C_2
REMARK    2  A    between atoms: C_6  and  C_7
REMARK    3  A    between atoms: C_7  and  C_8
REMARK    4  A    between atoms: C_11  and  N_12
REMARK    5  A    between atoms: N_18  and  C_19
REMARK    6  A    between atoms: C_19  and  C_20
REMARK    7  A    between atoms: N_24  and  C_25
REMARK                            x       y       z     vdW  Elec       q    Type
REMARK                         _______ _______ _______ _____ _____    ______ ____
ROOT
ATOM      1  C   UNL     1       2.262   2.372  21.415  0.00  0.00    +0.000 C 
ATOM      2  C   UNL     1       2.096   3.576  20.572  0.00  0.00    +0.000 A 
ATOM      3  N   UNL     1       0.928   4.243  20.506  0.00  0.00    +0.000 NA
ATOM      4  O   UNL     1       1.140   5.297  19.614  0.00  0.00    +0.000 OA
ATOM      5  C   UNL     1       2.417   5.227  19.173  0.00  0.00    +0.000 A 
ATOM      6  C   UNL     1       3.016   6.091  18.213  0.00  0.00    +0.000 A 
ATOM      7  N   UNL     1       4.251   5.861  17.846  0.00  0.00    +0.000 NA
ATOM      8  N   UNL     1       4.947   4.770  18.430  0.00  0.00    +0.000 N 
ATOM      9  C   UNL     1       4.417   3.887  19.394  0.00  0.00    +0.000 A 
ATOM     10  O   UNL     1       5.026   2.940  19.874  0.00  0.00    +0.000 OA
ATOM     11  C   UNL     1       3.056   4.172  19.740  0.00  0.00    +0.000 A 
ENDROOT
BRANCH   6  12
ATOM     12  C   UNL     1       2.234   7.231  17.606  0.00  0.00    +0.000 C 
BRANCH  12  13
ATOM     13  C   UNL     1       1.746   8.255  18.607  0.00  0.00    +0.000 A 
ATOM     14  C   UNL     1       1.844   8.014  19.987  0.00  0.00    +0.000 A 
ATOM     15  C   UNL     1       1.485   8.999  20.912  0.00  0.00    +0.000 A 
ATOM     16  C   UNL     1       1.034  10.242  20.457  0.00  0.00    +0.000 A 
ATOM     17  C   UNL     1       0.912  10.493  19.085  0.00  0.00    +0.000 A 
ATOM     18  C   UNL     1       1.267   9.500  18.167  0.00  0.00    +0.000 A 
BRANCH  16  19
ATOM     19  N   UNL     1       0.720  11.303  21.422  0.00  0.00    +0.000 N 
ATOM     20  O   UNL     1       0.005  11.009  22.392  0.00  0.00    +0.000 OA
ATOM     21  O   UNL     1       1.199  12.429  21.221  0.00  0.00    +0.000 OA
ENDBRANCH  16  19
ENDBRANCH  12  13
ENDBRANCH   6  12
BRANCH   8  22
ATOM     22  C   UNL     1       6.339   4.581  18.031  0.00  0.00    +0.000 C 
BRANCH  22  23
ATOM     23  C   UNL     1       7.122   5.845  18.186  0.00  0.00    +0.000 A 
ATOM     24  N   UNL     1       8.026   6.084  19.109  0.00  0.00    +0.000 NA
ATOM     25  N   UNL     1       8.552   7.345  18.996  0.00  0.00    +0.000 NA
ATOM     26  C   UNL     1       8.026   8.058  18.018  0.00  0.00    +0.000 A 
ATOM     27  N   UNL     1       8.311   9.347  17.704  0.00  0.00    +0.000 N 
ATOM     28  S   UNL     1       6.880   7.155  17.093  0.00  0.00    +0.000 S 
ATOM     29  H   UNL     1       7.973   9.724  16.830  0.00  0.00    +0.000 HD
BRANCH  27  30
ATOM     30  C   UNL     1       9.027  10.250  18.517  0.00  0.00    +0.000 A 
ATOM     31  C   UNL     1       8.846  10.318  19.906  0.00  0.00    +0.000 A 
ATOM     32  C   UNL     1       9.667  11.106  20.713  0.00  0.00    +0.000 A 
ATOM     33  C   UNL     1      10.684  11.856  20.139  0.00  0.00    +0.000 A 
ATOM     34  C   UNL     1      10.861  11.836  18.757  0.00  0.00    +0.000 A 
ATOM     35  C   UNL     1      10.039  11.038  17.951  0.00  0.00    +0.000 A 
ENDBRANCH  27  30
ENDBRANCH  22  23
ENDBRANCH   8  22
TORSDOF 6
ENDMDL
MODEL 3
REMARK VINA RESULT:      -8.4      3.446      7.558
REMARK  Name = 
REMARK  7 active torsions:
REMARK  status: ('A' for Active; 'I' for Inactive)
REMARK    1  A    between atoms: C_1  and  C_2
REMARK    2  A    between atoms: C_6  and  C_7
REMARK    3  A    between atoms: C_7  and  C_8
REMARK    4  A    between atoms: C_11  and  N_12
REMARK    5  A    between atoms: N_18  and  C_19
REMARK    6  A    between atoms: C_19  and  C_20
REMARK    7  A    between atoms: N_24  and  C_25
REMARK                            x       y       z     vdW  Elec       q    Type
REMARK                         _______ _______ _______ _____ _____    ______ ____
ROOT
ATOM      1  C   UNL     1       5.378   3.940  13.777  0.00  0.00    +0.000 C 
ATOM      2  C   UNL     1       6.173   4.613  14.827  0.00  0.00    +0.000 A 
ATOM      3  N   UNL     1       7.434   5.031  14.607  0.00  0.00    +0.000 NA
ATOM      4  O   UNL     1       7.864   5.597  15.810  0.00  0.00    +0.000 OA
ATOM      5  C   UNL     1       6.857   5.497  16.708  0.00  0.00    +0.000 A 
ATOM      6  C   UNL     1       6.910   5.911  18.069  0.00  0.00    +0.000 A 
ATOM      7  N   UNL     1       5.868   5.698  18.831  0.00  0.00    +0.000 NA
ATOM      8  N   UNL     1       4.723   5.075  18.267  0.00  0.00    +0.000 N 
ATOM      9  C   UNL     1       4.602   4.654  16.925  0.00  0.00    +0.000 A 
ATOM     10  O   UNL     1       3.613   4.102  16.461  0.00  0.00    +0.000 OA
ATOM     11  C   UNL     1       5.780   4.891  16.146  0.00  0.00    +0.000 A 
ENDROOT
BRANCH   6  12
ATOM     12  C   UNL     1       8.154   6.557  18.632  0.00  0.00    +0.000 C 
BRANCH  12  13
ATOM     13  C   UNL     1       8.203   8.060  18.472  0.00  0.00    +0.000 A 
ATOM     14  C   UNL     1       9.076   8.838  19.253  0.00  0.00    +0.000 A 
ATOM     15  C   UNL     1       9.193  10.214  19.036  0.00  0.00    +0.000 A 
ATOM     16  C   UNL     1       8.442  10.821  18.025  0.00  0.00    +0.000 A 
ATOM     17  C   UNL     1       7.553  10.065  17.251  0.00  0.00    +0.000 A 
ATOM     18  C   UNL     1       7.437   8.691  17.478  0.00  0.00    +0.000 A 
BRANCH  16  19
ATOM     19  N   UNL     1       8.611  12.253  17.749  0.00  0.00    +0.000 N 
ATOM     20  O   UNL     1       9.646  12.802  18.157  0.00  0.00    +0.000 OA
ATOM     21  O   UNL     1       7.718  12.829  17.111  0.00  0.00    +0.000 OA
ENDBRANCH  16  19
ENDBRANCH  12  13
ENDBRANCH   6  12
BRANCH   8  22
ATOM     22  C   UNL     1       3.565   4.903  19.138  0.00  0.00    +0.000 C 
BRANCH  22  23
ATOM     23  C   UNL     1       2.847   6.198  19.344  0.00  0.00    +0.000 A 
ATOM     24  N   UNL     1       2.196   6.555  20.430  0.00  0.00    +0.000 NA
ATOM     25  N   UNL     1       1.628   7.796  20.301  0.00  0.00    +0.000 NA
ATOM     26  C   UNL     1       1.821   8.352  19.120  0.00  0.00    +0.000 A 
ATOM     27  N   UNL     1       1.334   9.543  18.691  0.00  0.00    +0.000 N 
ATOM     28  S   UNL     1       2.824   7.387  18.098  0.00  0.00    +0.000 S 
ATOM     29  H   UNL     1       1.694   9.939  17.834  0.00  0.00    +0.000 HD
BRANCH  27  30
ATOM     30  C   UNL     1       0.322  10.292  19.325  0.00  0.00    +0.000 A 
ATOM     31  C   UNL     1       0.503  10.888  20.582  0.00  0.00    +0.000 A 
ATOM     32  C   UNL     1      -0.450  11.749  21.128  0.00  0.00    +0.000 A 
ATOM     33  C   UNL     1      -1.616  12.022  20.426  0.00  0.00    +0.000 A 
ATOM     34  C   UNL     1      -1.839  11.412  19.193  0.00  0.00    +0.000 A 
ATOM     35  C   UNL     1      -0.877  10.553  18.646  0.00  0.00    +0.000 A 
ENDBRANCH  27  30
ENDBRANCH  22  23
ENDBRANCH   8  22
TORSDOF 6
ENDMDL
MODEL 4
REMARK VINA RESULT:      -8.4      1.674      1.894
REMARK  Name = 
REMARK  7 active torsions:
REMARK  status: ('A' for Active; 'I' for Inactive)
REMARK    1  A    between atoms: C_1  and  C_2
REMARK    2  A    between atoms: C_6  and  C_7
REMARK    3  A    between atoms: C_7  and  C_8
REMARK    4  A    between atoms: C_11  and  N_12
REMARK    5  A    between atoms: N_18  and  C_19
REMARK    6  A    between atoms: C_19  and  C_20
REMARK    7  A    between atoms: N_24  and  C_25
REMARK                            x       y       z     vdW  Elec       q    Type
REMARK                         _______ _______ _______ _____ _____    ______ ____
ROOT
ATOM      1  C   UNL     1       2.417   2.104  21.450  0.00  0.00    +0.000 C 
ATOM      2  C   UNL     1       2.193   3.308  20.621  0.00  0.00    +0.000 A 
ATOM      3  N   UNL     1       0.998   3.925  20.569  0.00  0.00    +0.000 NA
ATOM      4  O   UNL     1       1.160   4.997  19.686  0.00  0.00    +0.000 OA
ATOM      5  C   UNL     1       2.436   4.986  19.237  0.00  0.00    +0.000 A 
ATOM      6  C   UNL     1       2.990   5.884  18.282  0.00  0.00    +0.000 A 
ATOM      7  N   UNL     1       4.232   5.711  17.905  0.00  0.00    +0.000 NA
ATOM      8  N   UNL     1       4.978   4.645  18.473  0.00  0.00    +0.000 N 
ATOM      9  C   UNL     1       4.491   3.730  19.432  0.00  0.00    +0.000 A 
ATOM     10  O   UNL     1       5.144   2.805  19.898  0.00  0.00    +0.000 OA
ATOM     11  C   UNL     1       3.123   3.953  19.789  0.00  0.00    +0.000 A 
ENDROOT
BRANCH   6  12
ATOM     12  C   UNL     1       2.157   6.996  17.692  0.00  0.00    +0.000 C 
BRANCH  12  13
ATOM     13  C   UNL     1       1.815   8.103  18.665  0.00  0.00    +0.000 A 
ATOM     14  C   UNL     1       1.395   9.362  18.202  0.00  0.00    +0.000 A 
ATOM     15  C   UNL     1       0.985  10.352  19.100  0.00  0.00    +0.000 A 
ATOM     16  C   UNL     1       0.981  10.082  20.472  0.00  0.00    +0.000 A 
ATOM     17  C   UNL     1       1.414   8.840  20.952  0.00  0.00    +0.000 A 
ATOM     18  C   UNL     1       1.829   7.858  20.048  0.00  0.00    +0.000 A 
BRANCH  16  19
ATOM     19  N   UNL     1       0.487  11.095  21.415  0.00  0.00    +0.000 N 
ATOM     20  O   UNL     1      -0.390  10.754  22.222  0.00  0.00    +0.000 OA
ATOM     21  O   UNL     1       0.986  12.228  21.359  0.00  0.00    +0.000 OA
ENDBRANCH  16  19
ENDBRANCH  12  13
ENDBRANCH   6  12
BRANCH   8  22
ATOM     22  C   UNL     1       6.373   4.520  18.064  0.00  0.00    +0.000 C 
BRANCH  22  23
ATOM     23  C   UNL     1       7.077   5.836  18.134  0.00  0.00    +0.000 A 
ATOM     24  N   UNL     1       7.933   6.205  19.062  0.00  0.00    +0.000 NA
ATOM     25  N   UNL     1       8.391   7.481  18.858  0.00  0.00    +0.000 NA
ATOM     26  C   UNL     1       7.861   8.077  17.806  0.00  0.00    +0.000 A 
ATOM     27  N   UNL     1       8.084   9.350  17.392  0.00  0.00    +0.000 N 
ATOM     28  S   UNL     1       6.802   7.034  16.927  0.00  0.00    +0.000 S 
ATOM     29  H   UNL     1       7.757   9.632  16.479  0.00  0.00    +0.000 HD
BRANCH  27  30
ATOM     30  C   UNL     1       8.718  10.358  18.146  0.00  0.00    +0.000 A 
ATOM     31  C   UNL     1       8.698  11.708  17.765  0.00  0.00    +0.000 A 
ATOM     32  C   UNL     1       9.198  12.710  18.596  0.00  0.00    +0.000 A 
ATOM     33  C   UNL     1       9.743  12.377  19.828  0.00  0.00    +0.000 A 
ATOM     34  C   UNL     1       9.811  11.040  20.215  0.00  0.00    +0.000 A 
ATOM     35  C   UNL     1       9.302  10.037  19.380  0.00  0.00    +0.000 A 
ENDBRANCH  27  30
ENDBRANCH  22  23
ENDBRANCH   8  22
TORSDOF 6
ENDMDL
MODEL 5
REMARK VINA RESULT:      -8.4      0.512      1.019
REMARK  Name = 
REMARK  7 active torsions:
REMARK  status: ('A' for Active; 'I' for Inactive)
REMARK    1  A    between atoms: C_1  and  C_2
REMARK    2  A    between atoms: C_6  and  C_7
REMARK    3  A    between atoms: C_7  and  C_8
REMARK    4  A    between atoms: C_11  and  N_12
REMARK    5  A    between atoms: N_18  and  C_19
REMARK    6  A    between atoms: C_19  and  C_20
REMARK    7  A    between atoms: N_24  and  C_25
REMARK                            x       y       z     vdW  Elec       q    Type
REMARK                         _______ _______ _______ _____ _____    ______ ____
ROOT
ATOM      1  C   UNL     1       2.753   1.848  18.053  0.00  0.00    +0.000 C 
ATOM      2  C   UNL     1       2.561   3.312  17.964  0.00  0.00    +0.000 A 
ATOM      3  N   UNL     1       1.337   3.871  17.976  0.00  0.00    +0.000 NA
ATOM      4  O   UNL     1       1.545   5.249  17.862  0.00  0.00    +0.000 OA
ATOM      5  C   UNL     1       2.877   5.470  17.782  0.00  0.00    +0.000 A 
ATOM      6  C   UNL     1       3.502   6.736  17.607  0.00  0.00    +0.000 A 
ATOM      7  N   UNL     1       4.805   6.782  17.492  0.00  0.00    +0.000 NA
ATOM      8  N   UNL     1       5.542   5.571  17.561  0.00  0.00    +0.000 N 
ATOM      9  C   UNL     1       4.984   4.287  17.745  0.00  0.00    +0.000 A 
ATOM     10  O   UNL     1       5.634   3.250  17.783  0.00  0.00    +0.000 OA
ATOM     11  C   UNL     1       3.556   4.295  17.841  0.00  0.00    +0.000 A 
ENDROOT
BRANCH   6  12
ATOM     12  C   UNL     1       2.679   8.000  17.526  0.00  0.00    +0.000 C 
BRANCH  12  13
ATOM     13  C   UNL     1       1.988   8.379  18.817  0.00  0.00    +0.000 A 
ATOM     14  C   UNL     1       2.136   7.588  19.969  0.00  0.00    +0.000 A 
ATOM     15  C   UNL     1       1.579   7.990  21.187  0.00  0.00    +0.000 A 
ATOM     16  C   UNL     1       0.878   9.198  21.261  0.00  0.00    +0.000 A 
ATOM     17  C   UNL     1       0.705   9.989  20.119  0.00  0.00    +0.000 A 
ATOM     18  C   UNL     1       1.259   9.576  18.903  0.00  0.00    +0.000 A 
BRANCH  16  19
ATOM     19  N   UNL     1       0.350   9.658  22.552  0.00  0.00    +0.000 N 
ATOM     20  O   UNL     1       1.123   9.672  23.521  0.00  0.00    +0.000 OA
ATOM     21  O   UNL     1      -0.835  10.019  22.596  0.00  0.00    +0.000 OA
ENDBRANCH  16  19
ENDBRANCH  12  13
ENDBRANCH   6  12
BRANCH   8  22
ATOM     22  C   UNL     1       6.996   5.672  17.480  0.00  0.00    +0.000 C 
BRANCH  22  23
ATOM     23  C   UNL     1       7.453   7.077  17.706  0.00  0.00    +0.000 A 
ATOM     24  N   UNL     1       7.215   8.102  16.918  0.00  0.00    +0.000 NA
ATOM     25  N   UNL     1       7.786   9.255  17.391  0.00  0.00    +0.000 NA
ATOM     26  C   UNL     1       8.473   9.092  18.506  0.00  0.00    +0.000 A 
ATOM     27  N   UNL     1       9.185  10.038  19.171  0.00  0.00    +0.000 N 
ATOM     28  S   UNL     1       8.376   7.475  19.105  0.00  0.00    +0.000 S 
ATOM     29  H   UNL     1       9.521   9.833  20.101  0.00  0.00    +0.000 HD
BRANCH  27  30
ATOM     30  C   UNL     1       9.539  11.304  18.663  0.00  0.00    +0.000 A 
ATOM     31  C   UNL     1       8.953  12.491  19.127  0.00  0.00    +0.000 A 
ATOM     32  C   UNL     1       9.419  13.743  18.726  0.00  0.00    +0.000 A 
ATOM     33  C   UNL     1      10.481  13.831  17.837  0.00  0.00    +0.000 A 
ATOM     34  C   UNL     1      11.056  12.668  17.330  0.00  0.00    +0.000 A 
ATOM     35  C   UNL     1      10.589  11.412  17.740  0.00  0.00    +0.000 A 
ENDBRANCH  27  30
ENDBRANCH  22  23
ENDBRANCH   8  22
TORSDOF 6
ENDMDL
MODEL 6
REMARK VINA RESULT:      -8.4      5.139      8.997
REMARK  Name = 
REMARK  7 active torsions:
REMARK  status: ('A' for Active; 'I' for Inactive)
REMARK    1  A    between atoms: C_1  and  C_2
REMARK    2  A    between atoms: C_6  and  C_7
REMARK    3  A    between atoms: C_7  and  C_8
REMARK    4  A    between atoms: C_11  and  N_12
REMARK    5  A    between atoms: N_18  and  C_19
REMARK    6  A    between atoms: C_19  and  C_20
REMARK    7  A    between atoms: N_24  and  C_25
REMARK                            x       y       z     vdW  Elec       q    Type
REMARK                         _______ _______ _______ _____ _____    ______ ____
ROOT
ATOM      1  C   UNL     1       2.231  15.356  19.590  0.00  0.00    +0.000 C 
ATOM      2  C   UNL     1       0.925  14.677  19.440  0.00  0.00    +0.000 A 
ATOM      3  N   UNL     1      -0.093  15.234  18.759  0.00  0.00    +0.000 NA
ATOM      4  O   UNL     1      -1.151  14.325  18.843  0.00  0.00    +0.000 OA
ATOM      5  C   UNL     1      -0.738  13.261  19.570  0.00  0.00    +0.000 A 
ATOM      6  C   UNL     1      -1.534  12.137  19.928  0.00  0.00    +0.000 A 
ATOM      7  N   UNL     1      -1.006  11.210  20.686  0.00  0.00    +0.000 NA
ATOM      8  N   UNL     1       0.342  11.356  21.107  0.00  0.00    +0.000 N 
ATOM      9  C   UNL     1       1.187  12.437  20.777  0.00  0.00    +0.000 A 
ATOM     10  O   UNL     1       2.342  12.555  21.165  0.00  0.00    +0.000 OA
ATOM     11  C   UNL     1       0.549  13.431  19.967  0.00  0.00    +0.000 A 
ENDROOT
BRANCH   6  12
ATOM     12  C   UNL     1      -2.969  12.029  19.470  0.00  0.00    +0.000 C 
BRANCH  12  13
ATOM     13  C   UNL     1      -3.141  11.406  18.102  0.00  0.00    +0.000 A 
ATOM     14  C   UNL     1      -4.265  11.705  17.313  0.00  0.00    +0.000 A 
ATOM     15  C   UNL     1      -4.376  11.208  16.011  0.00  0.00    +0.000 A 
ATOM     16  C   UNL     1      -3.351  10.414  15.485  0.00  0.00    +0.000 A 
ATOM     17  C   UNL     1      -2.234  10.090  16.263  0.00  0.00    +0.000 A 
ATOM     18  C   UNL     1      -2.134  10.586  17.567  0.00  0.00    +0.000 A 
BRANCH  16  19
ATOM     19  N   UNL     1      -3.431   9.945  14.095  0.00  0.00    +0.000 N 
ATOM     20  O   UNL     1      -4.558   9.780  13.605  0.00  0.00    +0.000 OA
ATOM     21  O   UNL     1      -2.368   9.757  13.487  0.00  0.00    +0.000 OA
ENDBRANCH  16  19
ENDBRANCH  12  13
ENDBRANCH   6  12
BRANCH   8  22
ATOM     22  C   UNL     1       0.908  10.274  21.907  0.00  0.00    +0.000 C 
BRANCH  22  23
ATOM     23  C   UNL     1       1.252   9.095  21.056  0.00  0.00    +0.000 A 
ATOM     24  N   UNL     1       1.328   7.847  21.461  0.00  0.00    +0.000 NA
ATOM     25  N   UNL     1       1.685   6.999  20.444  0.00  0.00    +0.000 NA
ATOM     26  C   UNL     1       1.906   7.607  19.294  0.00  0.00    +0.000 A 
ATOM     27  N   UNL     1       2.321   7.035  18.136  0.00  0.00    +0.000 N 
ATOM     28  S   UNL     1       1.588   9.303  19.379  0.00  0.00    +0.000 S 
ATOM     29  H   UNL     1       2.285   7.575  17.283  0.00  0.00    +0.000 HD
BRANCH  27  30
ATOM     30  C   UNL     1       2.843   5.732  18.006  0.00  0.00    +0.000 A 
ATOM     31  C   UNL     1       4.197   5.438  18.227  0.00  0.00    +0.000 A 
ATOM     32  C   UNL     1       4.667   4.125  18.243  0.00  0.00    +0.000 A 
ATOM     33  C   UNL     1       3.787   3.074  18.024  0.00  0.00    +0.000 A 
ATOM     34  C   UNL     1       2.444   3.341  17.764  0.00  0.00    +0.000 A 
ATOM     35  C   UNL     1       1.975   4.660  17.755  0.00  0.00    +0.000 A 
ENDBRANCH  27  30
ENDBRANCH  22  23
ENDBRANCH   8  22
TORSDOF 6
ENDMDL
MODEL 7
REMARK VINA RESULT:      -8.3      1.908      2.223
REMARK  Name = 
REMARK  7 active torsions:
REMARK  status: ('A' for Active; 'I' for Inactive)
REMARK    1  A    between atoms: C_1  and  C_2
REMARK    2  A    between atoms: C_6  and  C_7
REMARK    3  A    between atoms: C_7  and  C_8
REMARK    4  A    between atoms: C_11  and  N_12
REMARK    5  A    between atoms: N_18  and  C_19
REMARK    6  A    between atoms: C_19  and  C_20
REMARK    7  A    between atoms: N_24  and  C_25
REMARK                            x       y       z     vdW  Elec       q    Type
REMARK                         _______ _______ _______ _____ _____    ______ ____
ROOT
ATOM      1  C   UNL     1       2.646   2.567  21.675  0.00  0.00    +0.000 C 
ATOM      2  C   UNL     1       2.347   3.680  20.747  0.00  0.00    +0.000 A 
ATOM      3  N   UNL     1       1.133   4.259  20.698  0.00  0.00    +0.000 NA
ATOM      4  O   UNL     1       1.219   5.244  19.710  0.00  0.00    +0.000 OA
ATOM      5  C   UNL     1       2.471   5.220  19.198  0.00  0.00    +0.000 A 
ATOM      6  C   UNL     1       2.951   6.034  18.134  0.00  0.00    +0.000 A 
ATOM      7  N   UNL     1       4.177   5.856  17.711  0.00  0.00    +0.000 NA
ATOM      8  N   UNL     1       4.981   4.869  18.339  0.00  0.00    +0.000 N 
ATOM      9  C   UNL     1       4.570   4.040  19.405  0.00  0.00    +0.000 A 
ATOM     10  O   UNL     1       5.272   3.180  19.923  0.00  0.00    +0.000 OA
ATOM     11  C   UNL     1       3.215   4.263  19.810  0.00  0.00    +0.000 A 
ENDROOT
BRANCH   6  12
ATOM     12  C   UNL     1       2.058   7.063  17.484  0.00  0.00    +0.000 C 
BRANCH  12  13
ATOM     13  C   UNL     1       1.879   8.332  18.288  0.00  0.00    +0.000 A 
ATOM     14  C   UNL     1       2.168   9.587  17.725  0.00  0.00    +0.000 A 
ATOM     15  C   UNL     1       1.910  10.764  18.433  0.00  0.00    +0.000 A 
ATOM     16  C   UNL     1       1.348  10.692  19.712  0.00  0.00    +0.000 A 
ATOM     17  C   UNL     1       1.072   9.450  20.297  0.00  0.00    +0.000 A 
ATOM     18  C   UNL     1       1.339   8.277  19.584  0.00  0.00    +0.000 A 
BRANCH  16  19
ATOM     19  N   UNL     1       1.012  11.927  20.433  0.00  0.00    +0.000 N 
ATOM     20  O   UNL     1       0.767  12.940  19.761  0.00  0.00    +0.000 OA
ATOM     21  O   UNL     1       0.978  11.882  21.671  0.00  0.00    +0.000 OA
ENDBRANCH  16  19
ENDBRANCH  12  13
ENDBRANCH   6  12
BRANCH   8  22
ATOM     22  C   UNL     1       6.358   4.738  17.872  0.00  0.00    +0.000 C 
BRANCH  22  23
ATOM     23  C   UNL     1       7.108   6.021  18.035  0.00  0.00    +0.000 A 
ATOM     24  N   UNL     1       7.962   6.299  18.996  0.00  0.00    +0.000 NA
ATOM     25  N   UNL     1       8.468   7.567  18.879  0.00  0.00    +0.000 NA
ATOM     26  C   UNL     1       7.977   8.248  17.860  0.00  0.00    +0.000 A 
ATOM     27  N   UNL     1       8.251   9.535  17.532  0.00  0.00    +0.000 N 
ATOM     28  S   UNL     1       6.895   7.301  16.903  0.00  0.00    +0.000 S 
ATOM     29  H   UNL     1       7.949   9.886  16.634  0.00  0.00    +0.000 HD
BRANCH  27  30
ATOM     30  C   UNL     1       8.910  10.470  18.357  0.00  0.00    +0.000 A 
ATOM     31  C   UNL     1       9.182  10.218  19.710  0.00  0.00    +0.000 A 
ATOM     32  C   UNL     1       9.965  11.085  20.472  0.00  0.00    +0.000 A 
ATOM     33  C   UNL     1      10.484  12.235  19.893  0.00  0.00    +0.000 A 
ATOM     34  C   UNL     1      10.196  12.529  18.562  0.00  0.00    +0.000 A 
ATOM     35  C   UNL     1       9.415  11.652  17.798  0.00  0.00    +0.000 A 
ENDBRANCH  27  30
ENDBRANCH  22  23
ENDBRANCH   8  22
TORSDOF 6
ENDMDL
MODEL 8
REMARK VINA RESULT:      -8.2      3.437      7.476
REMARK  Name = 
REMARK  7 active torsions:
REMARK  status: ('A' for Active; 'I' for Inactive)
REMARK    1  A    between atoms: C_1  and  C_2
REMARK    2  A    between atoms: C_6  and  C_7
REMARK    3  A    between atoms: C_7  and  C_8
REMARK    4  A    between atoms: C_11  and  N_12
REMARK    5  A    between atoms: N_18  and  C_19
REMARK    6  A    between atoms: C_19  and  C_20
REMARK    7  A    between atoms: N_24  and  C_25
REMARK                            x       y       z     vdW  Elec       q    Type
REMARK                         _______ _______ _______ _____ _____    ______ ____
ROOT
ATOM      1  C   UNL     1       5.337   3.757  14.093  0.00  0.00    +0.000 C 
ATOM      2  C   UNL     1       6.136   4.453  15.126  0.00  0.00    +0.000 A 
ATOM      3  N   UNL     1       7.419   4.802  14.918  0.00  0.00    +0.000 NA
ATOM      4  O   UNL     1       7.845   5.415  16.099  0.00  0.00    +0.000 OA
ATOM      5  C   UNL     1       6.812   5.410  16.973  0.00  0.00    +0.000 A 
ATOM      6  C   UNL     1       6.850   5.897  18.310  0.00  0.00    +0.000 A 
ATOM      7  N   UNL     1       5.781   5.773  19.054  0.00  0.00    +0.000 NA
ATOM      8  N   UNL     1       4.623   5.170  18.494  0.00  0.00    +0.000 N 
ATOM      9  C   UNL     1       4.517   4.680  17.175  0.00  0.00    +0.000 A 
ATOM     10  O   UNL     1       3.516   4.147  16.714  0.00  0.00    +0.000 OA
ATOM     11  C   UNL     1       5.723   4.821  16.416  0.00  0.00    +0.000 A 
ENDROOT
BRANCH   6  12
ATOM     12  C   UNL     1       8.107   6.518  18.871  0.00  0.00    +0.000 C 
BRANCH  12  13
ATOM     13  C   UNL     1       8.283   7.983  18.535  0.00  0.00    +0.000 A 
ATOM     14  C   UNL     1       7.549   8.573  17.492  0.00  0.00    +0.000 A 
ATOM     15  C   UNL     1       7.638   9.946  17.245  0.00  0.00    +0.000 A 
ATOM     16  C   UNL     1       8.457  10.742  18.052  0.00  0.00    +0.000 A 
ATOM     17  C   UNL     1       9.210  10.168  19.084  0.00  0.00    +0.000 A 
ATOM     18  C   UNL     1       9.120   8.792  19.319  0.00  0.00    +0.000 A 
BRANCH  16  19
ATOM     19  N   UNL     1       8.502  12.195  17.840  0.00  0.00    +0.000 N 
ATOM     20  O   UNL     1       7.614  12.704  17.141  0.00  0.00    +0.000 OA
ATOM     21  O   UNL     1       9.416  12.831  18.385  0.00  0.00    +0.000 OA
ENDBRANCH  16  19
ENDBRANCH  12  13
ENDBRANCH   6  12
BRANCH   8  22
ATOM     22  C   UNL     1       3.437   5.098  19.341  0.00  0.00    +0.000 C 
BRANCH  22  23
ATOM     23  C   UNL     1       2.738   6.418  19.406  0.00  0.00    +0.000 A 
ATOM     24  N   UNL     1       2.015   6.859  20.411  0.00  0.00    +0.000 NA
ATOM     25  N   UNL     1       1.490   8.100  20.158  0.00  0.00    +0.000 NA
ATOM     26  C   UNL     1       1.788   8.573  18.963  0.00  0.00    +0.000 A 
ATOM     27  N   UNL     1       1.367   9.744  18.421  0.00  0.00    +0.000 N 
ATOM     28  S   UNL     1       2.843   7.522  18.088  0.00  0.00    +0.000 S 
ATOM     29  H   UNL     1       1.803  10.075  17.572  0.00  0.00    +0.000 HD
BRANCH  27  30
ATOM     30  C   UNL     1       0.328  10.553  18.923  0.00  0.00    +0.000 A 
ATOM     31  C   UNL     1       0.557  11.581  19.850  0.00  0.00    +0.000 A 
ATOM     32  C   UNL     1      -0.453  12.469  20.222  0.00  0.00    +0.000 A 
ATOM     33  C   UNL     1      -1.723  12.335  19.679  0.00  0.00    +0.000 A 
ATOM     34  C   UNL     1      -1.988  11.299  18.786  0.00  0.00    +0.000 A 
ATOM     35  C   UNL     1      -0.969  10.414  18.410  0.00  0.00    +0.000 A 
ENDBRANCH  27  30
ENDBRANCH  22  23
ENDBRANCH   8  22
TORSDOF 6
ENDMDL
MODEL 9
REMARK VINA RESULT:      -8.2      3.520      7.337
REMARK  Name = 
REMARK  7 active torsions:
REMARK  status: ('A' for Active; 'I' for Inactive)
REMARK    1  A    between atoms: C_1  and  C_2
REMARK    2  A    between atoms: C_6  and  C_7
REMARK    3  A    between atoms: C_7  and  C_8
REMARK    4  A    between atoms: C_11  and  N_12
REMARK    5  A    between atoms: N_18  and  C_19
REMARK    6  A    between atoms: C_19  and  C_20
REMARK    7  A    between atoms: N_24  and  C_25
REMARK                            x       y       z     vdW  Elec       q    Type
REMARK                         _______ _______ _______ _____ _____    ______ ____
ROOT
ATOM      1  C   UNL     1       5.227   4.077  14.018  0.00  0.00    +0.000 C 
ATOM      2  C   UNL     1       6.078   4.778  15.004  0.00  0.00    +0.000 A 
ATOM      3  N   UNL     1       7.357   5.102  14.737  0.00  0.00    +0.000 NA
ATOM      4  O   UNL     1       7.840   5.729  15.889  0.00  0.00    +0.000 OA
ATOM      5  C   UNL     1       6.844   5.758  16.804  0.00  0.00    +0.000 A 
ATOM      6  C   UNL     1       6.944   6.269  18.128  0.00  0.00    +0.000 A 
ATOM      7  N   UNL     1       5.904   6.176  18.918  0.00  0.00    +0.000 NA
ATOM      8  N   UNL     1       4.715   5.583  18.416  0.00  0.00    +0.000 N 
ATOM      9  C   UNL     1       4.547   5.070  17.112  0.00  0.00    +0.000 A 
ATOM     10  O   UNL     1       3.520   4.545  16.703  0.00  0.00    +0.000 OA
ATOM     11  C   UNL     1       5.724   5.177  16.302  0.00  0.00    +0.000 A 
ENDROOT
BRANCH   6  12
ATOM     12  C   UNL     1       8.233   6.879  18.626  0.00  0.00    +0.000 C 
BRANCH  12  13
ATOM     13  C   UNL     1       8.311   8.382  18.474  0.00  0.00    +0.000 A 
ATOM     14  C   UNL     1       9.154   9.145  19.299  0.00  0.00    +0.000 A 
ATOM     15  C   UNL     1       9.301  10.520  19.094  0.00  0.00    +0.000 A 
ATOM     16  C   UNL     1       8.609  11.140  18.048  0.00  0.00    +0.000 A 
ATOM     17  C   UNL     1       7.749  10.400  17.228  0.00  0.00    +0.000 A 
ATOM     18  C   UNL     1       7.603   9.026  17.445  0.00  0.00    +0.000 A 
BRANCH  16  19
ATOM     19  N   UNL     1       8.811  12.571  17.786  0.00  0.00    +0.000 N 
ATOM     20  O   UNL     1       7.810  13.303  17.771  0.00  0.00    +0.000 OA
ATOM     21  O   UNL     1       9.972  12.969  17.610  0.00  0.00    +0.000 OA
ENDBRANCH  16  19
ENDBRANCH  12  13
ENDBRANCH   6  12
BRANCH   8  22
ATOM     22  C   UNL     1       3.563   5.546  19.312  0.00  0.00    +0.000 C 
BRANCH  22  23
ATOM     23  C   UNL     1       2.749   6.794  19.196  0.00  0.00    +0.000 A 
ATOM     24  N   UNL     1       2.625   7.537  18.118  0.00  0.00    +0.000 NA
ATOM     25  N   UNL     1       1.824   8.628  18.338  0.00  0.00    +0.000 NA
ATOM     26  C   UNL     1       1.376   8.721  19.575  0.00  0.00    +0.000 A 
ATOM     27  N   UNL     1       0.611   9.715  20.093  0.00  0.00    +0.000 N 
ATOM     28  S   UNL     1       1.857   7.378  20.549  0.00  0.00    +0.000 S 
ATOM     29  H   UNL     1       0.189   9.586  21.001  0.00  0.00    +0.000 HD
BRANCH  27  30
ATOM     30  C   UNL     1       0.366  10.963  19.483  0.00  0.00    +0.000 A 
ATOM     31  C   UNL     1      -0.830  11.248  18.809  0.00  0.00    +0.000 A 
ATOM     32  C   UNL     1      -1.120  12.531  18.344  0.00  0.00    +0.000 A 
ATOM     33  C   UNL     1      -0.205  13.557  18.534  0.00  0.00    +0.000 A 
ATOM     34  C   UNL     1       1.008  13.292  19.166  0.00  0.00    +0.000 A 
ATOM     35  C   UNL     1       1.292  12.004  19.638  0.00  0.00    +0.000 A 
ENDBRANCH  27  30
ENDBRANCH  22  23
ENDBRANCH   8  22
TORSDOF 6
ENDMDL
