MODEL 1
REMARK VINA RESULT:      -8.0      0.000      0.000
REMARK  Name = 
REMARK  11 active torsions:
REMARK  status: ('A' for Active; 'I' for Inactive)
REMARK    1  A    between atoms: C_2  and  C_29
REMARK    2  A    between atoms: N_3  and  C_4
REMARK    3  A    between atoms: C_4  and  N_6
REMARK    4  A    between atoms: C_10  and  O_11
REMARK    5  A    between atoms: O_11  and  C_12
REMARK    6  A    between atoms: C_12  and  C_13
REMARK    7  A    between atoms: C_13  and  C_14
REMARK    8  A    between atoms: C_14  and  C_15
REMARK    9  A    between atoms: C_15  and  C_16
REMARK   10  A    between atoms: C_16  and  O_17
REMARK   11  A    between atoms: O_17  and  C_18
REMARK                            x       y       z     vdW  Elec       q    Type
REMARK                         _______ _______ _______ _____ _____    ______ ____
ROOT
ATOM      1  N   UNL     1       0.613  10.196  19.989  0.00  0.00    +0.000 N 
ATOM      2  C   UNL     1       0.347   9.607  21.336  0.00  0.00    +0.000 C 
ATOM      3  C   UNL     1       1.155   8.320  21.468  0.00  0.00    +0.000 C 
ATOM      4  C   UNL     1       1.617   8.108  20.062  0.00  0.00    +0.000 A 
ATOM      5  C   UNL     1       2.361   7.020  19.599  0.00  0.00    +0.000 A 
ATOM      6  C   UNL     1       2.818   7.070  18.283  0.00  0.00    +0.000 A 
ATOM      7  C   UNL     1       2.570   8.196  17.476  0.00  0.00    +0.000 A 
ATOM      8  C   UNL     1       1.844   9.287  17.969  0.00  0.00    +0.000 A 
ATOM      9  C   UNL     1       1.336   9.226  19.255  0.00  0.00    +0.000 A 
ENDROOT
BRANCH   1  10
ATOM     10  C   UNL     1       0.276  11.516  19.665  0.00  0.00    +0.000 C 
ATOM     11  S   UNL     1       1.360  12.768  20.013  0.00  0.00    +0.000 S 
BRANCH  10  14
ATOM     12  O   UNL     1      -2.287  12.220  20.922  0.00  0.00    +0.000 OA
ATOM     13  C   UNL     1      -2.197  11.969  19.724  0.00  0.00    +0.000 C 
ATOM     14  N   UNL     1      -0.978  11.714  19.070  0.00  0.00    +0.000 N 
ATOM     15  H   UNL     1      -1.058  11.478  18.092  0.00  0.00    +0.000 HD
BRANCH  13  16
ATOM     16  C   UNL     1      -3.409  11.991  18.922  0.00  0.00    +0.000 A 
ATOM     17  C   UNL     1      -4.675  12.398  19.317  0.00  0.00    +0.000 A 
ATOM     18  C   UNL     1      -5.529  12.252  18.208  0.00  0.00    +0.000 A 
ATOM     19  C   UNL     1      -4.741  11.755  17.195  0.00  0.00    +0.000 A 
ATOM     20  O   UNL     1      -3.448  11.598  17.612  0.00  0.00    +0.000 OA
ENDBRANCH  13  16
ENDBRANCH  10  14
ENDBRANCH   1  10
BRANCH   5  21
ATOM     21  O   UNL     1       2.597   6.007  20.486  0.00  0.00    +0.000 OA
BRANCH  21  22
ATOM     22  C   UNL     1       1.489   5.158  20.792  0.00  0.00    +0.000 C 
BRANCH  22  23
ATOM     23  C   UNL     1       1.874   3.693  20.579  0.00  0.00    +0.000 C 
BRANCH  23  24
ATOM     24  C   UNL     1       0.977   2.951  19.578  0.00  0.00    +0.000 C 
BRANCH  24  25
ATOM     25  C   UNL     1       1.715   2.313  18.395  0.00  0.00    +0.000 C 
BRANCH  25  26
ATOM     26  C   UNL     1       2.416   3.353  17.526  0.00  0.00    +0.000 C 
BRANCH  26  27
ATOM     27  O   UNL     1       3.787   2.995  17.345  0.00  0.00    +0.000 OA
BRANCH  27  28
ATOM     28  C   UNL     1       4.690   4.009  17.541  0.00  0.00    +0.000 A 
ATOM     29  C   UNL     1       5.268   4.359  18.767  0.00  0.00    +0.000 A 
ATOM     30  C   UNL     1       6.188   5.406  18.841  0.00  0.00    +0.000 A 
ATOM     31  C   UNL     1       6.532   6.108  17.691  0.00  0.00    +0.000 A 
ATOM     32 CL   UNL     1       7.672   7.394  17.786  0.00  0.00    +0.000 Cl
ATOM     33  C   UNL     1       5.959   5.773  16.463  0.00  0.00    +0.000 A 
ATOM     34  C   UNL     1       5.039   4.725  16.393  0.00  0.00    +0.000 A 
ENDBRANCH  27  28
ENDBRANCH  26  27
ENDBRANCH  25  26
ENDBRANCH  24  25
ENDBRANCH  23  24
ENDBRANCH  22  23
ENDBRANCH  21  22
ENDBRANCH   5  21
TORSDOF 11
ENDMDL
MODEL 2
REMARK VINA RESULT:      -7.9      0.974      1.280
REMARK  Name = 
REMARK  11 active torsions:
REMARK  status: ('A' for Active; 'I' for Inactive)
REMARK    1  A    between atoms: C_2  and  C_29
REMARK    2  A    between atoms: N_3  and  C_4
REMARK    3  A    between atoms: C_4  and  N_6
REMARK    4  A    between atoms: C_10  and  O_11
REMARK    5  A    between atoms: O_11  and  C_12
REMARK    6  A    between atoms: C_12  and  C_13
REMARK    7  A    between atoms: C_13  and  C_14
REMARK    8  A    between atoms: C_14  and  C_15
REMARK    9  A    between atoms: C_15  and  C_16
REMARK   10  A    between atoms: C_16  and  O_17
REMARK   11  A    between atoms: O_17  and  C_18
REMARK                            x       y       z     vdW  Elec       q    Type
REMARK                         _______ _______ _______ _____ _____    ______ ____
ROOT
ATOM      1  N   UNL     1       0.290  10.025  20.272  0.00  0.00    +0.000 N 
ATOM      2  C   UNL     1       0.071   9.313  21.566  0.00  0.00    +0.000 C 
ATOM      3  C   UNL     1       0.974   8.084  21.600  0.00  0.00    +0.000 C 
ATOM      4  C   UNL     1       1.449   8.020  20.184  0.00  0.00    +0.000 A 
ATOM      5  C   UNL     1       2.272   7.030  19.639  0.00  0.00    +0.000 A 
ATOM      6  C   UNL     1       2.722   7.219  18.334  0.00  0.00    +0.000 A 
ATOM      7  C   UNL     1       2.389   8.384  17.618  0.00  0.00    +0.000 A 
ATOM      8  C   UNL     1       1.584   9.375  18.192  0.00  0.00    +0.000 A 
ATOM      9  C   UNL     1       1.084   9.174  19.467  0.00  0.00    +0.000 A 
ENDROOT
BRANCH   1  10
ATOM     10  C   UNL     1      -0.145  11.338  20.052  0.00  0.00    +0.000 C 
ATOM     11  S   UNL     1       0.955  12.617  20.169  0.00  0.00    +0.000 S 
BRANCH  10  14
ATOM     12  O   UNL     1      -1.592  10.745  17.562  0.00  0.00    +0.000 OA
ATOM     13  C   UNL     1      -2.139  11.284  18.520  0.00  0.00    +0.000 C 
ATOM     14  N   UNL     1      -1.505  11.505  19.756  0.00  0.00    +0.000 N 
ATOM     15  H   UNL     1      -2.060  12.000  20.439  0.00  0.00    +0.000 HD
BRANCH  13  16
ATOM     16  C   UNL     1      -3.535  11.667  18.391  0.00  0.00    +0.000 A 
ATOM     17  C   UNL     1      -4.368  11.466  17.300  0.00  0.00    +0.000 A 
ATOM     18  C   UNL     1      -5.629  11.994  17.632  0.00  0.00    +0.000 A 
ATOM     19  C   UNL     1      -5.499  12.497  18.906  0.00  0.00    +0.000 A 
ATOM     20  O   UNL     1      -4.233  12.299  19.384  0.00  0.00    +0.000 OA
ENDBRANCH  13  16
ENDBRANCH  10  14
ENDBRANCH   1  10
BRANCH   5  21
ATOM     21  O   UNL     1       2.585   5.970  20.444  0.00  0.00    +0.000 OA
BRANCH  21  22
ATOM     22  C   UNL     1       1.573   4.974  20.606  0.00  0.00    +0.000 C 
BRANCH  22  23
ATOM     23  C   UNL     1       2.002   3.673  19.927  0.00  0.00    +0.000 C 
BRANCH  23  24
ATOM     24  C   UNL     1       1.432   3.489  18.514  0.00  0.00    +0.000 C 
BRANCH  24  25
ATOM     25  C   UNL     1       2.464   3.563  17.382  0.00  0.00    +0.000 C 
BRANCH  25  26
ATOM     26  C   UNL     1       3.885   3.323  17.884  0.00  0.00    +0.000 C 
BRANCH  26  27
ATOM     27  O   UNL     1       4.826   3.661  16.865  0.00  0.00    +0.000 OA
BRANCH  27  28
ATOM     28  C   UNL     1       5.666   4.705  17.162  0.00  0.00    +0.000 A 
ATOM     29  C   UNL     1       6.747   4.652  18.049  0.00  0.00    +0.000 A 
ATOM     30  C   UNL     1       7.541   5.781  18.264  0.00  0.00    +0.000 A 
ATOM     31  C   UNL     1       7.256   6.966  17.593  0.00  0.00    +0.000 A 
ATOM     32 CL   UNL     1       8.242   8.352  17.855  0.00  0.00    +0.000 Cl
ATOM     33  C   UNL     1       6.177   7.033  16.710  0.00  0.00    +0.000 A 
ATOM     34  C   UNL     1       5.385   5.902  16.499  0.00  0.00    +0.000 A 
ENDBRANCH  27  28
ENDBRANCH  26  27
ENDBRANCH  25  26
ENDBRANCH  24  25
ENDBRANCH  23  24
ENDBRANCH  22  23
ENDBRANCH  21  22
ENDBRANCH   5  21
TORSDOF 11
ENDMDL
MODEL 3
REMARK VINA RESULT:      -7.8      1.004      1.344
REMARK  Name = 
REMARK  11 active torsions:
REMARK  status: ('A' for Active; 'I' for Inactive)
REMARK    1  A    between atoms: C_2  and  C_29
REMARK    2  A    between atoms: N_3  and  C_4
REMARK    3  A    between atoms: C_4  and  N_6
REMARK    4  A    between atoms: C_10  and  O_11
REMARK    5  A    between atoms: O_11  and  C_12
REMARK    6  A    between atoms: C_12  and  C_13
REMARK    7  A    between atoms: C_13  and  C_14
REMARK    8  A    between atoms: C_14  and  C_15
REMARK    9  A    between atoms: C_15  and  C_16
REMARK   10  A    between atoms: C_16  and  O_17
REMARK   11  A    between atoms: O_17  and  C_18
REMARK                            x       y       z     vdW  Elec       q    Type
REMARK                         _______ _______ _______ _____ _____    ______ ____
ROOT
ATOM      1  N   UNL     1       0.180  10.160  20.443  0.00  0.00    +0.000 N 
ATOM      2  C   UNL     1       0.082   9.343  21.689  0.00  0.00    +0.000 C 
ATOM      3  C   UNL     1       1.058   8.176  21.580  0.00  0.00    +0.000 C 
ATOM      4  C   UNL     1       1.452   8.246  20.139  0.00  0.00    +0.000 A 
ATOM      5  C   UNL     1       2.300   7.355  19.477  0.00  0.00    +0.000 A 
ATOM      6  C   UNL     1       2.660   7.666  18.167  0.00  0.00    +0.000 A 
ATOM      7  C   UNL     1       2.214   8.856  17.561  0.00  0.00    +0.000 A 
ATOM      8  C   UNL     1       1.385   9.749  18.252  0.00  0.00    +0.000 A 
ATOM      9  C   UNL     1       0.975   9.423  19.533  0.00  0.00    +0.000 A 
ENDROOT
BRANCH   1  10
ATOM     10  C   UNL     1      -0.347  11.454  20.347  0.00  0.00    +0.000 C 
ATOM     11  S   UNL     1       0.656  12.790  20.616  0.00  0.00    +0.000 S 
BRANCH  10  14
ATOM     12  O   UNL     1      -1.652  11.695  17.724  0.00  0.00    +0.000 OA
ATOM     13  C   UNL     1      -2.286  11.751  18.773  0.00  0.00    +0.000 C 
ATOM     14  N   UNL     1      -1.712  11.553  20.042  0.00  0.00    +0.000 N 
ATOM     15  H   UNL     1      -2.343  11.674  20.820  0.00  0.00    +0.000 HD
BRANCH  13  16
ATOM     16  C   UNL     1      -3.719  11.978  18.701  0.00  0.00    +0.000 A 
ATOM     17  C   UNL     1      -4.533  12.548  19.670  0.00  0.00    +0.000 A 
ATOM     18  C   UNL     1      -5.843  12.569  19.158  0.00  0.00    +0.000 A 
ATOM     19  C   UNL     1      -5.763  12.004  17.906  0.00  0.00    +0.000 A 
ATOM     20  O   UNL     1      -4.477  11.647  17.611  0.00  0.00    +0.000 OA
ENDBRANCH  13  16
ENDBRANCH  10  14
ENDBRANCH   1  10
BRANCH   5  21
ATOM     21  O   UNL     1       2.724   6.262  20.181  0.00  0.00    +0.000 OA
BRANCH  21  22
ATOM     22  C   UNL     1       1.969   5.061  20.006  0.00  0.00    +0.000 C 
BRANCH  22  23
ATOM     23  C   UNL     1       2.096   4.176  21.246  0.00  0.00    +0.000 C 
BRANCH  23  24
ATOM     24  C   UNL     1       1.884   2.680  20.971  0.00  0.00    +0.000 C 
BRANCH  24  25
ATOM     25  C   UNL     1       2.086   2.254  19.512  0.00  0.00    +0.000 C 
BRANCH  25  26
ATOM     26  C   UNL     1       3.560   2.060  19.169  0.00  0.00    +0.000 C 
BRANCH  26  27
ATOM     27  O   UNL     1       3.798   2.427  17.810  0.00  0.00    +0.000 OA
BRANCH  27  28
ATOM     28  C   UNL     1       4.484   3.601  17.628  0.00  0.00    +0.000 A 
ATOM     29  C   UNL     1       4.550   4.329  16.435  0.00  0.00    +0.000 A 
ATOM     30  C   UNL     1       5.274   5.521  16.373  0.00  0.00    +0.000 A 
ATOM     31  C   UNL     1       5.934   5.990  17.504  0.00  0.00    +0.000 A 
ATOM     32 CL   UNL     1       6.818   7.464  17.426  0.00  0.00    +0.000 Cl
ATOM     33  C   UNL     1       5.880   5.270  18.699  0.00  0.00    +0.000 A 
ATOM     34  C   UNL     1       5.156   4.078  18.756  0.00  0.00    +0.000 A 
ENDBRANCH  27  28
ENDBRANCH  26  27
ENDBRANCH  25  26
ENDBRANCH  24  25
ENDBRANCH  23  24
ENDBRANCH  22  23
ENDBRANCH  21  22
ENDBRANCH   5  21
TORSDOF 11
ENDMDL
MODEL 4
REMARK VINA RESULT:      -7.7      2.589      3.920
REMARK  Name = 
REMARK  11 active torsions:
REMARK  status: ('A' for Active; 'I' for Inactive)
REMARK    1  A    between atoms: C_2  and  C_29
REMARK    2  A    between atoms: N_3  and  C_4
REMARK    3  A    between atoms: C_4  and  N_6
REMARK    4  A    between atoms: C_10  and  O_11
REMARK    5  A    between atoms: O_11  and  C_12
REMARK    6  A    between atoms: C_12  and  C_13
REMARK    7  A    between atoms: C_13  and  C_14
REMARK    8  A    between atoms: C_14  and  C_15
REMARK    9  A    between atoms: C_15  and  C_16
REMARK   10  A    between atoms: C_16  and  O_17
REMARK   11  A    between atoms: O_17  and  C_18
REMARK                            x       y       z     vdW  Elec       q    Type
REMARK                         _______ _______ _______ _____ _____    ______ ____
ROOT
ATOM      1  N   UNL     1       0.360  10.491  19.808  0.00  0.00    +0.000 N 
ATOM      2  C   UNL     1      -0.241  10.020  21.091  0.00  0.00    +0.000 C 
ATOM      3  C   UNL     1       0.399   8.686  21.463  0.00  0.00    +0.000 C 
ATOM      4  C   UNL     1       1.130   8.341  20.206  0.00  0.00    +0.000 A 
ATOM      5  C   UNL     1       1.853   7.168  19.973  0.00  0.00    +0.000 A 
ATOM      6  C   UNL     1       2.584   7.090  18.789  0.00  0.00    +0.000 A 
ATOM      7  C   UNL     1       2.619   8.173  17.891  0.00  0.00    +0.000 A 
ATOM      8  C   UNL     1       1.908   9.350  18.156  0.00  0.00    +0.000 A 
ATOM      9  C   UNL     1       1.132   9.419  19.301  0.00  0.00    +0.000 A 
ENDROOT
BRANCH   1  10
ATOM     10  C   UNL     1       0.223  11.808  19.351  0.00  0.00    +0.000 C 
ATOM     11  S   UNL     1      -1.084  12.219  18.359  0.00  0.00    +0.000 S 
BRANCH  10  14
ATOM     12  O   UNL     1       2.570  12.763  17.860  0.00  0.00    +0.000 OA
ATOM     13  C   UNL     1       2.369  13.079  19.028  0.00  0.00    +0.000 C 
ATOM     14  N   UNL     1       1.216  12.714  19.746  0.00  0.00    +0.000 N 
ATOM     15  H   UNL     1       1.205  13.005  20.713  0.00  0.00    +0.000 HD
BRANCH  13  16
ATOM     16  C   UNL     1       3.348  13.924  19.692  0.00  0.00    +0.000 A 
ATOM     17  C   UNL     1       3.449  14.190  21.049  0.00  0.00    +0.000 A 
ATOM     18  C   UNL     1       4.548  15.050  21.228  0.00  0.00    +0.000 A 
ATOM     19  C   UNL     1       5.057  15.270  19.968  0.00  0.00    +0.000 A 
ATOM     20  O   UNL     1       4.342  14.586  19.024  0.00  0.00    +0.000 OA
ENDBRANCH  13  16
ENDBRANCH  10  14
ENDBRANCH   1  10
BRANCH   5  21
ATOM     21  O   UNL     1       1.800   6.204  20.941  0.00  0.00    +0.000 OA
BRANCH  21  22
ATOM     22  C   UNL     1       2.568   5.022  20.704  0.00  0.00    +0.000 C 
BRANCH  22  23
ATOM     23  C   UNL     1       1.669   3.787  20.777  0.00  0.00    +0.000 C 
BRANCH  23  24
ATOM     24  C   UNL     1       2.027   2.692  19.762  0.00  0.00    +0.000 C 
BRANCH  24  25
ATOM     25  C   UNL     1       1.439   2.890  18.360  0.00  0.00    +0.000 C 
BRANCH  25  26
ATOM     26  C   UNL     1       2.410   3.607  17.426  0.00  0.00    +0.000 C 
BRANCH  26  27
ATOM     27  O   UNL     1       3.748   3.192  17.701  0.00  0.00    +0.000 OA
BRANCH  27  28
ATOM     28  C   UNL     1       4.679   4.200  17.749  0.00  0.00    +0.000 A 
ATOM     29  C   UNL     1       5.506   4.493  18.839  0.00  0.00    +0.000 A 
ATOM     30  C   UNL     1       6.426   5.540  18.766  0.00  0.00    +0.000 A 
ATOM     31  C   UNL     1       6.522   6.299  17.604  0.00  0.00    +0.000 A 
ATOM     32 CL   UNL     1       7.663   7.584  17.516  0.00  0.00    +0.000 Cl
ATOM     33  C   UNL     1       5.698   6.021  16.512  0.00  0.00    +0.000 A 
ATOM     34  C   UNL     1       4.778   4.973  16.589  0.00  0.00    +0.000 A 
ENDBRANCH  27  28
ENDBRANCH  26  27
ENDBRANCH  25  26
ENDBRANCH  24  25
ENDBRANCH  23  24
ENDBRANCH  22  23
ENDBRANCH  21  22
ENDBRANCH   5  21
TORSDOF 11
ENDMDL
MODEL 5
REMARK VINA RESULT:      -7.5      2.604      3.990
REMARK  Name = 
REMARK  11 active torsions:
REMARK  status: ('A' for Active; 'I' for Inactive)
REMARK    1  A    between atoms: C_2  and  C_29
REMARK    2  A    between atoms: N_3  and  C_4
REMARK    3  A    between atoms: C_4  and  N_6
REMARK    4  A    between atoms: C_10  and  O_11
REMARK    5  A    between atoms: O_11  and  C_12
REMARK    6  A    between atoms: C_12  and  C_13
REMARK    7  A    between atoms: C_13  and  C_14
REMARK    8  A    between atoms: C_14  and  C_15
REMARK    9  A    between atoms: C_15  and  C_16
REMARK   10  A    between atoms: C_16  and  O_17
REMARK   11  A    between atoms: O_17  and  C_18
REMARK                            x       y       z     vdW  Elec       q    Type
REMARK                         _______ _______ _______ _____ _____    ______ ____
ROOT
ATOM      1  N   UNL     1       0.338  10.621  20.016  0.00  0.00    +0.000 N 
ATOM      2  C   UNL     1      -0.181  10.101  21.316  0.00  0.00    +0.000 C 
ATOM      3  C   UNL     1       0.483   8.757  21.598  0.00  0.00    +0.000 C 
ATOM      4  C   UNL     1       1.136   8.462  20.286  0.00  0.00    +0.000 A 
ATOM      5  C   UNL     1       1.845   7.301  19.966  0.00  0.00    +0.000 A 
ATOM      6  C   UNL     1       2.501   7.270  18.736  0.00  0.00    +0.000 A 
ATOM      7  C   UNL     1       2.477   8.385  17.878  0.00  0.00    +0.000 A 
ATOM      8  C   UNL     1       1.781   9.549  18.230  0.00  0.00    +0.000 A 
ATOM      9  C   UNL     1       1.079   9.572  19.423  0.00  0.00    +0.000 A 
ENDROOT
BRANCH   1  10
ATOM     10  C   UNL     1       0.170  11.953  19.617  0.00  0.00    +0.000 C 
ATOM     11  S   UNL     1      -0.985  12.337  18.441  0.00  0.00    +0.000 S 
BRANCH  10  14
ATOM     12  O   UNL     1       2.724  13.062  18.673  0.00  0.00    +0.000 OA
ATOM     13  C   UNL     1       2.262  13.340  19.775  0.00  0.00    +0.000 C 
ATOM     14  N   UNL     1       1.004  12.900  20.226  0.00  0.00    +0.000 N 
ATOM     15  H   UNL     1       0.772  13.166  21.172  0.00  0.00    +0.000 HD
BRANCH  13  16
ATOM     16  C   UNL     1       3.029  14.217  20.643  0.00  0.00    +0.000 A 
ATOM     17  C   UNL     1       2.564  14.951  21.724  0.00  0.00    +0.000 A 
ATOM     18  C   UNL     1       3.662  15.645  22.265  0.00  0.00    +0.000 A 
ATOM     19  C   UNL     1       4.740  15.304  21.481  0.00  0.00    +0.000 A 
ATOM     20  O   UNL     1       4.372  14.430  20.495  0.00  0.00    +0.000 OA
ENDBRANCH  13  16
ENDBRANCH  10  14
ENDBRANCH   1  10
BRANCH   5  21
ATOM     21  O   UNL     1       1.854   6.302  20.899  0.00  0.00    +0.000 OA
BRANCH  21  22
ATOM     22  C   UNL     1       2.390   5.045  20.480  0.00  0.00    +0.000 C 
BRANCH  22  23
ATOM     23  C   UNL     1       1.269   4.138  19.972  0.00  0.00    +0.000 C 
BRANCH  23  24
ATOM     24  C   UNL     1       1.666   2.660  19.853  0.00  0.00    +0.000 C 
BRANCH  24  25
ATOM     25  C   UNL     1       2.002   2.191  18.432  0.00  0.00    +0.000 C 
BRANCH  25  26
ATOM     26  C   UNL     1       3.438   2.527  18.041  0.00  0.00    +0.000 C 
BRANCH  26  27
ATOM     27  O   UNL     1       3.453   3.631  17.136  0.00  0.00    +0.000 OA
BRANCH  27  28
ATOM     28  C   UNL     1       4.489   4.515  17.304  0.00  0.00    +0.000 A 
ATOM     29  C   UNL     1       4.824   5.552  16.426  0.00  0.00    +0.000 A 
ATOM     30  C   UNL     1       5.897   6.399  16.709  0.00  0.00    +0.000 A 
ATOM     31  C   UNL     1       6.639   6.212  17.870  0.00  0.00    +0.000 A 
ATOM     32 CL   UNL     1       7.957   7.263  18.218  0.00  0.00    +0.000 Cl
ATOM     33  C   UNL     1       6.319   5.178  18.751  0.00  0.00    +0.000 A 
ATOM     34  C   UNL     1       5.245   4.333  18.464  0.00  0.00    +0.000 A 
ENDBRANCH  27  28
ENDBRANCH  26  27
ENDBRANCH  25  26
ENDBRANCH  24  25
ENDBRANCH  23  24
ENDBRANCH  22  23
ENDBRANCH  21  22
ENDBRANCH   5  21
TORSDOF 11
ENDMDL
MODEL 6
REMARK VINA RESULT:      -7.4      1.447      1.938
REMARK  Name = 
REMARK  11 active torsions:
REMARK  status: ('A' for Active; 'I' for Inactive)
REMARK    1  A    between atoms: C_2  and  C_29
REMARK    2  A    between atoms: N_3  and  C_4
REMARK    3  A    between atoms: C_4  and  N_6
REMARK    4  A    between atoms: C_10  and  O_11
REMARK    5  A    between atoms: O_11  and  C_12
REMARK    6  A    between atoms: C_12  and  C_13
REMARK    7  A    between atoms: C_13  and  C_14
REMARK    8  A    between atoms: C_14  and  C_15
REMARK    9  A    between atoms: C_15  and  C_16
REMARK   10  A    between atoms: C_16  and  O_17
REMARK   11  A    between atoms: O_17  and  C_18
REMARK                            x       y       z     vdW  Elec       q    Type
REMARK                         _______ _______ _______ _____ _____    ______ ____
ROOT
ATOM      1  N   UNL     1       0.687   9.867  19.688  0.00  0.00    +0.000 N 
ATOM      2  C   UNL     1       0.347   9.332  21.040  0.00  0.00    +0.000 C 
ATOM      3  C   UNL     1       1.200   8.093  21.297  0.00  0.00    +0.000 C 
ATOM      4  C   UNL     1       1.776   7.836  19.942  0.00  0.00    +0.000 A 
ATOM      5  C   UNL     1       2.600   6.764  19.591  0.00  0.00    +0.000 A 
ATOM      6  C   UNL     1       3.152   6.772  18.311  0.00  0.00    +0.000 A 
ATOM      7  C   UNL     1       2.916   7.845  17.431  0.00  0.00    +0.000 A 
ATOM      8  C   UNL     1       2.107   8.923  17.812  0.00  0.00    +0.000 A 
ATOM      9  C   UNL     1       1.507   8.899  19.059  0.00  0.00    +0.000 A 
ENDROOT
BRANCH   1  10
ATOM     10  C   UNL     1       0.317  11.152  19.271  0.00  0.00    +0.000 C 
ATOM     11  S   UNL     1       1.495  12.357  19.123  0.00  0.00    +0.000 S 
BRANCH  10  14
ATOM     12  O   UNL     1      -1.429   9.817  17.319  0.00  0.00    +0.000 OA
ATOM     13  C   UNL     1      -1.821  10.752  18.010  0.00  0.00    +0.000 C 
ATOM     14  N   UNL     1      -1.045  11.359  19.014  0.00  0.00    +0.000 N 
ATOM     15  H   UNL     1      -1.478  12.147  19.472  0.00  0.00    +0.000 HD
BRANCH  13  16
ATOM     16  C   UNL     1      -3.182  11.226  17.820  0.00  0.00    +0.000 A 
ATOM     17  C   UNL     1      -3.868  11.366  16.623  0.00  0.00    +0.000 A 
ATOM     18  C   UNL     1      -5.153  11.849  16.929  0.00  0.00    +0.000 A 
ATOM     19  C   UNL     1      -5.183  11.986  18.298  0.00  0.00    +0.000 A 
ATOM     20  O   UNL     1      -3.994  11.604  18.855  0.00  0.00    +0.000 OA
ENDBRANCH  13  16
ENDBRANCH  10  14
ENDBRANCH   1  10
BRANCH   5  21
ATOM     21  O   UNL     1       2.814   5.808  20.544  0.00  0.00    +0.000 OA
BRANCH  21  22
ATOM     22  C   UNL     1       1.811   4.797  20.667  0.00  0.00    +0.000 C 
BRANCH  22  23
ATOM     23  C   UNL     1       1.388   4.305  19.282  0.00  0.00    +0.000 C 
BRANCH  23  24
ATOM     24  C   UNL     1       1.542   2.790  19.083  0.00  0.00    +0.000 C 
BRANCH  24  25
ATOM     25  C   UNL     1       2.980   2.266  19.174  0.00  0.00    +0.000 C 
BRANCH  25  26
ATOM     26  C   UNL     1       3.758   2.497  17.882  0.00  0.00    +0.000 C 
BRANCH  26  27
ATOM     27  O   UNL     1       4.621   3.625  18.027  0.00  0.00    +0.000 OA
BRANCH  27  28
ATOM     28  C   UNL     1       5.289   4.006  16.890  0.00  0.00    +0.000 A 
ATOM     29  C   UNL     1       4.773   3.962  15.590  0.00  0.00    +0.000 A 
ATOM     30  C   UNL     1       5.546   4.388  14.508  0.00  0.00    +0.000 A 
ATOM     31  C   UNL     1       6.837   4.858  14.722  0.00  0.00    +0.000 A 
ATOM     32 CL   UNL     1       7.783   5.389  13.386  0.00  0.00    +0.000 Cl
ATOM     33  C   UNL     1       7.366   4.901  16.013  0.00  0.00    +0.000 A 
ATOM     34  C   UNL     1       6.590   4.474  17.092  0.00  0.00    +0.000 A 
ENDBRANCH  27  28
ENDBRANCH  26  27
ENDBRANCH  25  26
ENDBRANCH  24  25
ENDBRANCH  23  24
ENDBRANCH  22  23
ENDBRANCH  21  22
ENDBRANCH   5  21
TORSDOF 11
ENDMDL
MODEL 7
REMARK VINA RESULT:      -7.2      1.377      1.726
REMARK  Name = 
REMARK  11 active torsions:
REMARK  status: ('A' for Active; 'I' for Inactive)
REMARK    1  A    between atoms: C_2  and  C_29
REMARK    2  A    between atoms: N_3  and  C_4
REMARK    3  A    between atoms: C_4  and  N_6
REMARK    4  A    between atoms: C_10  and  O_11
REMARK    5  A    between atoms: O_11  and  C_12
REMARK    6  A    between atoms: C_12  and  C_13
REMARK    7  A    between atoms: C_13  and  C_14
REMARK    8  A    between atoms: C_14  and  C_15
REMARK    9  A    between atoms: C_15  and  C_16
REMARK   10  A    between atoms: C_16  and  O_17
REMARK   11  A    between atoms: O_17  and  C_18
REMARK                            x       y       z     vdW  Elec       q    Type
REMARK                         _______ _______ _______ _____ _____    ______ ____
ROOT
ATOM      1  N   UNL     1       0.198  10.001  20.122  0.00  0.00    +0.000 N 
ATOM      2  C   UNL     1      -0.023   9.345  21.445  0.00  0.00    +0.000 C 
ATOM      3  C   UNL     1       0.930   8.158  21.561  0.00  0.00    +0.000 C 
ATOM      4  C   UNL     1       1.442   8.045  20.160  0.00  0.00    +0.000 A 
ATOM      5  C   UNL     1       2.318   7.067  19.684  0.00  0.00    +0.000 A 
ATOM      6  C   UNL     1       2.792   7.210  18.382  0.00  0.00    +0.000 A 
ATOM      7  C   UNL     1       2.428   8.323  17.601  0.00  0.00    +0.000 A 
ATOM      8  C   UNL     1       1.568   9.306  18.106  0.00  0.00    +0.000 A 
ATOM      9  C   UNL     1       1.046   9.146  19.378  0.00  0.00    +0.000 A 
ENDROOT
BRANCH   1  10
ATOM     10  C   UNL     1      -0.287  11.281  19.827  0.00  0.00    +0.000 C 
ATOM     11  S   UNL     1       0.783  12.592  19.777  0.00  0.00    +0.000 S 
BRANCH  10  14
ATOM     12  O   UNL     1      -1.734  11.610  17.289  0.00  0.00    +0.000 OA
ATOM     13  C   UNL     1      -2.309  11.632  18.373  0.00  0.00    +0.000 C 
ATOM     14  N   UNL     1      -1.665  11.392  19.601  0.00  0.00    +0.000 N 
ATOM     15  H   UNL     1      -2.252  11.488  20.417  0.00  0.00    +0.000 HD
BRANCH  13  16
ATOM     16  C   UNL     1      -3.743  11.864  18.389  0.00  0.00    +0.000 A 
ATOM     17  C   UNL     1      -4.677  11.437  17.456  0.00  0.00    +0.000 A 
ATOM     18  C   UNL     1      -5.938  11.887  17.887  0.00  0.00    +0.000 A 
ATOM     19  C   UNL     1      -5.708  12.573  19.058  0.00  0.00    +0.000 A 
ATOM     20  O   UNL     1      -4.379  12.561  19.380  0.00  0.00    +0.000 OA
ENDBRANCH  13  16
ENDBRANCH  10  14
ENDBRANCH   1  10
BRANCH   5  21
ATOM     21  O   UNL     1       2.655   6.062  20.548  0.00  0.00    +0.000 OA
BRANCH  21  22
ATOM     22  C   UNL     1       1.665   5.055  20.771  0.00  0.00    +0.000 C 
BRANCH  22  23
ATOM     23  C   UNL     1       2.333   3.742  21.179  0.00  0.00    +0.000 C 
BRANCH  23  24
ATOM     24  C   UNL     1       2.119   2.595  20.181  0.00  0.00    +0.000 C 
BRANCH  24  25
ATOM     25  C   UNL     1       3.049   2.612  18.963  0.00  0.00    +0.000 C 
BRANCH  25  26
ATOM     26  C   UNL     1       4.488   2.948  19.343  0.00  0.00    +0.000 C 
BRANCH  26  27
ATOM     27  O   UNL     1       4.787   4.297  18.981  0.00  0.00    +0.000 OA
BRANCH  27  28
ATOM     28  C   UNL     1       5.454   4.453  17.792  0.00  0.00    +0.000 A 
ATOM     29  C   UNL     1       6.838   4.607  17.649  0.00  0.00    +0.000 A 
ATOM     30  C   UNL     1       7.406   4.746  16.382  0.00  0.00    +0.000 A 
ATOM     31  C   UNL     1       6.594   4.734  15.253  0.00  0.00    +0.000 A 
ATOM     32 CL   UNL     1       7.300   4.900  13.692  0.00  0.00    +0.000 Cl
ATOM     33  C   UNL     1       5.212   4.588  15.382  0.00  0.00    +0.000 A 
ATOM     34  C   UNL     1       4.647   4.449  16.652  0.00  0.00    +0.000 A 
ENDBRANCH  27  28
ENDBRANCH  26  27
ENDBRANCH  25  26
ENDBRANCH  24  25
ENDBRANCH  23  24
ENDBRANCH  22  23
ENDBRANCH  21  22
ENDBRANCH   5  21
TORSDOF 11
ENDMDL
MODEL 8
REMARK VINA RESULT:      -7.2      2.532      3.843
REMARK  Name = 
REMARK  11 active torsions:
REMARK  status: ('A' for Active; 'I' for Inactive)
REMARK    1  A    between atoms: C_2  and  C_29
REMARK    2  A    between atoms: N_3  and  C_4
REMARK    3  A    between atoms: C_4  and  N_6
REMARK    4  A    between atoms: C_10  and  O_11
REMARK    5  A    between atoms: O_11  and  C_12
REMARK    6  A    between atoms: C_12  and  C_13
REMARK    7  A    between atoms: C_13  and  C_14
REMARK    8  A    between atoms: C_14  and  C_15
REMARK    9  A    between atoms: C_15  and  C_16
REMARK   10  A    between atoms: C_16  and  O_17
REMARK   11  A    between atoms: O_17  and  C_18
REMARK                            x       y       z     vdW  Elec       q    Type
REMARK                         _______ _______ _______ _____ _____    ______ ____
ROOT
ATOM      1  N   UNL     1       0.327  10.837  20.784  0.00  0.00    +0.000 N 
ATOM      2  C   UNL     1       0.171  10.024  22.027  0.00  0.00    +0.000 C 
ATOM      3  C   UNL     1       0.942   8.720  21.852  0.00  0.00    +0.000 C 
ATOM      4  C   UNL     1       1.260   8.751  20.391  0.00  0.00    +0.000 A 
ATOM      5  C   UNL     1       1.916   7.749  19.673  0.00  0.00    +0.000 A 
ATOM      6  C   UNL     1       2.246   8.022  18.347  0.00  0.00    +0.000 A 
ATOM      7  C   UNL     1       1.962   9.278  17.777  0.00  0.00    +0.000 A 
ATOM      8  C   UNL     1       1.325  10.278  18.523  0.00  0.00    +0.000 A 
ATOM      9  C   UNL     1       0.941   9.999  19.823  0.00  0.00    +0.000 A 
ENDROOT
BRANCH   1  10
ATOM     10  C   UNL     1       0.007  12.199  20.730  0.00  0.00    +0.000 C 
ATOM     11  S   UNL     1      -1.593  12.695  20.970  0.00  0.00    +0.000 S 
BRANCH  10  14
ATOM     12  O   UNL     1       0.519  13.802  18.319  0.00  0.00    +0.000 OA
ATOM     13  C   UNL     1       1.311  13.764  19.255  0.00  0.00    +0.000 C 
ATOM     14  N   UNL     1       1.063  13.080  20.459  0.00  0.00    +0.000 N 
ATOM     15  H   UNL     1       1.823  13.095  21.124  0.00  0.00    +0.000 HD
BRANCH  13  16
ATOM     16  C   UNL     1       2.553  14.511  19.139  0.00  0.00    +0.000 A 
ATOM     17  C   UNL     1       3.222  14.858  17.975  0.00  0.00    +0.000 A 
ATOM     18  C   UNL     1       4.369  15.581  18.349  0.00  0.00    +0.000 A 
ATOM     19  C   UNL     1       4.344  15.632  19.724  0.00  0.00    +0.000 A 
ATOM     20  O   UNL     1       3.242  14.991  20.219  0.00  0.00    +0.000 OA
ENDBRANCH  13  16
ENDBRANCH  10  14
ENDBRANCH   1  10
BRANCH   5  21
ATOM     21  O   UNL     1       2.201   6.591  20.342  0.00  0.00    +0.000 OA
BRANCH  21  22
ATOM     22  C   UNL     1       3.249   5.784  19.800  0.00  0.00    +0.000 C 
BRANCH  22  23
ATOM     23  C   UNL     1       2.851   4.308  19.840  0.00  0.00    +0.000 C 
BRANCH  23  24
ATOM     24  C   UNL     1       1.791   3.919  18.800  0.00  0.00    +0.000 C 
BRANCH  24  25
ATOM     25  C   UNL     1       2.244   2.878  17.769  0.00  0.00    +0.000 C 
BRANCH  25  26
ATOM     26  C   UNL     1       3.754   2.903  17.554  0.00  0.00    +0.000 C 
BRANCH  26  27
ATOM     27  O   UNL     1       4.084   3.822  16.512  0.00  0.00    +0.000 OA
BRANCH  27  28
ATOM     28  C   UNL     1       4.990   4.796  16.851  0.00  0.00    +0.000 A 
ATOM     29  C   UNL     1       4.942   6.132  16.439  0.00  0.00    +0.000 A 
ATOM     30  C   UNL     1       5.918   7.037  16.859  0.00  0.00    +0.000 A 
ATOM     31  C   UNL     1       6.947   6.609  17.691  0.00  0.00    +0.000 A 
ATOM     32 CL   UNL     1       8.144   7.730  18.212  0.00  0.00    +0.000 Cl
ATOM     33  C   UNL     1       7.010   5.278  18.105  0.00  0.00    +0.000 A 
ATOM     34  C   UNL     1       6.032   4.375  17.682  0.00  0.00    +0.000 A 
ENDBRANCH  27  28
ENDBRANCH  26  27
ENDBRANCH  25  26
ENDBRANCH  24  25
ENDBRANCH  23  24
ENDBRANCH  22  23
ENDBRANCH  21  22
ENDBRANCH   5  21
TORSDOF 11
ENDMDL
MODEL 9
REMARK VINA RESULT:      -7.1      2.543      3.809
REMARK  Name = 
REMARK  11 active torsions:
REMARK  status: ('A' for Active; 'I' for Inactive)
REMARK    1  A    between atoms: C_2  and  C_29
REMARK    2  A    between atoms: N_3  and  C_4
REMARK    3  A    between atoms: C_4  and  N_6
REMARK    4  A    between atoms: C_10  and  O_11
REMARK    5  A    between atoms: O_11  and  C_12
REMARK    6  A    between atoms: C_12  and  C_13
REMARK    7  A    between atoms: C_13  and  C_14
REMARK    8  A    between atoms: C_14  and  C_15
REMARK    9  A    between atoms: C_15  and  C_16
REMARK   10  A    between atoms: C_16  and  O_17
REMARK   11  A    between atoms: O_17  and  C_18
REMARK                            x       y       z     vdW  Elec       q    Type
REMARK                         _______ _______ _______ _____ _____    ______ ____
ROOT
ATOM      1  N   UNL     1       0.226  10.716  20.371  0.00  0.00    +0.000 N 
ATOM      2  C   UNL     1      -0.017  10.082  21.701  0.00  0.00    +0.000 C 
ATOM      3  C   UNL     1       0.811   8.803  21.785  0.00  0.00    +0.000 C 
ATOM      4  C   UNL     1       1.261   8.642  20.368  0.00  0.00    +0.000 A 
ATOM      5  C   UNL     1       2.015   7.580  19.863  0.00  0.00    +0.000 A 
ATOM      6  C   UNL     1       2.457   7.678  18.545  0.00  0.00    +0.000 A 
ATOM      7  C   UNL     1       2.184   8.825  17.776  0.00  0.00    +0.000 A 
ATOM      8  C   UNL     1       1.448   9.890  18.311  0.00  0.00    +0.000 A 
ATOM      9  C   UNL     1       0.955   9.781  19.599  0.00  0.00    +0.000 A 
ENDROOT
BRANCH   1  10
ATOM     10  C   UNL     1      -0.133  12.041  20.092  0.00  0.00    +0.000 C 
ATOM     11  S   UNL     1      -1.669  12.380  19.469  0.00  0.00    +0.000 S 
BRANCH  10  14
ATOM     12  O   UNL     1       1.551  13.517  18.188  0.00  0.00    +0.000 OA
ATOM     13  C   UNL     1       1.681  13.640  19.402  0.00  0.00    +0.000 C 
ATOM     14  N   UNL     1       0.839  13.019  20.342  0.00  0.00    +0.000 N 
ATOM     15  H   UNL     1       1.091  13.171  21.308  0.00  0.00    +0.000 HD
BRANCH  13  16
ATOM     16  C   UNL     1       2.727  14.519  19.899  0.00  0.00    +0.000 A 
ATOM     17  C   UNL     1       2.837  15.888  19.710  0.00  0.00    +0.000 A 
ATOM     18  C   UNL     1       4.002  16.312  20.377  0.00  0.00    +0.000 A 
ATOM     19  C   UNL     1       4.546  15.176  20.932  0.00  0.00    +0.000 A 
ATOM     20  O   UNL     1       3.778  14.079  20.656  0.00  0.00    +0.000 OA
ENDBRANCH  13  16
ENDBRANCH  10  14
ENDBRANCH   1  10
BRANCH   5  21
ATOM     21  O   UNL     1       2.275   6.543  20.715  0.00  0.00    +0.000 OA
BRANCH  21  22
ATOM     22  C   UNL     1       1.432   5.395  20.596  0.00  0.00    +0.000 C 
BRANCH  22  23
ATOM     23  C   UNL     1       2.216   4.226  19.999  0.00  0.00    +0.000 C 
BRANCH  23  24
ATOM     24  C   UNL     1       1.660   3.717  18.662  0.00  0.00    +0.000 C 
BRANCH  24  25
ATOM     25  C   UNL     1       2.237   2.379  18.186  0.00  0.00    +0.000 C 
BRANCH  25  26
ATOM     26  C   UNL     1       3.636   2.534  17.598  0.00  0.00    +0.000 C 
BRANCH  26  27
ATOM     27  O   UNL     1       3.712   3.732  16.825  0.00  0.00    +0.000 OA
BRANCH  27  28
ATOM     28  C   UNL     1       4.711   4.602  17.183  0.00  0.00    +0.000 A 
ATOM     29  C   UNL     1       5.577   4.443  18.270  0.00  0.00    +0.000 A 
ATOM     30  C   UNL     1       6.567   5.393  18.530  0.00  0.00    +0.000 A 
ATOM     31  C   UNL     1       6.694   6.505  17.704  0.00  0.00    +0.000 A 
ATOM     32 CL   UNL     1       7.921   7.668  18.023  0.00  0.00    +0.000 Cl
ATOM     33  C   UNL     1       5.833   6.677  16.619  0.00  0.00    +0.000 A 
ATOM     34  C   UNL     1       4.843   5.726  16.363  0.00  0.00    +0.000 A 
ENDBRANCH  27  28
ENDBRANCH  26  27
ENDBRANCH  25  26
ENDBRANCH  24  25
ENDBRANCH  23  24
ENDBRANCH  22  23
ENDBRANCH  21  22
ENDBRANCH   5  21
TORSDOF 11
ENDMDL
