MODEL 1
REMARK VINA RESULT:      -5.5      0.000      0.000
REMARK  Name = 
REMARK  3 active torsions:
REMARK  status: ('A' for Active; 'I' for Inactive)
REMARK    1  A    between atoms: C_2  and  O_3
REMARK    2  A    between atoms: C_2  and  C_4
REMARK    3  A    between atoms: C_4  and  C_5
REMARK                            x       y       z     vdW  Elec       q    Type
REMARK                         _______ _______ _______ _____ _____    ______ ____
ROOT
ATOM      1  C   UNL     1       5.600   5.439  17.878  0.00  0.00    +0.000 C 
ATOM      2  C   UNL     1       4.920   4.787  16.653  0.00  0.00    +0.000 C 
ATOM      3  N   UNL     1       4.742   3.337  16.822  0.00  0.00    +0.000 NA
ATOM      4  C   UNL     1       4.040   3.069  18.100  0.00  0.00    +0.000 C 
ATOM      5  C   UNL     1       2.561   2.770  18.021  0.00  0.00    +0.000 C 
ATOM      6  C   UNL     1       3.533   1.661  18.301  0.00  0.00    +0.000 C 
ATOM      7  C   UNL     1       4.565   3.806  19.329  0.00  0.00    +0.000 C 
ATOM      8  O   UNL     1       4.801   5.201  19.060  0.00  0.00    +0.000 OA
ATOM      9  H   UNL     1       5.646   2.870  16.795  0.00  0.00    +0.000 HD
ENDROOT
BRANCH   1  10
ATOM     10  C   UNL     1       7.049   5.016  18.144  0.00  0.00    +0.000 C 
BRANCH  10  12
ATOM     11  O   UNL     1       8.307   6.991  18.770  0.00  0.00    +0.000 OA
ATOM     12  C   UNL     1       7.779   5.937  19.082  0.00  0.00    +0.000 C 
BRANCH  12  13
ATOM     13  O   UNL     1       7.794   5.469  20.352  0.00  0.00    +0.000 OA
ATOM     14  H   UNL     1       6.948   5.570  20.829  0.00  0.00    +0.000 HD
ENDBRANCH  12  13
ENDBRANCH  10  12
ENDBRANCH   1  10
TORSDOF 3
ENDMDL
MODEL 2
REMARK VINA RESULT:      -5.5      2.082      2.338
REMARK  Name = 
REMARK  3 active torsions:
REMARK  status: ('A' for Active; 'I' for Inactive)
REMARK    1  A    between atoms: C_2  and  O_3
REMARK    2  A    between atoms: C_2  and  C_4
REMARK    3  A    between atoms: C_4  and  C_5
REMARK                            x       y       z     vdW  Elec       q    Type
REMARK                         _______ _______ _______ _____ _____    ______ ____
ROOT
ATOM      1  C   UNL     1       5.292   5.133  18.049  0.00  0.00    +0.000 C 
ATOM      2  C   UNL     1       3.839   5.658  18.086  0.00  0.00    +0.000 C 
ATOM      3  N   UNL     1       2.852   4.569  18.064  0.00  0.00    +0.000 NA
ATOM      4  C   UNL     1       3.157   3.601  19.146  0.00  0.00    +0.000 C 
ATOM      5  C   UNL     1       2.331   3.698  20.407  0.00  0.00    +0.000 C 
ATOM      6  C   UNL     1       2.093   2.573  19.443  0.00  0.00    +0.000 C 
ATOM      7  C   UNL     1       4.613   3.157  19.266  0.00  0.00    +0.000 C 
ATOM      8  O   UNL     1       5.524   4.270  19.187  0.00  0.00    +0.000 OA
ATOM      9  H   UNL     1       2.856   4.114  17.154  0.00  0.00    +0.000 HD
ENDROOT
BRANCH   1  10
ATOM     10  C   UNL     1       5.711   4.411  16.764  0.00  0.00    +0.000 C 
BRANCH  10  12
ATOM     11  O   UNL     1       7.494   5.285  15.374  0.00  0.00    +0.000 OA
ATOM     12  C   UNL     1       7.137   4.675  16.367  0.00  0.00    +0.000 C 
BRANCH  12  13
ATOM     13  O   UNL     1       8.020   4.153  17.250  0.00  0.00    +0.000 OA
ATOM     14  H   UNL     1       8.775   3.689  16.838  0.00  0.00    +0.000 HD
ENDBRANCH  12  13
ENDBRANCH  10  12
ENDBRANCH   1  10
TORSDOF 3
ENDMDL
MODEL 3
REMARK VINA RESULT:      -5.5      2.275      4.731
REMARK  Name = 
REMARK  3 active torsions:
REMARK  status: ('A' for Active; 'I' for Inactive)
REMARK    1  A    between atoms: C_2  and  O_3
REMARK    2  A    between atoms: C_2  and  C_4
REMARK    3  A    between atoms: C_4  and  C_5
REMARK                            x       y       z     vdW  Elec       q    Type
REMARK                         _______ _______ _______ _____ _____    ______ ____
ROOT
ATOM      1  C   UNL     1       3.355   4.472  18.201  0.00  0.00    +0.000 C 
ATOM      2  C   UNL     1       4.315   4.158  19.370  0.00  0.00    +0.000 C 
ATOM      3  N   UNL     1       5.642   3.731  18.903  0.00  0.00    +0.000 NA
ATOM      4  C   UNL     1       6.178   4.733  17.950  0.00  0.00    +0.000 C 
ATOM      5  C   UNL     1       7.197   5.712  18.485  0.00  0.00    +0.000 C 
ATOM      6  C   UNL     1       7.637   4.595  17.585  0.00  0.00    +0.000 C 
ATOM      7  C   UNL     1       5.224   5.206  16.856  0.00  0.00    +0.000 C 
ATOM      8  O   UNL     1       3.919   5.518  17.377  0.00  0.00    +0.000 OA
ATOM      9  H   UNL     1       5.579   2.812  18.471  0.00  0.00    +0.000 HD
ENDROOT
BRANCH   1  10
ATOM     10  C   UNL     1       2.962   3.281  17.320  0.00  0.00    +0.000 C 
BRANCH  10  12
ATOM     11  O   UNL     1       3.679   1.197  18.329  0.00  0.00    +0.000 OA
ATOM     12  C   UNL     1       2.793   1.998  18.087  0.00  0.00    +0.000 C 
BRANCH  12  13
ATOM     13  O   UNL     1       1.517   1.811  18.499  0.00  0.00    +0.000 OA
ATOM     14  H   UNL     1       0.998   1.201  17.939  0.00  0.00    +0.000 HD
ENDBRANCH  12  13
ENDBRANCH  10  12
ENDBRANCH   1  10
TORSDOF 3
ENDMDL
MODEL 4
REMARK VINA RESULT:      -5.4      2.633      4.878
REMARK  Name = 
REMARK  3 active torsions:
REMARK  status: ('A' for Active; 'I' for Inactive)
REMARK    1  A    between atoms: C_2  and  O_3
REMARK    2  A    between atoms: C_2  and  C_4
REMARK    3  A    between atoms: C_4  and  C_5
REMARK                            x       y       z     vdW  Elec       q    Type
REMARK                         _______ _______ _______ _____ _____    ______ ____
ROOT
ATOM      1  C   UNL     1       3.479   2.710  19.572  0.00  0.00    +0.000 C 
ATOM      2  C   UNL     1       2.980   2.603  18.114  0.00  0.00    +0.000 C 
ATOM      3  N   UNL     1       3.154   3.860  17.371  0.00  0.00    +0.000 NA
ATOM      4  C   UNL     1       4.563   4.310  17.481  0.00  0.00    +0.000 C 
ATOM      5  C   UNL     1       5.467   4.032  16.303  0.00  0.00    +0.000 C 
ATOM      6  C   UNL     1       4.982   5.429  16.559  0.00  0.00    +0.000 C 
ATOM      7  C   UNL     1       5.172   4.292  18.881  0.00  0.00    +0.000 C 
ATOM      8  O   UNL     1       4.881   3.067  19.579  0.00  0.00    +0.000 OA
ATOM      9  H   UNL     1       2.515   4.566  17.728  0.00  0.00    +0.000 HD
ENDROOT
BRANCH   1  10
ATOM     10  C   UNL     1       2.701   3.671  20.477  0.00  0.00    +0.000 C 
BRANCH  10  12
ATOM     11  O   UNL     1       1.502   2.509  22.234  0.00  0.00    +0.000 OA
ATOM     12  C   UNL     1       1.507   3.038  21.136  0.00  0.00    +0.000 C 
BRANCH  12  13
ATOM     13  O   UNL     1       0.395   3.115  20.367  0.00  0.00    +0.000 OA
ATOM     14  H   UNL     1       0.496   3.666  19.566  0.00  0.00    +0.000 HD
ENDBRANCH  12  13
ENDBRANCH  10  12
ENDBRANCH   1  10
TORSDOF 3
ENDMDL
MODEL 5
REMARK VINA RESULT:      -5.4      1.976      2.402
REMARK  Name = 
REMARK  3 active torsions:
REMARK  status: ('A' for Active; 'I' for Inactive)
REMARK    1  A    between atoms: C_2  and  O_3
REMARK    2  A    between atoms: C_2  and  C_4
REMARK    3  A    between atoms: C_4  and  C_5
REMARK                            x       y       z     vdW  Elec       q    Type
REMARK                         _______ _______ _______ _____ _____    ______ ____
ROOT
ATOM      1  C   UNL     1       5.223   4.891  18.393  0.00  0.00    +0.000 C 
ATOM      2  C   UNL     1       3.881   5.657  18.371  0.00  0.00    +0.000 C 
ATOM      3  N   UNL     1       2.760   4.807  17.944  0.00  0.00    +0.000 NA
ATOM      4  C   UNL     1       2.725   3.579  18.775  0.00  0.00    +0.000 C 
ATOM      5  C   UNL     1       1.717   3.539  19.899  0.00  0.00    +0.000 C 
ATOM      6  C   UNL     1       1.484   2.728  18.658  0.00  0.00    +0.000 C 
ATOM      7  C   UNL     1       4.055   2.854  18.968  0.00  0.00    +0.000 C 
ATOM      8  O   UNL     1       5.122   3.764  19.295  0.00  0.00    +0.000 OA
ATOM      9  H   UNL     1       2.854   4.578  16.956  0.00  0.00    +0.000 HD
ENDROOT
BRANCH   1  10
ATOM     10  C   UNL     1       5.745   4.415  17.033  0.00  0.00    +0.000 C 
BRANCH  10  12
ATOM     11  O   UNL     1       8.145   4.192  17.284  0.00  0.00    +0.000 OA
ATOM     12  C   UNL     1       7.188   4.763  16.791  0.00  0.00    +0.000 C 
BRANCH  12  13
ATOM     13  O   UNL     1       7.328   5.807  15.941  0.00  0.00    +0.000 OA
ATOM     14  H   UNL     1       6.607   6.465  15.987  0.00  0.00    +0.000 HD
ENDBRANCH  12  13
ENDBRANCH  10  12
ENDBRANCH   1  10
TORSDOF 3
ENDMDL
MODEL 6
REMARK VINA RESULT:      -5.3      2.497      3.071
REMARK  Name = 
REMARK  3 active torsions:
REMARK  status: ('A' for Active; 'I' for Inactive)
REMARK    1  A    between atoms: C_2  and  O_3
REMARK    2  A    between atoms: C_2  and  C_4
REMARK    3  A    between atoms: C_4  and  C_5
REMARK                            x       y       z     vdW  Elec       q    Type
REMARK                         _______ _______ _______ _____ _____    ______ ____
ROOT
ATOM      1  C   UNL     1       5.042   4.525  18.821  0.00  0.00    +0.000 C 
ATOM      2  C   UNL     1       3.985   5.435  19.486  0.00  0.00    +0.000 C 
ATOM      3  N   UNL     1       2.647   4.825  19.488  0.00  0.00    +0.000 NA
ATOM      4  C   UNL     1       2.720   3.470  20.086  0.00  0.00    +0.000 C 
ATOM      5  C   UNL     1       2.276   3.329  21.523  0.00  0.00    +0.000 C 
ATOM      6  C   UNL     1       1.402   2.814  20.417  0.00  0.00    +0.000 C 
ATOM      7  C   UNL     1       3.845   2.568  19.583  0.00  0.00    +0.000 C 
ATOM      8  O   UNL     1       5.105   3.262  19.523  0.00  0.00    +0.000 OA
ATOM      9  H   UNL     1       2.281   4.788  18.539  0.00  0.00    +0.000 HD
ENDROOT
BRANCH   1  10
ATOM     10  C   UNL     1       4.858   4.270  17.321  0.00  0.00    +0.000 C 
BRANCH  10  12
ATOM     11  O   UNL     1       6.264   4.117  15.353  0.00  0.00    +0.000 OA
ATOM     12  C   UNL     1       6.154   4.174  16.566  0.00  0.00    +0.000 C 
BRANCH  12  13
ATOM     13  O   UNL     1       7.228   4.158  17.390  0.00  0.00    +0.000 OA
ATOM     14  H   UNL     1       7.346   4.973  17.915  0.00  0.00    +0.000 HD
ENDBRANCH  12  13
ENDBRANCH  10  12
ENDBRANCH   1  10
TORSDOF 3
ENDMDL
MODEL 7
REMARK VINA RESULT:      -5.3      1.348      1.583
REMARK  Name = 
REMARK  3 active torsions:
REMARK  status: ('A' for Active; 'I' for Inactive)
REMARK    1  A    between atoms: C_2  and  O_3
REMARK    2  A    between atoms: C_2  and  C_4
REMARK    3  A    between atoms: C_4  and  C_5
REMARK                            x       y       z     vdW  Elec       q    Type
REMARK                         _______ _______ _______ _____ _____    ______ ____
ROOT
ATOM      1  C   UNL     1       4.923   5.608  18.012  0.00  0.00    +0.000 C 
ATOM      2  C   UNL     1       4.588   4.768  16.759  0.00  0.00    +0.000 C 
ATOM      3  N   UNL     1       4.689   3.323  17.013  0.00  0.00    +0.000 NA
ATOM      4  C   UNL     1       3.869   2.969  18.197  0.00  0.00    +0.000 C 
ATOM      5  C   UNL     1       2.514   2.355  17.935  0.00  0.00    +0.000 C 
ATOM      6  C   UNL     1       3.639   1.496  18.435  0.00  0.00    +0.000 C 
ATOM      7  C   UNL     1       4.036   3.859  19.427  0.00  0.00    +0.000 C 
ATOM      8  O   UNL     1       4.018   5.258  19.085  0.00  0.00    +0.000 OA
ATOM      9  H   UNL     1       5.663   3.061  17.150  0.00  0.00    +0.000 HD
ENDROOT
BRANCH   1  10
ATOM     10  C   UNL     1       6.369   5.519  18.511  0.00  0.00    +0.000 C 
BRANCH  10  12
ATOM     11  O   UNL     1       7.961   4.353  17.104  0.00  0.00    +0.000 OA
ATOM     12  C   UNL     1       7.377   5.380  17.404  0.00  0.00    +0.000 C 
BRANCH  12  13
ATOM     13  O   UNL     1       7.581   6.545  16.745  0.00  0.00    +0.000 OA
ATOM     14  H   UNL     1       7.411   7.345  17.279  0.00  0.00    +0.000 HD
ENDBRANCH  12  13
ENDBRANCH  10  12
ENDBRANCH   1  10
TORSDOF 3
ENDMDL
MODEL 8
REMARK VINA RESULT:      -5.3      1.827      2.033
REMARK  Name = 
REMARK  3 active torsions:
REMARK  status: ('A' for Active; 'I' for Inactive)
REMARK    1  A    between atoms: C_2  and  O_3
REMARK    2  A    between atoms: C_2  and  C_4
REMARK    3  A    between atoms: C_4  and  C_5
REMARK                            x       y       z     vdW  Elec       q    Type
REMARK                         _______ _______ _______ _____ _____    ______ ____
ROOT
ATOM      1  C   UNL     1       4.864   5.556  17.085  0.00  0.00    +0.000 C 
ATOM      2  C   UNL     1       4.577   4.110  16.623  0.00  0.00    +0.000 C 
ATOM      3  N   UNL     1       4.886   3.119  17.665  0.00  0.00    +0.000 NA
ATOM      4  C   UNL     1       4.190   3.487  18.921  0.00  0.00    +0.000 C 
ATOM      5  C   UNL     1       2.917   2.740  19.245  0.00  0.00    +0.000 C 
ATOM      6  C   UNL     1       4.174   2.440  20.009  0.00  0.00    +0.000 C 
ATOM      7  C   UNL     1       4.303   4.947  19.356  0.00  0.00    +0.000 C 
ATOM      8  O   UNL     1       4.077   5.854  18.262  0.00  0.00    +0.000 OA
ATOM      9  H   UNL     1       5.893   3.066  17.806  0.00  0.00    +0.000 HD
ENDROOT
BRANCH   1  10
ATOM     10  C   UNL     1       6.335   5.893  17.353  0.00  0.00    +0.000 C 
BRANCH  10  12
ATOM     11  O   UNL     1       7.487   5.462  15.264  0.00  0.00    +0.000 OA
ATOM     12  C   UNL     1       7.289   5.181  16.434  0.00  0.00    +0.000 C 
BRANCH  12  13
ATOM     13  O   UNL     1       7.933   4.163  17.051  0.00  0.00    +0.000 OA
ATOM     14  H   UNL     1       7.369   3.391  17.252  0.00  0.00    +0.000 HD
ENDBRANCH  12  13
ENDBRANCH  10  12
ENDBRANCH   1  10
TORSDOF 3
ENDMDL
MODEL 9
REMARK VINA RESULT:      -5.3      1.943      2.428
REMARK  Name = 
REMARK  3 active torsions:
REMARK  status: ('A' for Active; 'I' for Inactive)
REMARK    1  A    between atoms: C_2  and  O_3
REMARK    2  A    between atoms: C_2  and  C_4
REMARK    3  A    between atoms: C_4  and  C_5
REMARK                            x       y       z     vdW  Elec       q    Type
REMARK                         _______ _______ _______ _____ _____    ______ ____
ROOT
ATOM      1  C   UNL     1       4.940   4.033  18.623  0.00  0.00    +0.000 C 
ATOM      2  C   UNL     1       4.490   2.870  19.535  0.00  0.00    +0.000 C 
ATOM      3  N   UNL     1       3.335   3.232  20.371  0.00  0.00    +0.000 NA
ATOM      4  C   UNL     1       2.249   3.764  19.513  0.00  0.00    +0.000 C 
ATOM      5  C   UNL     1       1.117   2.822  19.175  0.00  0.00    +0.000 C 
ATOM      6  C   UNL     1       0.899   3.926  20.168  0.00  0.00    +0.000 C 
ATOM      7  C   UNL     1       2.655   4.809  18.477  0.00  0.00    +0.000 C 
ATOM      8  O   UNL     1       3.845   4.426  17.762  0.00  0.00    +0.000 OA
ATOM      9  H   UNL     1       3.615   3.914  21.073  0.00  0.00    +0.000 HD
ENDROOT
BRANCH   1  10
ATOM     10  C   UNL     1       5.498   5.268  19.338  0.00  0.00    +0.000 C 
BRANCH  10  12
ATOM     11  O   UNL     1       7.497   5.650  18.022  0.00  0.00    +0.000 OA
ATOM     12  C   UNL     1       6.969   5.480  19.107  0.00  0.00    +0.000 C 
BRANCH  12  13
ATOM     13  O   UNL     1       7.677   5.464  20.260  0.00  0.00    +0.000 OA
ATOM     14  H   UNL     1       7.273   5.974  20.989  0.00  0.00    +0.000 HD
ENDBRANCH  12  13
ENDBRANCH  10  12
ENDBRANCH   1  10
TORSDOF 3
ENDMDL
