MODEL 1
REMARK VINA RESULT:      -6.6      0.000      0.000
REMARK  Name = 
REMARK  11 active torsions:
REMARK  status: ('A' for Active; 'I' for Inactive)
REMARK    1  A    between atoms: C_1  and  C_2
REMARK    2  A    between atoms: C_2  and  C_3
REMARK    3  A    between atoms: C_3  and  C_4
REMARK    4  A    between atoms: C_4  and  C_5
REMARK    5  A    between atoms: C_5  and  C_6
REMARK    6  A    between atoms: C_7  and  C_8
REMARK    7  A    between atoms: C_13  and  N_14
REMARK    8  A    between atoms: N_14  and  C_15
REMARK    9  A    between atoms: C_15  and  C_16
REMARK   10  A    between atoms: C_16  and  C_17
REMARK   11  A    between atoms: C_17  and  C_18
REMARK                            x       y       z     vdW  Elec       q    Type
REMARK                         _______ _______ _______ _____ _____    ______ ____
ROOT
ATOM      1  C   UNL     1       5.307   4.256  17.117  0.00  0.00    +0.000 A 
ATOM      2  C   UNL     1       5.434   5.201  18.134  0.00  0.00    +0.000 A 
ATOM      3  C   UNL     1       4.668   5.194  19.427  0.00  0.00    +0.000 C 
ATOM      4  N   UNL     1       6.286   6.241  18.042  0.00  0.00    +0.000 NA
ATOM      5  C   UNL     1       7.048   6.331  16.952  0.00  0.00    +0.000 A 
ATOM      6  N   UNL     1       7.878   7.424  16.865  0.00  0.00    +0.000 N 
ATOM      7  N   UNL     1       7.001   5.488  15.924  0.00  0.00    +0.000 NA
ATOM      8  C   UNL     1       6.152   4.446  16.010  0.00  0.00    +0.000 A 
ATOM      9  H   UNL     1       7.521   8.154  17.458  0.00  0.00    +0.000 HD
ATOM     10  H   UNL     1       8.022   7.652  15.888  0.00  0.00    +0.000 HD
ENDROOT
BRANCH   8  11
ATOM     11  N   UNL     1       6.102   3.553  14.925  0.00  0.00    +0.000 N 
ATOM     12  H   UNL     1       5.538   2.749  15.204  0.00  0.00    +0.000 HD
BRANCH  11  13
ATOM     13  C   UNL     1       5.667   4.114  13.641  0.00  0.00    +0.000 C 
BRANCH  13  14
ATOM     14  C   UNL     1       6.372   3.397  12.478  0.00  0.00    +0.000 C 
BRANCH  14  15
ATOM     15  C   UNL     1       5.409   2.515  11.679  0.00  0.00    +0.000 C 
ATOM     16  C   UNL     1       4.123   3.230  11.299  0.00  0.00    +0.000 C 
ENDBRANCH  14  15
ENDBRANCH  13  14
ENDBRANCH  11  13
ENDBRANCH   8  11
BRANCH   1  17
ATOM     17  C   UNL     1       4.357   3.087  17.210  0.00  0.00    +0.000 C 
BRANCH  17  18
ATOM     18  C   UNL     1       2.888   3.450  16.983  0.00  0.00    +0.000 C 
BRANCH  18  19
ATOM     19  C   UNL     1       1.995   2.735  17.996  0.00  0.00    +0.000 C 
BRANCH  19  21
ATOM     20  C   UNL     1       1.131   3.087  20.325  0.00  0.00    +0.000 C 
ATOM     21  C   UNL     1       1.354   3.725  18.965  0.00  0.00    +0.000 C 
ENDBRANCH  19  21
ENDBRANCH  18  19
ENDBRANCH  17  18
ENDBRANCH   1  17
TORSDOF 8
ENDMDL
MODEL 2
REMARK VINA RESULT:      -6.5      1.406      1.732
REMARK  Name = 
REMARK  11 active torsions:
REMARK  status: ('A' for Active; 'I' for Inactive)
REMARK    1  A    between atoms: C_1  and  C_2
REMARK    2  A    between atoms: C_2  and  C_3
REMARK    3  A    between atoms: C_3  and  C_4
REMARK    4  A    between atoms: C_4  and  C_5
REMARK    5  A    between atoms: C_5  and  C_6
REMARK    6  A    between atoms: C_7  and  C_8
REMARK    7  A    between atoms: C_13  and  N_14
REMARK    8  A    between atoms: N_14  and  C_15
REMARK    9  A    between atoms: C_15  and  C_16
REMARK   10  A    between atoms: C_16  and  C_17
REMARK   11  A    between atoms: C_17  and  C_18
REMARK                            x       y       z     vdW  Elec       q    Type
REMARK                         _______ _______ _______ _____ _____    ______ ____
ROOT
ATOM      1  C   UNL     1       5.125   4.722  17.699  0.00  0.00    +0.000 A 
ATOM      2  C   UNL     1       5.049   5.198  19.006  0.00  0.00    +0.000 A 
ATOM      3  C   UNL     1       3.779   5.543  19.733  0.00  0.00    +0.000 C 
ATOM      4  N   UNL     1       6.148   5.398  19.760  0.00  0.00    +0.000 NA
ATOM      5  C   UNL     1       7.333   5.090  19.233  0.00  0.00    +0.000 A 
ATOM      6  N   UNL     1       8.441   5.344  20.007  0.00  0.00    +0.000 N 
ATOM      7  N   UNL     1       7.515   4.637  17.996  0.00  0.00    +0.000 NA
ATOM      8  C   UNL     1       6.421   4.434  17.237  0.00  0.00    +0.000 A 
ATOM      9  H   UNL     1       8.208   6.040  20.693  0.00  0.00    +0.000 HD
ATOM     10  H   UNL     1       9.230   5.537  19.401  0.00  0.00    +0.000 HD
ENDROOT
BRANCH   8  11
ATOM     11  N   UNL     1       6.612   3.953  15.929  0.00  0.00    +0.000 N 
ATOM     12  H   UNL     1       5.723   3.575  15.600  0.00  0.00    +0.000 HD
BRANCH  11  13
ATOM     13  C   UNL     1       7.202   4.894  14.971  0.00  0.00    +0.000 C 
BRANCH  13  14
ATOM     14  C   UNL     1       6.856   4.477  13.532  0.00  0.00    +0.000 C 
BRANCH  14  15
ATOM     15  C   UNL     1       5.570   3.649  13.467  0.00  0.00    +0.000 C 
ATOM     16  C   UNL     1       5.150   3.312  12.046  0.00  0.00    +0.000 C 
ENDBRANCH  14  15
ENDBRANCH  13  14
ENDBRANCH  11  13
ENDBRANCH   8  11
BRANCH   1  17
ATOM     17  C   UNL     1       3.900   4.493  16.846  0.00  0.00    +0.000 C 
BRANCH  17  18
ATOM     18  C   UNL     1       3.184   3.168  17.117  0.00  0.00    +0.000 C 
BRANCH  18  19
ATOM     19  C   UNL     1       1.814   3.418  17.745  0.00  0.00    +0.000 C 
BRANCH  19  21
ATOM     20  C   UNL     1       0.875   3.196  20.062  0.00  0.00    +0.000 C 
ATOM     21  C   UNL     1       1.560   2.472  18.916  0.00  0.00    +0.000 C 
ENDBRANCH  19  21
ENDBRANCH  18  19
ENDBRANCH  17  18
ENDBRANCH   1  17
TORSDOF 8
ENDMDL
MODEL 3
REMARK VINA RESULT:      -6.4      1.316      1.680
REMARK  Name = 
REMARK  11 active torsions:
REMARK  status: ('A' for Active; 'I' for Inactive)
REMARK    1  A    between atoms: C_1  and  C_2
REMARK    2  A    between atoms: C_2  and  C_3
REMARK    3  A    between atoms: C_3  and  C_4
REMARK    4  A    between atoms: C_4  and  C_5
REMARK    5  A    between atoms: C_5  and  C_6
REMARK    6  A    between atoms: C_7  and  C_8
REMARK    7  A    between atoms: C_13  and  N_14
REMARK    8  A    between atoms: N_14  and  C_15
REMARK    9  A    between atoms: C_15  and  C_16
REMARK   10  A    between atoms: C_16  and  C_17
REMARK   11  A    between atoms: C_17  and  C_18
REMARK                            x       y       z     vdW  Elec       q    Type
REMARK                         _______ _______ _______ _____ _____    ______ ____
ROOT
ATOM      1  C   UNL     1       4.791   4.320  17.773  0.00  0.00    +0.000 A 
ATOM      2  C   UNL     1       5.220   4.051  19.072  0.00  0.00    +0.000 A 
ATOM      3  C   UNL     1       4.558   3.096  20.025  0.00  0.00    +0.000 C 
ATOM      4  N   UNL     1       6.305   4.646  19.604  0.00  0.00    +0.000 NA
ATOM      5  C   UNL     1       6.997   5.488  18.836  0.00  0.00    +0.000 A 
ATOM      6  N   UNL     1       8.075   6.113  19.417  0.00  0.00    +0.000 N 
ATOM      7  N   UNL     1       6.670   5.817  17.590  0.00  0.00    +0.000 NA
ATOM      8  C   UNL     1       5.587   5.225  17.051  0.00  0.00    +0.000 A 
ATOM      9  H   UNL     1       7.957   6.109  20.416  0.00  0.00    +0.000 HD
ATOM     10  H   UNL     1       8.214   7.014  18.972  0.00  0.00    +0.000 HD
ENDROOT
BRANCH   8  11
ATOM     11  N   UNL     1       5.241   5.571  15.732  0.00  0.00    +0.000 N 
ATOM     12  H   UNL     1       5.056   6.574  15.707  0.00  0.00    +0.000 HD
BRANCH  11  13
ATOM     13  C   UNL     1       6.180   5.156  14.685  0.00  0.00    +0.000 C 
BRANCH  13  14
ATOM     14  C   UNL     1       5.712   3.843  14.036  0.00  0.00    +0.000 C 
BRANCH  14  15
ATOM     15  C   UNL     1       6.274   3.669  12.623  0.00  0.00    +0.000 C 
ATOM     16  C   UNL     1       5.459   2.707  11.773  0.00  0.00    +0.000 C 
ENDBRANCH  14  15
ENDBRANCH  13  14
ENDBRANCH  11  13
ENDBRANCH   8  11
BRANCH   1  17
ATOM     17  C   UNL     1       3.576   3.658  17.167  0.00  0.00    +0.000 C 
BRANCH  17  18
ATOM     18  C   UNL     1       2.248   4.325  17.532  0.00  0.00    +0.000 C 
BRANCH  18  19
ATOM     19  C   UNL     1       1.387   3.381  18.369  0.00  0.00    +0.000 C 
BRANCH  19  21
ATOM     20  C   UNL     1       1.118   2.955  20.828  0.00  0.00    +0.000 C 
ATOM     21  C   UNL     1       1.047   3.996  19.724  0.00  0.00    +0.000 C 
ENDBRANCH  19  21
ENDBRANCH  18  19
ENDBRANCH  17  18
ENDBRANCH   1  17
TORSDOF 8
ENDMDL
MODEL 4
REMARK VINA RESULT:      -6.3      2.923      5.500
REMARK  Name = 
REMARK  11 active torsions:
REMARK  status: ('A' for Active; 'I' for Inactive)
REMARK    1  A    between atoms: C_1  and  C_2
REMARK    2  A    between atoms: C_2  and  C_3
REMARK    3  A    between atoms: C_3  and  C_4
REMARK    4  A    between atoms: C_4  and  C_5
REMARK    5  A    between atoms: C_5  and  C_6
REMARK    6  A    between atoms: C_7  and  C_8
REMARK    7  A    between atoms: C_13  and  N_14
REMARK    8  A    between atoms: N_14  and  C_15
REMARK    9  A    between atoms: C_15  and  C_16
REMARK   10  A    between atoms: C_16  and  C_17
REMARK   11  A    between atoms: C_17  and  C_18
REMARK                            x       y       z     vdW  Elec       q    Type
REMARK                         _______ _______ _______ _____ _____    ______ ____
ROOT
ATOM      1  C   UNL     1       4.286   5.412  17.842  0.00  0.00    +0.000 A 
ATOM      2  C   UNL     1       5.202   5.896  16.910  0.00  0.00    +0.000 A 
ATOM      3  C   UNL     1       4.896   6.893  15.828  0.00  0.00    +0.000 C 
ATOM      4  N   UNL     1       6.489   5.497  16.897  0.00  0.00    +0.000 NA
ATOM      5  C   UNL     1       6.887   4.639  17.837  0.00  0.00    +0.000 A 
ATOM      6  N   UNL     1       8.194   4.216  17.776  0.00  0.00    +0.000 N 
ATOM      7  N   UNL     1       6.094   4.114  18.766  0.00  0.00    +0.000 NA
ATOM      8  C   UNL     1       4.806   4.509  18.785  0.00  0.00    +0.000 A 
ATOM      9  H   UNL     1       8.535   4.341  16.839  0.00  0.00    +0.000 HD
ATOM     10  H   UNL     1       8.258   3.285  18.171  0.00  0.00    +0.000 HD
ENDROOT
BRANCH   8  11
ATOM     11  N   UNL     1       3.966   3.955  19.768  0.00  0.00    +0.000 N 
ATOM     12  H   UNL     1       3.158   4.569  19.873  0.00  0.00    +0.000 HD
BRANCH  11  13
ATOM     13  C   UNL     1       3.575   2.555  19.574  0.00  0.00    +0.000 C 
BRANCH  13  14
ATOM     14  C   UNL     1       2.073   2.458  19.261  0.00  0.00    +0.000 C 
BRANCH  14  15
ATOM     15  C   UNL     1       1.224   3.224  20.279  0.00  0.00    +0.000 C 
ATOM     16  C   UNL     1       1.345   2.672  21.690  0.00  0.00    +0.000 C 
ENDBRANCH  14  15
ENDBRANCH  13  14
ENDBRANCH  11  13
ENDBRANCH   8  11
BRANCH   1  17
ATOM     17  C   UNL     1       2.842   5.853  17.865  0.00  0.00    +0.000 C 
BRANCH  17  18
ATOM     18  C   UNL     1       2.599   7.171  18.605  0.00  0.00    +0.000 C 
BRANCH  18  19
ATOM     19  C   UNL     1       1.923   8.186  17.685  0.00  0.00    +0.000 C 
BRANCH  19  21
ATOM     20  C   UNL     1       0.365   9.995  18.458  0.00  0.00    +0.000 C 
ATOM     21  C   UNL     1       1.815   9.553  18.353  0.00  0.00    +0.000 C 
ENDBRANCH  19  21
ENDBRANCH  18  19
ENDBRANCH  17  18
ENDBRANCH   1  17
TORSDOF 8
ENDMDL
MODEL 5
REMARK VINA RESULT:      -6.3      2.328      5.604
REMARK  Name = 
REMARK  11 active torsions:
REMARK  status: ('A' for Active; 'I' for Inactive)
REMARK    1  A    between atoms: C_1  and  C_2
REMARK    2  A    between atoms: C_2  and  C_3
REMARK    3  A    between atoms: C_3  and  C_4
REMARK    4  A    between atoms: C_4  and  C_5
REMARK    5  A    between atoms: C_5  and  C_6
REMARK    6  A    between atoms: C_7  and  C_8
REMARK    7  A    between atoms: C_13  and  N_14
REMARK    8  A    between atoms: N_14  and  C_15
REMARK    9  A    between atoms: C_15  and  C_16
REMARK   10  A    between atoms: C_16  and  C_17
REMARK   11  A    between atoms: C_17  and  C_18
REMARK                            x       y       z     vdW  Elec       q    Type
REMARK                         _______ _______ _______ _____ _____    ______ ____
ROOT
ATOM      1  C   UNL     1       5.144   4.964  17.820  0.00  0.00    +0.000 A 
ATOM      2  C   UNL     1       4.607   6.199  17.460  0.00  0.00    +0.000 A 
ATOM      3  C   UNL     1       4.973   6.981  16.230  0.00  0.00    +0.000 C 
ATOM      4  N   UNL     1       3.679   6.822  18.213  0.00  0.00    +0.000 NA
ATOM      5  C   UNL     1       3.248   6.205  19.313  0.00  0.00    +0.000 A 
ATOM      6  N   UNL     1       2.333   6.881  20.085  0.00  0.00    +0.000 N 
ATOM      7  N   UNL     1       3.698   5.031  19.747  0.00  0.00    +0.000 NA
ATOM      8  C   UNL     1       4.626   4.402  18.998  0.00  0.00    +0.000 A 
ATOM      9  H   UNL     1       2.404   7.865  19.890  0.00  0.00    +0.000 HD
ATOM     10  H   UNL     1       2.438   6.592  21.051  0.00  0.00    +0.000 HD
ENDROOT
BRANCH   8  11
ATOM     11  N   UNL     1       5.102   3.160  19.455  0.00  0.00    +0.000 N 
ATOM     12  H   UNL     1       5.640   3.322  20.306  0.00  0.00    +0.000 HD
BRANCH  11  13
ATOM     13  C   UNL     1       4.098   2.104  19.628  0.00  0.00    +0.000 C 
BRANCH  13  14
ATOM     14  C   UNL     1       3.512   1.695  18.267  0.00  0.00    +0.000 C 
BRANCH  14  15
ATOM     15  C   UNL     1       2.044   2.103  18.128  0.00  0.00    +0.000 C 
ATOM     16  C   UNL     1       1.404   2.484  19.453  0.00  0.00    +0.000 C 
ENDBRANCH  14  15
ENDBRANCH  13  14
ENDBRANCH  11  13
ENDBRANCH   8  11
BRANCH   1  17
ATOM     17  C   UNL     1       6.183   4.257  16.983  0.00  0.00    +0.000 C 
BRANCH  17  18
ATOM     18  C   UNL     1       5.650   3.691  15.664  0.00  0.00    +0.000 C 
BRANCH  18  19
ATOM     19  C   UNL     1       6.500   4.175  14.491  0.00  0.00    +0.000 C 
BRANCH  19  21
ATOM     20  C   UNL     1       6.951   3.897  12.037  0.00  0.00    +0.000 C 
ATOM     21  C   UNL     1       5.961   3.650  13.163  0.00  0.00    +0.000 C 
ENDBRANCH  19  21
ENDBRANCH  18  19
ENDBRANCH  17  18
ENDBRANCH   1  17
TORSDOF 8
ENDMDL
MODEL 6
REMARK VINA RESULT:      -6.3      2.563      4.903
REMARK  Name = 
REMARK  11 active torsions:
REMARK  status: ('A' for Active; 'I' for Inactive)
REMARK    1  A    between atoms: C_1  and  C_2
REMARK    2  A    between atoms: C_2  and  C_3
REMARK    3  A    between atoms: C_3  and  C_4
REMARK    4  A    between atoms: C_4  and  C_5
REMARK    5  A    between atoms: C_5  and  C_6
REMARK    6  A    between atoms: C_7  and  C_8
REMARK    7  A    between atoms: C_13  and  N_14
REMARK    8  A    between atoms: N_14  and  C_15
REMARK    9  A    between atoms: C_15  and  C_16
REMARK   10  A    between atoms: C_16  and  C_17
REMARK   11  A    between atoms: C_17  and  C_18
REMARK                            x       y       z     vdW  Elec       q    Type
REMARK                         _______ _______ _______ _____ _____    ______ ____
ROOT
ATOM      1  C   UNL     1       3.956   4.785  18.451  0.00  0.00    +0.000 A 
ATOM      2  C   UNL     1       2.784   4.950  19.186  0.00  0.00    +0.000 A 
ATOM      3  C   UNL     1       2.454   6.140  20.043  0.00  0.00    +0.000 C 
ATOM      4  N   UNL     1       1.808   4.020  19.193  0.00  0.00    +0.000 NA
ATOM      5  C   UNL     1       1.973   2.934  18.438  0.00  0.00    +0.000 A 
ATOM      6  N   UNL     1       0.982   1.982  18.496  0.00  0.00    +0.000 N 
ATOM      7  N   UNL     1       3.053   2.679  17.705  0.00  0.00    +0.000 NA
ATOM      8  C   UNL     1       4.032   3.604  17.694  0.00  0.00    +0.000 A 
ATOM      9  H   UNL     1       0.473   2.092  19.357  0.00  0.00    +0.000 HD
ATOM     10  H   UNL     1       1.387   1.072  18.311  0.00  0.00    +0.000 HD
ENDROOT
BRANCH   8  11
ATOM     11  N   UNL     1       5.175   3.337  16.918  0.00  0.00    +0.000 N 
ATOM     12  H   UNL     1       5.280   2.325  16.850  0.00  0.00    +0.000 HD
BRANCH  11  13
ATOM     13  C   UNL     1       5.235   3.989  15.605  0.00  0.00    +0.000 C 
BRANCH  13  14
ATOM     14  C   UNL     1       6.697   4.216  15.188  0.00  0.00    +0.000 C 
BRANCH  14  15
ATOM     15  C   UNL     1       6.814   4.695  13.739  0.00  0.00    +0.000 C 
ATOM     16  C   UNL     1       6.329   3.666  12.731  0.00  0.00    +0.000 C 
ENDBRANCH  14  15
ENDBRANCH  13  14
ENDBRANCH  11  13
ENDBRANCH   8  11
BRANCH   1  17
ATOM     17  C   UNL     1       5.055   5.821  18.435  0.00  0.00    +0.000 C 
BRANCH  17  18
ATOM     18  C   UNL     1       6.287   5.443  19.260  0.00  0.00    +0.000 C 
BRANCH  18  19
ATOM     19  C   UNL     1       7.558   5.978  18.602  0.00  0.00    +0.000 C 
BRANCH  19  21
ATOM     20  C   UNL     1       7.902   8.286  17.677  0.00  0.00    +0.000 C 
ATOM     21  C   UNL     1       7.230   6.940  17.464  0.00  0.00    +0.000 C 
ENDBRANCH  19  21
ENDBRANCH  18  19
ENDBRANCH  17  18
ENDBRANCH   1  17
TORSDOF 8
ENDMDL
MODEL 7
REMARK VINA RESULT:      -6.3      3.223      5.103
REMARK  Name = 
REMARK  11 active torsions:
REMARK  status: ('A' for Active; 'I' for Inactive)
REMARK    1  A    between atoms: C_1  and  C_2
REMARK    2  A    between atoms: C_2  and  C_3
REMARK    3  A    between atoms: C_3  and  C_4
REMARK    4  A    between atoms: C_4  and  C_5
REMARK    5  A    between atoms: C_5  and  C_6
REMARK    6  A    between atoms: C_7  and  C_8
REMARK    7  A    between atoms: C_13  and  N_14
REMARK    8  A    between atoms: N_14  and  C_15
REMARK    9  A    between atoms: C_15  and  C_16
REMARK   10  A    between atoms: C_16  and  C_17
REMARK   11  A    between atoms: C_17  and  C_18
REMARK                            x       y       z     vdW  Elec       q    Type
REMARK                         _______ _______ _______ _____ _____    ______ ____
ROOT
ATOM      1  C   UNL     1       2.971   4.540  18.904  0.00  0.00    +0.000 A 
ATOM      2  C   UNL     1       2.528   3.770  19.978  0.00  0.00    +0.000 A 
ATOM      3  C   UNL     1       1.220   3.952  20.695  0.00  0.00    +0.000 C 
ATOM      4  N   UNL     1       3.261   2.759  20.484  0.00  0.00    +0.000 NA
ATOM      5  C   UNL     1       4.427   2.479  19.903  0.00  0.00    +0.000 A 
ATOM      6  N   UNL     1       5.174   1.471  20.466  0.00  0.00    +0.000 N 
ATOM      7  N   UNL     1       4.943   3.154  18.879  0.00  0.00    +0.000 NA
ATOM      8  C   UNL     1       4.215   4.165  18.368  0.00  0.00    +0.000 A 
ATOM      9  H   UNL     1       4.891   1.350  21.423  0.00  0.00    +0.000 HD
ATOM     10  H   UNL     1       6.156   1.652  20.293  0.00  0.00    +0.000 HD
ENDROOT
BRANCH   8  11
ATOM     11  N   UNL     1       4.758   4.879  17.284  0.00  0.00    +0.000 N 
ATOM     12  H   UNL     1       5.159   5.745  17.646  0.00  0.00    +0.000 HD
BRANCH  11  13
ATOM     13  C   UNL     1       5.703   4.147  16.433  0.00  0.00    +0.000 C 
BRANCH  13  14
ATOM     14  C   UNL     1       7.079   4.833  16.449  0.00  0.00    +0.000 C 
BRANCH  14  15
ATOM     15  C   UNL     1       7.779   4.683  17.802  0.00  0.00    +0.000 C 
ATOM     16  C   UNL     1       7.731   5.949  18.640  0.00  0.00    +0.000 C 
ENDBRANCH  14  15
ENDBRANCH  13  14
ENDBRANCH  11  13
ENDBRANCH   8  11
BRANCH   1  17
ATOM     17  C   UNL     1       2.158   5.674  18.327  0.00  0.00    +0.000 C 
BRANCH  17  18
ATOM     18  C   UNL     1       2.427   7.034  18.975  0.00  0.00    +0.000 C 
BRANCH  18  19
ATOM     19  C   UNL     1       2.730   8.085  17.909  0.00  0.00    +0.000 C 
BRANCH  19  21
ATOM     20  C   UNL     1       1.099   9.579  19.096  0.00  0.00    +0.000 C 
ATOM     21  C   UNL     1       1.566   9.060  17.747  0.00  0.00    +0.000 C 
ENDBRANCH  19  21
ENDBRANCH  18  19
ENDBRANCH  17  18
ENDBRANCH   1  17
TORSDOF 8
ENDMDL
MODEL 8
REMARK VINA RESULT:      -6.2      3.204      4.602
REMARK  Name = 
REMARK  11 active torsions:
REMARK  status: ('A' for Active; 'I' for Inactive)
REMARK    1  A    between atoms: C_1  and  C_2
REMARK    2  A    between atoms: C_2  and  C_3
REMARK    3  A    between atoms: C_3  and  C_4
REMARK    4  A    between atoms: C_4  and  C_5
REMARK    5  A    between atoms: C_5  and  C_6
REMARK    6  A    between atoms: C_7  and  C_8
REMARK    7  A    between atoms: C_13  and  N_14
REMARK    8  A    between atoms: N_14  and  C_15
REMARK    9  A    between atoms: C_15  and  C_16
REMARK   10  A    between atoms: C_16  and  C_17
REMARK   11  A    between atoms: C_17  and  C_18
REMARK                            x       y       z     vdW  Elec       q    Type
REMARK                         _______ _______ _______ _____ _____    ______ ____
ROOT
ATOM      1  C   UNL     1       3.221   4.781  18.650  0.00  0.00    +0.000 A 
ATOM      2  C   UNL     1       2.549   3.776  19.343  0.00  0.00    +0.000 A 
ATOM      3  C   UNL     1       1.059   3.688  19.518  0.00  0.00    +0.000 C 
ATOM      4  N   UNL     1       3.201   2.758  19.937  0.00  0.00    +0.000 NA
ATOM      5  C   UNL     1       4.528   2.710  19.817  0.00  0.00    +0.000 A 
ATOM      6  N   UNL     1       5.173   1.684  20.468  0.00  0.00    +0.000 N 
ATOM      7  N   UNL     1       5.264   3.619  19.184  0.00  0.00    +0.000 NA
ATOM      8  C   UNL     1       4.617   4.639  18.587  0.00  0.00    +0.000 A 
ATOM      9  H   UNL     1       4.586   1.350  21.213  0.00  0.00    +0.000 HD
ATOM     10  H   UNL     1       6.107   1.987  20.717  0.00  0.00    +0.000 HD
ENDROOT
BRANCH   8  11
ATOM     11  N   UNL     1       5.393   5.601  17.915  0.00  0.00    +0.000 N 
ATOM     12  H   UNL     1       5.560   6.376  18.557  0.00  0.00    +0.000 HD
BRANCH  11  13
ATOM     13  C   UNL     1       6.635   5.119  17.299  0.00  0.00    +0.000 C 
BRANCH  13  14
ATOM     14  C   UNL     1       6.539   5.208  15.767  0.00  0.00    +0.000 C 
BRANCH  14  15
ATOM     15  C   UNL     1       5.975   3.925  15.151  0.00  0.00    +0.000 C 
ATOM     16  C   UNL     1       6.145   3.864  13.643  0.00  0.00    +0.000 C 
ENDBRANCH  14  15
ENDBRANCH  13  14
ENDBRANCH  11  13
ENDBRANCH   8  11
BRANCH   1  17
ATOM     17  C   UNL     1       2.500   5.926  17.979  0.00  0.00    +0.000 C 
BRANCH  17  18
ATOM     18  C   UNL     1       2.472   7.218  18.798  0.00  0.00    +0.000 C 
BRANCH  18  19
ATOM     19  C   UNL     1       2.131   8.411  17.906  0.00  0.00    +0.000 C 
BRANCH  19  21
ATOM     20  C   UNL     1       0.072   9.839  18.047  0.00  0.00    +0.000 C 
ATOM     21  C   UNL     1       1.405   9.500  18.691  0.00  0.00    +0.000 C 
ENDBRANCH  19  21
ENDBRANCH  18  19
ENDBRANCH  17  18
ENDBRANCH   1  17
TORSDOF 8
ENDMDL
MODEL 9
REMARK VINA RESULT:      -6.2      1.497      1.786
REMARK  Name = 
REMARK  11 active torsions:
REMARK  status: ('A' for Active; 'I' for Inactive)
REMARK    1  A    between atoms: C_1  and  C_2
REMARK    2  A    between atoms: C_2  and  C_3
REMARK    3  A    between atoms: C_3  and  C_4
REMARK    4  A    between atoms: C_4  and  C_5
REMARK    5  A    between atoms: C_5  and  C_6
REMARK    6  A    between atoms: C_7  and  C_8
REMARK    7  A    between atoms: C_13  and  N_14
REMARK    8  A    between atoms: N_14  and  C_15
REMARK    9  A    between atoms: C_15  and  C_16
REMARK   10  A    between atoms: C_16  and  C_17
REMARK   11  A    between atoms: C_17  and  C_18
REMARK                            x       y       z     vdW  Elec       q    Type
REMARK                         _______ _______ _______ _____ _____    ______ ____
ROOT
ATOM      1  C   UNL     1       4.806   4.325  17.793  0.00  0.00    +0.000 A 
ATOM      2  C   UNL     1       4.849   4.994  19.015  0.00  0.00    +0.000 A 
ATOM      3  C   UNL     1       3.685   5.174  19.948  0.00  0.00    +0.000 C 
ATOM      4  N   UNL     1       5.979   5.559  19.482  0.00  0.00    +0.000 NA
ATOM      5  C   UNL     1       7.089   5.431  18.755  0.00  0.00    +0.000 A 
ATOM      6  N   UNL     1       8.219   6.053  19.234  0.00  0.00    +0.000 N 
ATOM      7  N   UNL     1       7.155   4.819  17.576  0.00  0.00    +0.000 NA
ATOM      8  C   UNL     1       6.028   4.251  17.104  0.00  0.00    +0.000 A 
ATOM      9  H   UNL     1       7.946   6.791  19.859  0.00  0.00    +0.000 HD
ATOM     10  H   UNL     1       8.813   6.306  18.452  0.00  0.00    +0.000 HD
ENDROOT
BRANCH   8  11
ATOM     11  N   UNL     1       6.096   3.602  15.858  0.00  0.00    +0.000 N 
ATOM     12  H   UNL     1       5.228   3.083  15.725  0.00  0.00    +0.000 HD
BRANCH  11  13
ATOM     13  C   UNL     1       6.416   4.447  14.702  0.00  0.00    +0.000 C 
BRANCH  13  14
ATOM     14  C   UNL     1       6.127   3.693  13.393  0.00  0.00    +0.000 C 
BRANCH  14  15
ATOM     15  C   UNL     1       6.914   4.269  12.214  0.00  0.00    +0.000 C 
ATOM     16  C   UNL     1       7.964   5.282  12.636  0.00  0.00    +0.000 C 
ENDBRANCH  14  15
ENDBRANCH  13  14
ENDBRANCH  11  13
ENDBRANCH   8  11
BRANCH   1  17
ATOM     17  C   UNL     1       3.545   3.687  17.261  0.00  0.00    +0.000 C 
BRANCH  17  18
ATOM     18  C   UNL     1       3.392   2.205  17.614  0.00  0.00    +0.000 C 
BRANCH  18  19
ATOM     19  C   UNL     1       2.213   1.999  18.563  0.00  0.00    +0.000 C 
BRANCH  19  21
ATOM     20  C   UNL     1       0.652   3.533  19.791  0.00  0.00    +0.000 C 
ATOM     21  C   UNL     1       1.192   3.126  18.431  0.00  0.00    +0.000 C 
ENDBRANCH  19  21
ENDBRANCH  18  19
ENDBRANCH  17  18
ENDBRANCH   1  17
TORSDOF 8
ENDMDL
