MODEL 1
REMARK VINA RESULT:      -5.3      0.000      0.000
REMARK  Name = 
REMARK  7 active torsions:
REMARK  status: ('A' for Active; 'I' for Inactive)
REMARK    1  A    between atoms: C_1  and  C_2
REMARK    2  A    between atoms: C_2  and  C_3
REMARK    3  A    between atoms: C_2  and  C_4
REMARK    4  A    between atoms: C_2  and  C_5
REMARK    5  A    between atoms: C_5  and  O_6
REMARK    6  A    between atoms: C_5  and  C_7
REMARK    7  A    between atoms: C_7  and  N_8
REMARK                            x       y       z     vdW  Elec       q    Type
REMARK                         _______ _______ _______ _____ _____    ______ ____
ROOT
ATOM      1  C   UNL     1       6.022   5.107  18.829  0.00  0.00    +0.000 C 
ENDROOT
BRANCH   1   3
ATOM      2  C   UNL     1       7.072   4.843  16.521  0.00  0.00    +0.000 C 
ATOM      3  C   UNL     1       6.491   5.867  17.517  0.00  0.00    +0.000 C 
ATOM      4  C   UNL     1       7.586   6.930  17.794  0.00  0.00    +0.000 C 
ATOM      5  C   UNL     1       5.297   6.584  16.840  0.00  0.00    +0.000 C 
ENDBRANCH   1   3
BRANCH   1   6
ATOM      6  O   UNL     1       6.908   5.365  19.889  0.00  0.00    +0.000 OA
ATOM      7  H   UNL     1       6.477   6.018  20.498  0.00  0.00    +0.000 HD
ENDBRANCH   1   6
BRANCH   1   8
ATOM      8  C   UNL     1       4.544   5.420  19.211  0.00  0.00    +0.000 C 
BRANCH   8   9
ATOM      9  N   UNL     1       3.662   4.246  19.466  0.00  0.00    +0.000 NA
ATOM     10  C   UNL     1       3.941   3.229  18.424  0.00  0.00    +0.000 C 
ATOM     11  C   UNL     1       3.091   3.636  17.230  0.00  0.00    +0.000 C 
ATOM     12  C   UNL     1       1.786   3.887  17.933  0.00  0.00    +0.000 C 
ATOM     13  C   UNL     1       2.223   4.537  19.253  0.00  0.00    +0.000 C 
ENDBRANCH   8   9
ENDBRANCH   1   8
TORSDOF 4
ENDMDL
MODEL 2
REMARK VINA RESULT:      -5.3      0.108      1.271
REMARK  Name = 
REMARK  7 active torsions:
REMARK  status: ('A' for Active; 'I' for Inactive)
REMARK    1  A    between atoms: C_1  and  C_2
REMARK    2  A    between atoms: C_2  and  C_3
REMARK    3  A    between atoms: C_2  and  C_4
REMARK    4  A    between atoms: C_2  and  C_5
REMARK    5  A    between atoms: C_5  and  O_6
REMARK    6  A    between atoms: C_5  and  C_7
REMARK    7  A    between atoms: C_7  and  N_8
REMARK                            x       y       z     vdW  Elec       q    Type
REMARK                         _______ _______ _______ _____ _____    ______ ____
ROOT
ATOM      1  C   UNL     1       6.006   5.045  18.840  0.00  0.00    +0.000 C 
ENDROOT
BRANCH   1   3
ATOM      2  C   UNL     1       7.539   6.810  17.824  0.00  0.00    +0.000 C 
ATOM      3  C   UNL     1       6.489   5.730  17.492  0.00  0.00    +0.000 C 
ATOM      4  C   UNL     1       5.333   6.417  16.717  0.00  0.00    +0.000 C 
ATOM      5  C   UNL     1       7.139   4.690  16.547  0.00  0.00    +0.000 C 
ENDBRANCH   1   3
BRANCH   1   6
ATOM      6  O   UNL     1       6.880   5.365  19.893  0.00  0.00    +0.000 OA
ATOM      7  H   UNL     1       6.913   6.352  19.976  0.00  0.00    +0.000 HD
ENDBRANCH   1   6
BRANCH   1   8
ATOM      8  C   UNL     1       4.524   5.377  19.187  0.00  0.00    +0.000 C 
BRANCH   8   9
ATOM      9  N   UNL     1       3.630   4.216  19.460  0.00  0.00    +0.000 NA
ATOM     10  C   UNL     1       3.923   3.167  18.452  0.00  0.00    +0.000 C 
ATOM     11  C   UNL     1       3.098   3.544  17.231  0.00  0.00    +0.000 C 
ATOM     12  C   UNL     1       1.781   3.823  17.902  0.00  0.00    +0.000 C 
ATOM     13  C   UNL     1       2.197   4.509  19.211  0.00  0.00    +0.000 C 
ENDBRANCH   8   9
ENDBRANCH   1   8
TORSDOF 4
ENDMDL
MODEL 3
REMARK VINA RESULT:      -5.2      1.723      4.384
REMARK  Name = 
REMARK  7 active torsions:
REMARK  status: ('A' for Active; 'I' for Inactive)
REMARK    1  A    between atoms: C_1  and  C_2
REMARK    2  A    between atoms: C_2  and  C_3
REMARK    3  A    between atoms: C_2  and  C_4
REMARK    4  A    between atoms: C_2  and  C_5
REMARK    5  A    between atoms: C_5  and  O_6
REMARK    6  A    between atoms: C_5  and  C_7
REMARK    7  A    between atoms: C_7  and  N_8
REMARK                            x       y       z     vdW  Elec       q    Type
REMARK                         _______ _______ _______ _____ _____    ______ ____
ROOT
ATOM      1  C   UNL     1       4.300   3.660  19.576  0.00  0.00    +0.000 C 
ENDROOT
BRANCH   1   3
ATOM      2  C   UNL     1       3.068   2.317  17.793  0.00  0.00    +0.000 C 
ATOM      3  C   UNL     1       2.982   3.564  18.697  0.00  0.00    +0.000 C 
ATOM      4  C   UNL     1       2.777   4.799  17.781  0.00  0.00    +0.000 C 
ATOM      5  C   UNL     1       1.729   3.430  19.597  0.00  0.00    +0.000 C 
ENDBRANCH   1   3
BRANCH   1   6
ATOM      6  O   UNL     1       4.994   2.439  19.554  0.00  0.00    +0.000 OA
ATOM      7  H   UNL     1       5.093   2.158  18.608  0.00  0.00    +0.000 HD
ENDBRANCH   1   6
BRANCH   1   8
ATOM      8  C   UNL     1       5.209   4.859  19.169  0.00  0.00    +0.000 C 
BRANCH   8   9
ATOM      9  N   UNL     1       6.508   4.517  18.524  0.00  0.00    +0.000 NA
ATOM     10  C   UNL     1       7.467   5.609  18.820  0.00  0.00    +0.000 C 
ATOM     11  C   UNL     1       7.199   6.673  17.766  0.00  0.00    +0.000 C 
ATOM     12  C   UNL     1       7.158   5.800  16.542  0.00  0.00    +0.000 C 
ATOM     13  C   UNL     1       6.449   4.534  17.042  0.00  0.00    +0.000 C 
ENDBRANCH   8   9
ENDBRANCH   1   8
TORSDOF 4
ENDMDL
MODEL 4
REMARK VINA RESULT:      -5.2      1.708      2.436
REMARK  Name = 
REMARK  7 active torsions:
REMARK  status: ('A' for Active; 'I' for Inactive)
REMARK    1  A    between atoms: C_1  and  C_2
REMARK    2  A    between atoms: C_2  and  C_3
REMARK    3  A    between atoms: C_2  and  C_4
REMARK    4  A    between atoms: C_2  and  C_5
REMARK    5  A    between atoms: C_5  and  O_6
REMARK    6  A    between atoms: C_5  and  C_7
REMARK    7  A    between atoms: C_7  and  N_8
REMARK                            x       y       z     vdW  Elec       q    Type
REMARK                         _______ _______ _______ _____ _____    ______ ____
ROOT
ATOM      1  C   UNL     1       4.331   3.890  18.568  0.00  0.00    +0.000 C 
ENDROOT
BRANCH   1   3
ATOM      2  C   UNL     1       6.649   4.737  17.929  0.00  0.00    +0.000 C 
ATOM      3  C   UNL     1       5.158   4.765  17.533  0.00  0.00    +0.000 C 
ATOM      4  C   UNL     1       4.707   6.249  17.500  0.00  0.00    +0.000 C 
ATOM      5  C   UNL     1       5.023   4.198  16.099  0.00  0.00    +0.000 C 
ENDBRANCH   1   3
BRANCH   1   6
ATOM      6  O   UNL     1       5.189   3.050  19.296  0.00  0.00    +0.000 OA
ATOM      7  H   UNL     1       5.951   3.595  19.621  0.00  0.00    +0.000 HD
ENDBRANCH   1   6
BRANCH   1   8
ATOM      8  C   UNL     1       3.427   4.755  19.497  0.00  0.00    +0.000 C 
BRANCH   8   9
ATOM      9  N   UNL     1       1.969   4.763  19.184  0.00  0.00    +0.000 NA
ATOM     10  C   UNL     1       1.235   4.383  20.415  0.00  0.00    +0.000 C 
ATOM     11  C   UNL     1       1.245   2.863  20.434  0.00  0.00    +0.000 C 
ATOM     12  C   UNL     1       0.839   2.597  19.011  0.00  0.00    +0.000 C 
ATOM     13  C   UNL     1       1.570   3.699  18.231  0.00  0.00    +0.000 C 
ENDBRANCH   8   9
ENDBRANCH   1   8
TORSDOF 4
ENDMDL
MODEL 5
REMARK VINA RESULT:      -5.2      1.216      1.361
REMARK  Name = 
REMARK  7 active torsions:
REMARK  status: ('A' for Active; 'I' for Inactive)
REMARK    1  A    between atoms: C_1  and  C_2
REMARK    2  A    between atoms: C_2  and  C_3
REMARK    3  A    between atoms: C_2  and  C_4
REMARK    4  A    between atoms: C_2  and  C_5
REMARK    5  A    between atoms: C_5  and  O_6
REMARK    6  A    between atoms: C_5  and  C_7
REMARK    7  A    between atoms: C_7  and  N_8
REMARK                            x       y       z     vdW  Elec       q    Type
REMARK                         _______ _______ _______ _____ _____    ______ ____
ROOT
ATOM      1  C   UNL     1       5.634   4.492  17.753  0.00  0.00    +0.000 C 
ENDROOT
BRANCH   1   3
ATOM      2  C   UNL     1       5.494   5.640  15.481  0.00  0.00    +0.000 C 
ATOM      3  C   UNL     1       5.620   5.888  16.998  0.00  0.00    +0.000 C 
ATOM      4  C   UNL     1       6.911   6.715  17.235  0.00  0.00    +0.000 C 
ATOM      5  C   UNL     1       4.417   6.749  17.454  0.00  0.00    +0.000 C 
ENDBRANCH   1   3
BRANCH   1   6
ATOM      6  O   UNL     1       6.938   4.169  18.163  0.00  0.00    +0.000 OA
ATOM      7  H   UNL     1       6.904   3.303  18.645  0.00  0.00    +0.000 HD
ENDBRANCH   1   6
BRANCH   1   8
ATOM      8  C   UNL     1       4.617   4.436  18.932  0.00  0.00    +0.000 C 
BRANCH   8   9
ATOM      9  N   UNL     1       3.699   3.262  18.961  0.00  0.00    +0.000 NA
ATOM     10  C   UNL     1       3.040   3.165  17.636  0.00  0.00    +0.000 C 
ATOM     11  C   UNL     1       1.858   4.119  17.706  0.00  0.00    +0.000 C 
ATOM     12  C   UNL     1       1.292   3.713  19.038  0.00  0.00    +0.000 C 
ATOM     13  C   UNL     1       2.547   3.442  19.880  0.00  0.00    +0.000 C 
ENDBRANCH   8   9
ENDBRANCH   1   8
TORSDOF 4
ENDMDL
MODEL 6
REMARK VINA RESULT:      -5.1      1.188      1.609
REMARK  Name = 
REMARK  7 active torsions:
REMARK  status: ('A' for Active; 'I' for Inactive)
REMARK    1  A    between atoms: C_1  and  C_2
REMARK    2  A    between atoms: C_2  and  C_3
REMARK    3  A    between atoms: C_2  and  C_4
REMARK    4  A    between atoms: C_2  and  C_5
REMARK    5  A    between atoms: C_5  and  O_6
REMARK    6  A    between atoms: C_5  and  C_7
REMARK    7  A    between atoms: C_7  and  N_8
REMARK                            x       y       z     vdW  Elec       q    Type
REMARK                         _______ _______ _______ _____ _____    ______ ____
ROOT
ATOM      1  C   UNL     1       5.702   4.479  17.776  0.00  0.00    +0.000 C 
ENDROOT
BRANCH   1   3
ATOM      2  C   UNL     1       6.997   6.600  17.207  0.00  0.00    +0.000 C 
ATOM      3  C   UNL     1       5.676   5.841  16.962  0.00  0.00    +0.000 C 
ATOM      4  C   UNL     1       4.511   6.775  17.385  0.00  0.00    +0.000 C 
ATOM      5  C   UNL     1       5.540   5.574  15.443  0.00  0.00    +0.000 C 
ENDBRANCH   1   3
BRANCH   1   6
ATOM      6  O   UNL     1       7.007   4.193  18.212  0.00  0.00    +0.000 OA
ATOM      7  H   UNL     1       7.262   4.873  18.887  0.00  0.00    +0.000 HD
ENDBRANCH   1   6
BRANCH   1   8
ATOM      8  C   UNL     1       4.674   4.458  18.948  0.00  0.00    +0.000 C 
BRANCH   8   9
ATOM      9  N   UNL     1       3.749   3.291  18.997  0.00  0.00    +0.000 NA
ATOM     10  C   UNL     1       3.122   3.148  17.660  0.00  0.00    +0.000 C 
ATOM     11  C   UNL     1       1.944   4.110  17.666  0.00  0.00    +0.000 C 
ATOM     12  C   UNL     1       1.344   3.756  18.998  0.00  0.00    +0.000 C 
ATOM     13  C   UNL     1       2.576   3.511  19.880  0.00  0.00    +0.000 C 
ENDBRANCH   8   9
ENDBRANCH   1   8
TORSDOF 4
ENDMDL
MODEL 7
REMARK VINA RESULT:      -5.1      1.596      2.609
REMARK  Name = 
REMARK  7 active torsions:
REMARK  status: ('A' for Active; 'I' for Inactive)
REMARK    1  A    between atoms: C_1  and  C_2
REMARK    2  A    between atoms: C_2  and  C_3
REMARK    3  A    between atoms: C_2  and  C_4
REMARK    4  A    between atoms: C_2  and  C_5
REMARK    5  A    between atoms: C_5  and  O_6
REMARK    6  A    between atoms: C_5  and  C_7
REMARK    7  A    between atoms: C_7  and  N_8
REMARK                            x       y       z     vdW  Elec       q    Type
REMARK                         _______ _______ _______ _____ _____    ______ ____
ROOT
ATOM      1  C   UNL     1       4.583   4.138  18.487  0.00  0.00    +0.000 C 
ENDROOT
BRANCH   1   3
ATOM      2  C   UNL     1       5.103   6.332  17.298  0.00  0.00    +0.000 C 
ATOM      3  C   UNL     1       5.437   4.827  17.340  0.00  0.00    +0.000 C 
ATOM      4  C   UNL     1       5.146   4.239  15.934  0.00  0.00    +0.000 C 
ATOM      5  C   UNL     1       6.953   4.671  17.612  0.00  0.00    +0.000 C 
ENDBRANCH   1   3
BRANCH   1   6
ATOM      6  O   UNL     1       5.379   3.239  19.218  0.00  0.00    +0.000 OA
ATOM      7  H   UNL     1       6.102   3.755  19.657  0.00  0.00    +0.000 HD
ENDBRANCH   1   6
BRANCH   1   8
ATOM      8  C   UNL     1       3.869   5.172  19.409  0.00  0.00    +0.000 C 
BRANCH   8   9
ATOM      9  N   UNL     1       2.386   5.256  19.286  0.00  0.00    +0.000 NA
ATOM     10  C   UNL     1       1.813   5.269  20.654  0.00  0.00    +0.000 C 
ATOM     11  C   UNL     1       1.719   3.807  21.061  0.00  0.00    +0.000 C 
ATOM     12  C   UNL     1       1.092   3.245  19.815  0.00  0.00    +0.000 C 
ATOM     13  C   UNL     1       1.777   4.040  18.694  0.00  0.00    +0.000 C 
ENDBRANCH   8   9
ENDBRANCH   1   8
TORSDOF 4
ENDMDL
MODEL 8
REMARK VINA RESULT:      -5.1      1.673      2.572
REMARK  Name = 
REMARK  7 active torsions:
REMARK  status: ('A' for Active; 'I' for Inactive)
REMARK    1  A    between atoms: C_1  and  C_2
REMARK    2  A    between atoms: C_2  and  C_3
REMARK    3  A    between atoms: C_2  and  C_4
REMARK    4  A    between atoms: C_2  and  C_5
REMARK    5  A    between atoms: C_5  and  O_6
REMARK    6  A    between atoms: C_5  and  C_7
REMARK    7  A    between atoms: C_7  and  N_8
REMARK                            x       y       z     vdW  Elec       q    Type
REMARK                         _______ _______ _______ _____ _____    ______ ____
ROOT
ATOM      1  C   UNL     1       4.834   4.262  17.950  0.00  0.00    +0.000 C 
ENDROOT
BRANCH   1   3
ATOM      2  C   UNL     1       4.101   6.663  17.507  0.00  0.00    +0.000 C 
ATOM      3  C   UNL     1       5.223   5.634  17.254  0.00  0.00    +0.000 C 
ATOM      4  C   UNL     1       5.405   5.503  15.719  0.00  0.00    +0.000 C 
ATOM      5  C   UNL     1       6.542   6.195  17.839  0.00  0.00    +0.000 C 
ENDBRANCH   1   3
BRANCH   1   6
ATOM      6  O   UNL     1       5.936   3.735  18.644  0.00  0.00    +0.000 OA
ATOM      7  H   UNL     1       6.514   4.490  18.922  0.00  0.00    +0.000 HD
ENDBRANCH   1   6
BRANCH   1   8
ATOM      8  C   UNL     1       3.572   4.383  18.857  0.00  0.00    +0.000 C 
BRANCH   8   9
ATOM      9  N   UNL     1       2.863   3.113  19.179  0.00  0.00    +0.000 NA
ATOM     10  C   UNL     1       1.408   3.344  19.001  0.00  0.00    +0.000 C 
ATOM     11  C   UNL     1       0.938   3.964  20.307  0.00  0.00    +0.000 C 
ATOM     12  C   UNL     1       1.601   3.025  21.277  0.00  0.00    +0.000 C 
ATOM     13  C   UNL     1       2.955   2.739  20.612  0.00  0.00    +0.000 C 
ENDBRANCH   8   9
ENDBRANCH   1   8
TORSDOF 4
ENDMDL
MODEL 9
REMARK VINA RESULT:      -5.1      0.768      1.596
REMARK  Name = 
REMARK  7 active torsions:
REMARK  status: ('A' for Active; 'I' for Inactive)
REMARK    1  A    between atoms: C_1  and  C_2
REMARK    2  A    between atoms: C_2  and  C_3
REMARK    3  A    between atoms: C_2  and  C_4
REMARK    4  A    between atoms: C_2  and  C_5
REMARK    5  A    between atoms: C_5  and  O_6
REMARK    6  A    between atoms: C_5  and  C_7
REMARK    7  A    between atoms: C_7  and  N_8
REMARK                            x       y       z     vdW  Elec       q    Type
REMARK                         _______ _______ _______ _____ _____    ______ ____
ROOT
ATOM      1  C   UNL     1       5.981   4.854  18.651  0.00  0.00    +0.000 C 
ENDROOT
BRANCH   1   3
ATOM      2  C   UNL     1       5.045   6.704  17.168  0.00  0.00    +0.000 C 
ATOM      3  C   UNL     1       6.293   5.842  17.448  0.00  0.00    +0.000 C 
ATOM      4  C   UNL     1       6.658   5.099  16.136  0.00  0.00    +0.000 C 
ATOM      5  C   UNL     1       7.469   6.785  17.800  0.00  0.00    +0.000 C 
ENDBRANCH   1   3
BRANCH   1   6
ATOM      6  O   UNL     1       6.743   5.200  19.780  0.00  0.00    +0.000 OA
ATOM      7  H   UNL     1       6.694   6.184  19.895  0.00  0.00    +0.000 HD
ENDBRANCH   1   6
BRANCH   1   8
ATOM      8  C   UNL     1       4.460   4.763  18.976  0.00  0.00    +0.000 C 
BRANCH   8   9
ATOM      9  N   UNL     1       3.789   3.472  18.653  0.00  0.00    +0.000 NA
ATOM     10  C   UNL     1       3.091   3.631  17.354  0.00  0.00    +0.000 C 
ATOM     11  C   UNL     1       1.752   4.267  17.695  0.00  0.00    +0.000 C 
ATOM     12  C   UNL     1       1.349   3.387  18.846  0.00  0.00    +0.000 C 
ATOM     13  C   UNL     1       2.676   3.143  19.578  0.00  0.00    +0.000 C 
ENDBRANCH   8   9
ENDBRANCH   1   8
TORSDOF 4
ENDMDL
