MODEL 1
REMARK VINA RESULT:      -9.2      0.000      0.000
REMARK  Name = 
REMARK  4 active torsions:
REMARK  status: ('A' for Active; 'I' for Inactive)
REMARK    1  A    between atoms: C_6  and  C_7
REMARK    2  A    between atoms: C_10  and  N_11
REMARK    3  A    between atoms: N_17  and  C_18
REMARK    4  A    between atoms: C_18  and  C_19
REMARK                            x       y       z     vdW  Elec       q    Type
REMARK                         _______ _______ _______ _____ _____    ______ ____
ROOT
ATOM      1  N   UNL     1       3.704   7.438  16.775  0.00  0.00    +0.000 N 
ATOM      2  C   UNL     1       4.633   6.369  16.797  0.00  0.00    +0.000 A 
ATOM      3  C   UNL     1       5.581   6.295  15.798  0.00  0.00    +0.000 A 
ATOM      4  C   UNL     1       6.445   5.229  15.856  0.00  0.00    +0.000 A 
ATOM      5  N   UNL     1       6.372   4.265  16.787  0.00  0.00    +0.000 NA
ATOM      6  C   UNL     1       5.443   4.418  17.733  0.00  0.00    +0.000 A 
ATOM      7  N   UNL     1       5.406   3.458  18.731  0.00  0.00    +0.000 N 
ATOM      8  N   UNL     1       4.574   5.430  17.753  0.00  0.00    +0.000 NA
ATOM      9  H   UNL     1       4.020   8.194  16.180  0.00  0.00    +0.000 HD
ATOM     10  H   UNL     1       5.033   2.614  18.311  0.00  0.00    +0.000 HD
ENDROOT
BRANCH   1  14
ATOM     11  C   UNL     1       1.266   9.004  19.919  0.00  0.00    +0.000 A 
ATOM     12  C   UNL     1       1.447   9.679  18.701  0.00  0.00    +0.000 A 
ATOM     13  C   UNL     1       2.226   9.134  17.668  0.00  0.00    +0.000 A 
ATOM     14  C   UNL     1       2.890   7.912  17.827  0.00  0.00    +0.000 A 
ATOM     15  C   UNL     1       2.661   7.215  19.012  0.00  0.00    +0.000 A 
ATOM     16  C   UNL     1       1.880   7.751  20.043  0.00  0.00    +0.000 A 
BRANCH  11  22
ATOM     17 CL   UNL     1      -2.029  12.674  21.621  0.00  0.00    +0.000 Cl
ATOM     18  C   UNL     1      -1.092  11.253  21.882  0.00  0.00    +0.000 A 
ATOM     19  C   UNL     1      -1.061  10.670  23.144  0.00  0.00    +0.000 A 
ATOM     20  C   UNL     1      -0.292   9.531  23.353  0.00  0.00    +0.000 A 
ATOM     21  C   UNL     1       0.456   8.988  22.304  0.00  0.00    +0.000 A 
ATOM     22  C   UNL     1       0.445   9.562  21.018  0.00  0.00    +0.000 A 
ATOM     23  C   UNL     1      -0.361  10.702  20.828  0.00  0.00    +0.000 A 
ENDBRANCH  11  22
ENDBRANCH   1  14
BRANCH   7  24
ATOM     24  C   UNL     1       4.708   3.855  19.939  0.00  0.00    +0.000 C 
BRANCH  24  25
ATOM     25  C   UNL     1       3.264   3.420  19.881  0.00  0.00    +0.000 A 
ATOM     26  C   UNL     1       2.251   4.077  20.588  0.00  0.00    +0.000 A 
ATOM     27  C   UNL     1       0.932   3.670  20.460  0.00  0.00    +0.000 A 
ATOM     28  C   UNL     1       0.652   2.621  19.598  0.00  0.00    +0.000 A 
ATOM     29  N   UNL     1       1.595   1.977  18.876  0.00  0.00    +0.000 NA
ATOM     30  C   UNL     1       2.872   2.396  19.028  0.00  0.00    +0.000 A 
ENDBRANCH  24  25
ENDBRANCH   7  24
TORSDOF 4
ENDMDL
MODEL 2
REMARK VINA RESULT:      -8.8      3.403      5.538
REMARK  Name = 
REMARK  4 active torsions:
REMARK  status: ('A' for Active; 'I' for Inactive)
REMARK    1  A    between atoms: C_6  and  C_7
REMARK    2  A    between atoms: C_10  and  N_11
REMARK    3  A    between atoms: N_17  and  C_18
REMARK    4  A    between atoms: C_18  and  C_19
REMARK                            x       y       z     vdW  Elec       q    Type
REMARK                         _______ _______ _______ _____ _____    ______ ____
ROOT
ATOM      1  N   UNL     1       3.722   5.553  17.598  0.00  0.00    +0.000 N 
ATOM      2  C   UNL     1       4.987   5.698  16.980  0.00  0.00    +0.000 A 
ATOM      3  C   UNL     1       5.346   4.808  15.989  0.00  0.00    +0.000 A 
ATOM      4  C   UNL     1       6.591   4.981  15.435  0.00  0.00    +0.000 A 
ATOM      5  N   UNL     1       7.459   5.920  15.843  0.00  0.00    +0.000 NA
ATOM      6  C   UNL     1       7.032   6.758  16.790  0.00  0.00    +0.000 A 
ATOM      7  N   UNL     1       7.902   7.767  17.168  0.00  0.00    +0.000 N 
ATOM      8  N   UNL     1       5.834   6.663  17.369  0.00  0.00    +0.000 NA
ATOM      9  H   UNL     1       3.099   4.978  17.043  0.00  0.00    +0.000 HD
ATOM     10  H   UNL     1       8.644   7.328  17.701  0.00  0.00    +0.000 HD
ENDROOT
BRANCH   1  14
ATOM     11  C   UNL     1       1.502   8.319  19.987  0.00  0.00    +0.000 A 
ATOM     12  C   UNL     1       1.931   7.076  20.480  0.00  0.00    +0.000 A 
ATOM     13  C   UNL     1       2.686   6.194  19.691  0.00  0.00    +0.000 A 
ATOM     14  C   UNL     1       3.007   6.501  18.363  0.00  0.00    +0.000 A 
ATOM     15  C   UNL     1       2.634   7.760  17.895  0.00  0.00    +0.000 A 
ATOM     16  C   UNL     1       1.886   8.645  18.680  0.00  0.00    +0.000 A 
BRANCH  11  22
ATOM     17 CL   UNL     1      -0.872  12.942  20.447  0.00  0.00    +0.000 Cl
ATOM     18  C   UNL     1      -0.415  11.413  21.093  0.00  0.00    +0.000 A 
ATOM     19  C   UNL     1      -0.742  11.094  22.407  0.00  0.00    +0.000 A 
ATOM     20  C   UNL     1      -0.359   9.863  22.928  0.00  0.00    +0.000 A 
ATOM     21  C   UNL     1       0.362   8.962  22.139  0.00  0.00    +0.000 A 
ATOM     22  C   UNL     1       0.709   9.263  20.807  0.00  0.00    +0.000 A 
ATOM     23  C   UNL     1       0.288  10.507  20.297  0.00  0.00    +0.000 A 
ENDBRANCH  11  22
ENDBRANCH   1  14
BRANCH   7  24
ATOM     24  C   UNL     1       7.284   8.885  17.856  0.00  0.00    +0.000 C 
BRANCH  24  25
ATOM     25  C   UNL     1       8.314   9.940  18.178  0.00  0.00    +0.000 A 
ATOM     26  C   UNL     1       8.357  11.176  17.523  0.00  0.00    +0.000 A 
ATOM     27  C   UNL     1       9.291  12.131  17.892  0.00  0.00    +0.000 A 
ATOM     28  C   UNL     1      10.152  11.834  18.938  0.00  0.00    +0.000 A 
ATOM     29  N   UNL     1      10.128  10.665  19.615  0.00  0.00    +0.000 NA
ATOM     30  C   UNL     1       9.208   9.754  19.226  0.00  0.00    +0.000 A 
ENDBRANCH  24  25
ENDBRANCH   7  24
TORSDOF 4
ENDMDL
MODEL 3
REMARK VINA RESULT:      -8.6      3.459      5.611
REMARK  Name = 
REMARK  4 active torsions:
REMARK  status: ('A' for Active; 'I' for Inactive)
REMARK    1  A    between atoms: C_6  and  C_7
REMARK    2  A    between atoms: C_10  and  N_11
REMARK    3  A    between atoms: N_17  and  C_18
REMARK    4  A    between atoms: C_18  and  C_19
REMARK                            x       y       z     vdW  Elec       q    Type
REMARK                         _______ _______ _______ _____ _____    ______ ____
ROOT
ATOM      1  N   UNL     1       3.740   5.608  17.752  0.00  0.00    +0.000 N 
ATOM      2  C   UNL     1       5.039   5.663  17.191  0.00  0.00    +0.000 A 
ATOM      3  C   UNL     1       5.450   4.634  16.369  0.00  0.00    +0.000 A 
ATOM      4  C   UNL     1       6.725   4.728  15.866  0.00  0.00    +0.000 A 
ATOM      5  N   UNL     1       7.571   5.723  16.173  0.00  0.00    +0.000 NA
ATOM      6  C   UNL     1       7.094   6.693  16.955  0.00  0.00    +0.000 A 
ATOM      7  N   UNL     1       7.944   7.753  17.222  0.00  0.00    +0.000 N 
ATOM      8  N   UNL     1       5.865   6.681  17.474  0.00  0.00    +0.000 NA
ATOM      9  H   UNL     1       3.148   4.952  17.258  0.00  0.00    +0.000 HD
ATOM     10  H   UNL     1       8.654   7.406  17.857  0.00  0.00    +0.000 HD
ENDROOT
BRANCH   1  14
ATOM     11  C   UNL     1       1.518   8.875  19.388  0.00  0.00    +0.000 A 
ATOM     12  C   UNL     1       1.930   8.843  18.046  0.00  0.00    +0.000 A 
ATOM     13  C   UNL     1       2.632   7.748  17.518  0.00  0.00    +0.000 A 
ATOM     14  C   UNL     1       2.986   6.658  18.322  0.00  0.00    +0.000 A 
ATOM     15  C   UNL     1       2.525   6.662  19.637  0.00  0.00    +0.000 A 
ATOM     16  C   UNL     1       1.820   7.750  20.166  0.00  0.00    +0.000 A 
BRANCH  11  22
ATOM     17 CL   UNL     1      -1.381  10.846  23.251  0.00  0.00    +0.000 Cl
ATOM     18  C   UNL     1      -0.594  11.004  21.728  0.00  0.00    +0.000 A 
ATOM     19  C   UNL     1      -0.712  12.189  21.011  0.00  0.00    +0.000 A 
ATOM     20  C   UNL     1      -0.085  12.306  19.775  0.00  0.00    +0.000 A 
ATOM     21  C   UNL     1       0.643  11.232  19.254  0.00  0.00    +0.000 A 
ATOM     22  C   UNL     1       0.774  10.020  19.959  0.00  0.00    +0.000 A 
ATOM     23  C   UNL     1       0.149   9.937  21.219  0.00  0.00    +0.000 A 
ENDBRANCH  11  22
ENDBRANCH   1  14
BRANCH   7  24
ATOM     24  C   UNL     1       7.293   8.960  17.695  0.00  0.00    +0.000 C 
BRANCH  24  25
ATOM     25  C   UNL     1       8.318   9.984  18.113  0.00  0.00    +0.000 A 
ATOM     26  C   UNL     1       8.397  11.254  17.531  0.00  0.00    +0.000 A 
ATOM     27  C   UNL     1       9.325  12.177  17.987  0.00  0.00    +0.000 A 
ATOM     28  C   UNL     1      10.143  11.813  19.045  0.00  0.00    +0.000 A 
ATOM     29  N   UNL     1      10.083  10.609  19.655  0.00  0.00    +0.000 NA
ATOM     30  C   UNL     1       9.170   9.730  19.182  0.00  0.00    +0.000 A 
ENDBRANCH  24  25
ENDBRANCH   7  24
TORSDOF 4
ENDMDL
MODEL 4
REMARK VINA RESULT:      -8.6      3.391      5.509
REMARK  Name = 
REMARK  4 active torsions:
REMARK  status: ('A' for Active; 'I' for Inactive)
REMARK    1  A    between atoms: C_6  and  C_7
REMARK    2  A    between atoms: C_10  and  N_11
REMARK    3  A    between atoms: N_17  and  C_18
REMARK    4  A    between atoms: C_18  and  C_19
REMARK                            x       y       z     vdW  Elec       q    Type
REMARK                         _______ _______ _______ _____ _____    ______ ____
ROOT
ATOM      1  N   UNL     1       3.829   5.385  17.606  0.00  0.00    +0.000 N 
ATOM      2  C   UNL     1       5.077   5.597  16.973  0.00  0.00    +0.000 A 
ATOM      3  C   UNL     1       5.465   4.736  15.967  0.00  0.00    +0.000 A 
ATOM      4  C   UNL     1       6.693   4.976  15.400  0.00  0.00    +0.000 A 
ATOM      5  N   UNL     1       7.520   5.951  15.807  0.00  0.00    +0.000 NA
ATOM      6  C   UNL     1       7.065   6.757  16.768  0.00  0.00    +0.000 A 
ATOM      7  N   UNL     1       7.891   7.803  17.146  0.00  0.00    +0.000 N 
ATOM      8  N   UNL     1       5.881   6.598  17.362  0.00  0.00    +0.000 NA
ATOM      9  H   UNL     1       3.227   4.787  17.053  0.00  0.00    +0.000 HD
ATOM     10  H   UNL     1       8.661   7.395  17.664  0.00  0.00    +0.000 HD
ENDROOT
BRANCH   1  14
ATOM     11  C   UNL     1       1.619   8.227  19.914  0.00  0.00    +0.000 A 
ATOM     12  C   UNL     1       2.012   8.477  18.589  0.00  0.00    +0.000 A 
ATOM     13  C   UNL     1       2.709   7.519  17.836  0.00  0.00    +0.000 A 
ATOM     14  C   UNL     1       3.080   6.289  18.391  0.00  0.00    +0.000 A 
ATOM     15  C   UNL     1       2.638   6.018  19.686  0.00  0.00    +0.000 A 
ATOM     16  C   UNL     1       1.937   6.968  20.438  0.00  0.00    +0.000 A 
BRANCH  11  22
ATOM     17 CL   UNL     1       0.056  13.158  20.595  0.00  0.00    +0.000 Cl
ATOM     18  C   UNL     1       0.122  11.515  21.106  0.00  0.00    +0.000 A 
ATOM     19  C   UNL     1      -0.469  11.142  22.308  0.00  0.00    +0.000 A 
ATOM     20  C   UNL     1      -0.401   9.817  22.722  0.00  0.00    +0.000 A 
ATOM     21  C   UNL     1       0.270   8.872  21.941  0.00  0.00    +0.000 A 
ATOM     22  C   UNL     1       0.880   9.224  20.721  0.00  0.00    +0.000 A 
ATOM     23  C   UNL     1       0.775  10.569  20.313  0.00  0.00    +0.000 A 
ENDBRANCH  11  22
ENDBRANCH   1  14
BRANCH   7  24
ATOM     24  C   UNL     1       7.230   8.882  17.855  0.00  0.00    +0.000 C 
BRANCH  24  25
ATOM     25  C   UNL     1       8.216   9.973  18.193  0.00  0.00    +0.000 A 
ATOM     26  C   UNL     1       9.254   9.792  19.113  0.00  0.00    +0.000 A 
ATOM     27  C   UNL     1      10.165  10.809  19.351  0.00  0.00    +0.000 A 
ATOM     28  C   UNL     1      10.029  11.988  18.634  0.00  0.00    +0.000 A 
ATOM     29  N   UNL     1       9.058  12.197  17.718  0.00  0.00    +0.000 NA
ATOM     30  C   UNL     1       8.184  11.185  17.514  0.00  0.00    +0.000 A 
ENDBRANCH  24  25
ENDBRANCH   7  24
TORSDOF 4
ENDMDL
MODEL 5
REMARK VINA RESULT:      -8.5      3.451      5.708
REMARK  Name = 
REMARK  4 active torsions:
REMARK  status: ('A' for Active; 'I' for Inactive)
REMARK    1  A    between atoms: C_6  and  C_7
REMARK    2  A    between atoms: C_10  and  N_11
REMARK    3  A    between atoms: N_17  and  C_18
REMARK    4  A    between atoms: C_18  and  C_19
REMARK                            x       y       z     vdW  Elec       q    Type
REMARK                         _______ _______ _______ _____ _____    ______ ____
ROOT
ATOM      1  N   UNL     1       3.762   5.676  18.016  0.00  0.00    +0.000 N 
ATOM      2  C   UNL     1       5.074   5.671  17.484  0.00  0.00    +0.000 A 
ATOM      3  C   UNL     1       5.517   4.545  16.823  0.00  0.00    +0.000 A 
ATOM      4  C   UNL     1       6.803   4.586  16.343  0.00  0.00    +0.000 A 
ATOM      5  N   UNL     1       7.631   5.626  16.530  0.00  0.00    +0.000 NA
ATOM      6  C   UNL     1       7.123   6.688  17.159  0.00  0.00    +0.000 A 
ATOM      7  N   UNL     1       7.955   7.786  17.297  0.00  0.00    +0.000 N 
ATOM      8  N   UNL     1       5.882   6.730  17.645  0.00  0.00    +0.000 NA
ATOM      9  H   UNL     1       3.189   4.950  17.603  0.00  0.00    +0.000 HD
ATOM     10  H   UNL     1       8.652   7.539  17.991  0.00  0.00    +0.000 HD
ENDROOT
BRANCH   1  14
ATOM     11  C   UNL     1       1.337   8.948  19.321  0.00  0.00    +0.000 A 
ATOM     12  C   UNL     1       1.678   7.880  20.167  0.00  0.00    +0.000 A 
ATOM     13  C   UNL     1       2.501   6.830  19.731  0.00  0.00    +0.000 A 
ATOM     14  C   UNL     1       2.983   6.784  18.417  0.00  0.00    +0.000 A 
ATOM     15  C   UNL     1       2.694   7.873  17.596  0.00  0.00    +0.000 A 
ATOM     16  C   UNL     1       1.879   8.925  18.029  0.00  0.00    +0.000 A 
BRANCH  11  22
ATOM     17 CL   UNL     1      -1.361  11.270  23.135  0.00  0.00    +0.000 Cl
ATOM     18  C   UNL     1      -0.817  11.199  21.503  0.00  0.00    +0.000 A 
ATOM     19  C   UNL     1      -1.243  12.160  20.592  0.00  0.00    +0.000 A 
ATOM     20  C   UNL     1      -0.811  12.090  19.272  0.00  0.00    +0.000 A 
ATOM     21  C   UNL     1       0.031  11.052  18.864  0.00  0.00    +0.000 A 
ATOM     22  C   UNL     1       0.473  10.064  19.766  0.00  0.00    +0.000 A 
ATOM     23  C   UNL     1       0.040  10.173  21.102  0.00  0.00    +0.000 A 
ENDBRANCH  11  22
ENDBRANCH   1  14
BRANCH   7  24
ATOM     24  C   UNL     1       7.279   9.037  17.584  0.00  0.00    +0.000 C 
BRANCH  24  25
ATOM     25  C   UNL     1       8.252  10.047  18.141  0.00  0.00    +0.000 A 
ATOM     26  C   UNL     1       9.185   9.728  19.133  0.00  0.00    +0.000 A 
ATOM     27  C   UNL     1      10.091  10.679  19.575  0.00  0.00    +0.000 A 
ATOM     28  C   UNL     1      10.059  11.935  18.987  0.00  0.00    +0.000 A 
ATOM     29  N   UNL     1       9.194  12.278  18.008  0.00  0.00    +0.000 NA
ATOM     30  C   UNL     1       8.320  11.328  17.604  0.00  0.00    +0.000 A 
ENDBRANCH  24  25
ENDBRANCH   7  24
TORSDOF 4
ENDMDL
MODEL 6
REMARK VINA RESULT:      -8.5      4.734      7.136
REMARK  Name = 
REMARK  4 active torsions:
REMARK  status: ('A' for Active; 'I' for Inactive)
REMARK    1  A    between atoms: C_6  and  C_7
REMARK    2  A    between atoms: C_10  and  N_11
REMARK    3  A    between atoms: N_17  and  C_18
REMARK    4  A    between atoms: C_18  and  C_19
REMARK                            x       y       z     vdW  Elec       q    Type
REMARK                         _______ _______ _______ _____ _____    ______ ____
ROOT
ATOM      1  N   UNL     1       6.173   5.071  17.121  0.00  0.00    +0.000 N 
ATOM      2  C   UNL     1       4.940   4.547  17.578  0.00  0.00    +0.000 A 
ATOM      3  C   UNL     1       4.620   3.241  17.269  0.00  0.00    +0.000 A 
ATOM      4  C   UNL     1       3.404   2.788  17.720  0.00  0.00    +0.000 A 
ATOM      5  N   UNL     1       2.527   3.556  18.384  0.00  0.00    +0.000 NA
ATOM      6  C   UNL     1       2.917   4.801  18.666  0.00  0.00    +0.000 A 
ATOM      7  N   UNL     1       2.040   5.576  19.406  0.00  0.00    +0.000 N 
ATOM      8  N   UNL     1       4.085   5.312  18.273  0.00  0.00    +0.000 NA
ATOM      9  H   UNL     1       6.815   4.335  16.855  0.00  0.00    +0.000 HD
ATOM     10  H   UNL     1       1.269   5.812  18.792  0.00  0.00    +0.000 HD
ENDROOT
BRANCH   1  14
ATOM     11  C   UNL     1       8.238   8.600  18.373  0.00  0.00    +0.000 A 
ATOM     12  C   UNL     1       7.260   8.619  17.366  0.00  0.00    +0.000 A 
ATOM     13  C   UNL     1       6.570   7.456  16.990  0.00  0.00    +0.000 A 
ATOM     14  C   UNL     1       6.859   6.219  17.576  0.00  0.00    +0.000 A 
ATOM     15  C   UNL     1       7.786   6.211  18.618  0.00  0.00    +0.000 A 
ATOM     16  C   UNL     1       8.473   7.369  19.000  0.00  0.00    +0.000 A 
BRANCH  11  22
ATOM     17 CL   UNL     1      11.158  12.719  17.061  0.00  0.00    +0.000 Cl
ATOM     18  C   UNL     1      10.350  11.761  18.241  0.00  0.00    +0.000 A 
ATOM     19  C   UNL     1      10.442  12.102  19.586  0.00  0.00    +0.000 A 
ATOM     20  C   UNL     1       9.798  11.317  20.536  0.00  0.00    +0.000 A 
ATOM     21  C   UNL     1       9.078  10.186  20.140  0.00  0.00    +0.000 A 
ATOM     22  C   UNL     1       8.973   9.818  18.785  0.00  0.00    +0.000 A 
ATOM     23  C   UNL     1       9.615  10.644  17.841  0.00  0.00    +0.000 A 
ENDBRANCH  11  22
ENDBRANCH   1  14
BRANCH   7  24
ATOM     24  C   UNL     1       2.634   6.732  20.050  0.00  0.00    +0.000 C 
BRANCH  24  25
ATOM     25  C   UNL     1       1.964   8.000  19.583  0.00  0.00    +0.000 A 
ATOM     26  C   UNL     1       2.053   8.458  18.264  0.00  0.00    +0.000 A 
ATOM     27  C   UNL     1       1.376   9.603  17.873  0.00  0.00    +0.000 A 
ATOM     28  C   UNL     1       0.594  10.254  18.815  0.00  0.00    +0.000 A 
ATOM     29  N   UNL     1       0.458   9.832  20.091  0.00  0.00    +0.000 NA
ATOM     30  C   UNL     1       1.136   8.715  20.441  0.00  0.00    +0.000 A 
ENDBRANCH  24  25
ENDBRANCH   7  24
TORSDOF 4
ENDMDL
MODEL 7
REMARK VINA RESULT:      -8.4      4.899      7.323
REMARK  Name = 
REMARK  4 active torsions:
REMARK  status: ('A' for Active; 'I' for Inactive)
REMARK    1  A    between atoms: C_6  and  C_7
REMARK    2  A    between atoms: C_10  and  N_11
REMARK    3  A    between atoms: N_17  and  C_18
REMARK    4  A    between atoms: C_18  and  C_19
REMARK                            x       y       z     vdW  Elec       q    Type
REMARK                         _______ _______ _______ _____ _____    ______ ____
ROOT
ATOM      1  N   UNL     1       6.433   5.239  17.506  0.00  0.00    +0.000 N 
ATOM      2  C   UNL     1       5.057   4.948  17.668  0.00  0.00    +0.000 A 
ATOM      3  C   UNL     1       4.656   3.628  17.683  0.00  0.00    +0.000 A 
ATOM      4  C   UNL     1       3.309   3.402  17.824  0.00  0.00    +0.000 A 
ATOM      5  N   UNL     1       2.396   4.383  17.896  0.00  0.00    +0.000 NA
ATOM      6  C   UNL     1       2.862   5.633  17.898  0.00  0.00    +0.000 A 
ATOM      7  N   UNL     1       1.928   6.646  18.036  0.00  0.00    +0.000 N 
ATOM      8  N   UNL     1       4.156   5.936  17.776  0.00  0.00    +0.000 NA
ATOM      9  H   UNL     1       7.011   4.431  17.703  0.00  0.00    +0.000 HD
ATOM     10  H   UNL     1       1.417   6.694  17.162  0.00  0.00    +0.000 HD
ENDROOT
BRANCH   1  14
ATOM     11  C   UNL     1       8.495   8.851  18.501  0.00  0.00    +0.000 A 
ATOM     12  C   UNL     1       8.663   7.663  19.232  0.00  0.00    +0.000 A 
ATOM     13  C   UNL     1       8.002   6.479  18.871  0.00  0.00    +0.000 A 
ATOM     14  C   UNL     1       7.113   6.444  17.790  0.00  0.00    +0.000 A 
ATOM     15  C   UNL     1       6.993   7.606  17.029  0.00  0.00    +0.000 A 
ATOM     16  C   UNL     1       7.655   8.788  17.382  0.00  0.00    +0.000 A 
BRANCH  11  22
ATOM     17 CL   UNL     1      10.988  13.181  17.001  0.00  0.00    +0.000 Cl
ATOM     18  C   UNL     1      10.371  12.149  18.234  0.00  0.00    +0.000 A 
ATOM     19  C   UNL     1      10.579  12.471  19.570  0.00  0.00    +0.000 A 
ATOM     20  C   UNL     1      10.090  11.626  20.561  0.00  0.00    +0.000 A 
ATOM     21  C   UNL     1       9.409  10.457  20.212  0.00  0.00    +0.000 A 
ATOM     22  C   UNL     1       9.188  10.108  18.865  0.00  0.00    +0.000 A 
ATOM     23  C   UNL     1       9.673  10.992  17.882  0.00  0.00    +0.000 A 
ENDBRANCH  11  22
ENDBRANCH   1  14
BRANCH   7  24
ATOM     24  C   UNL     1       2.466   7.926  18.457  0.00  0.00    +0.000 C 
BRANCH  24  25
ATOM     25  C   UNL     1       1.562   8.567  19.481  0.00  0.00    +0.000 A 
ATOM     26  C   UNL     1       1.442   8.085  20.789  0.00  0.00    +0.000 A 
ATOM     27  C   UNL     1       0.637   8.742  21.706  0.00  0.00    +0.000 A 
ATOM     28  C   UNL     1      -0.016   9.895  21.296  0.00  0.00    +0.000 A 
ATOM     29  N   UNL     1       0.093  10.410  20.052  0.00  0.00    +0.000 NA
ATOM     30  C   UNL     1       0.882   9.742  19.180  0.00  0.00    +0.000 A 
ENDBRANCH  24  25
ENDBRANCH   7  24
TORSDOF 4
ENDMDL
MODEL 8
REMARK VINA RESULT:      -8.4      4.954      7.461
REMARK  Name = 
REMARK  4 active torsions:
REMARK  status: ('A' for Active; 'I' for Inactive)
REMARK    1  A    between atoms: C_6  and  C_7
REMARK    2  A    between atoms: C_10  and  N_11
REMARK    3  A    between atoms: N_17  and  C_18
REMARK    4  A    between atoms: C_18  and  C_19
REMARK                            x       y       z     vdW  Elec       q    Type
REMARK                         _______ _______ _______ _____ _____    ______ ____
ROOT
ATOM      1  N   UNL     1       6.412   5.289  17.506  0.00  0.00    +0.000 N 
ATOM      2  C   UNL     1       5.035   5.012  17.674  0.00  0.00    +0.000 A 
ATOM      3  C   UNL     1       4.620   3.696  17.686  0.00  0.00    +0.000 A 
ATOM      4  C   UNL     1       3.272   3.482  17.833  0.00  0.00    +0.000 A 
ATOM      5  N   UNL     1       2.369   4.472  17.915  0.00  0.00    +0.000 NA
ATOM      6  C   UNL     1       2.848   5.718  17.921  0.00  0.00    +0.000 A 
ATOM      7  N   UNL     1       1.925   6.739  18.069  0.00  0.00    +0.000 N 
ATOM      8  N   UNL     1       4.144   6.008  17.792  0.00  0.00    +0.000 NA
ATOM      9  H   UNL     1       6.983   4.475  17.696  0.00  0.00    +0.000 HD
ATOM     10  H   UNL     1       1.410   6.796  17.197  0.00  0.00    +0.000 HD
ENDROOT
BRANCH   1  14
ATOM     11  C   UNL     1       8.517   8.875  18.506  0.00  0.00    +0.000 A 
ATOM     12  C   UNL     1       8.686   7.679  19.224  0.00  0.00    +0.000 A 
ATOM     13  C   UNL     1       8.010   6.504  18.861  0.00  0.00    +0.000 A 
ATOM     14  C   UNL     1       7.106   6.486  17.792  0.00  0.00    +0.000 A 
ATOM     15  C   UNL     1       6.985   7.657  17.044  0.00  0.00    +0.000 A 
ATOM     16  C   UNL     1       7.662   8.829  17.398  0.00  0.00    +0.000 A 
BRANCH  11  22
ATOM     17 CL   UNL     1      11.146  13.129  17.019  0.00  0.00    +0.000 Cl
ATOM     18  C   UNL     1      10.470  12.129  18.247  0.00  0.00    +0.000 A 
ATOM     19  C   UNL     1      10.645  12.467  19.585  0.00  0.00    +0.000 A 
ATOM     20  C   UNL     1      10.108  11.649  20.572  0.00  0.00    +0.000 A 
ATOM     21  C   UNL     1       9.413  10.488  20.220  0.00  0.00    +0.000 A 
ATOM     22  C   UNL     1       9.225  10.123  18.873  0.00  0.00    +0.000 A 
ATOM     23  C   UNL     1       9.759  10.982  17.892  0.00  0.00    +0.000 A 
ENDBRANCH  11  22
ENDBRANCH   1  14
BRANCH   7  24
ATOM     24  C   UNL     1       2.478   8.011  18.493  0.00  0.00    +0.000 C 
BRANCH  24  25
ATOM     25  C   UNL     1       1.378   8.943  18.937  0.00  0.00    +0.000 A 
ATOM     26  C   UNL     1       0.607   9.685  18.035  0.00  0.00    +0.000 A 
ATOM     27  C   UNL     1      -0.425  10.488  18.492  0.00  0.00    +0.000 A 
ATOM     28  C   UNL     1      -0.683  10.510  19.854  0.00  0.00    +0.000 A 
ATOM     29  N   UNL     1       0.018   9.791  20.757  0.00  0.00    +0.000 NA
ATOM     30  C   UNL     1       1.021   9.021  20.278  0.00  0.00    +0.000 A 
ENDBRANCH  24  25
ENDBRANCH   7  24
TORSDOF 4
ENDMDL
MODEL 9
REMARK VINA RESULT:      -8.4      3.454      5.546
REMARK  Name = 
REMARK  4 active torsions:
REMARK  status: ('A' for Active; 'I' for Inactive)
REMARK    1  A    between atoms: C_6  and  C_7
REMARK    2  A    between atoms: C_10  and  N_11
REMARK    3  A    between atoms: N_17  and  C_18
REMARK    4  A    between atoms: C_18  and  C_19
REMARK                            x       y       z     vdW  Elec       q    Type
REMARK                         _______ _______ _______ _____ _____    ______ ____
ROOT
ATOM      1  N   UNL     1       3.762   5.489  18.072  0.00  0.00    +0.000 N 
ATOM      2  C   UNL     1       5.053   5.510  17.493  0.00  0.00    +0.000 A 
ATOM      3  C   UNL     1       5.475   4.408  16.778  0.00  0.00    +0.000 A 
ATOM      4  C   UNL     1       6.743   4.472  16.252  0.00  0.00    +0.000 A 
ATOM      5  N   UNL     1       7.573   5.508  16.444  0.00  0.00    +0.000 NA
ATOM      6  C   UNL     1       7.085   6.546  17.127  0.00  0.00    +0.000 A 
ATOM      7  N   UNL     1       7.918   7.643  17.272  0.00  0.00    +0.000 N 
ATOM      8  N   UNL     1       5.862   6.566  17.659  0.00  0.00    +0.000 NA
ATOM      9  H   UNL     1       3.177   4.775  17.656  0.00  0.00    +0.000 HD
ATOM     10  H   UNL     1       8.641   7.376  17.930  0.00  0.00    +0.000 HD
ENDROOT
BRANCH   1  14
ATOM     11  C   UNL     1       1.505   8.872  19.398  0.00  0.00    +0.000 A 
ATOM     12  C   UNL     1       2.011   8.771  18.092  0.00  0.00    +0.000 A 
ATOM     13  C   UNL     1       2.723   7.638  17.665  0.00  0.00    +0.000 A 
ATOM     14  C   UNL     1       2.994   6.580  18.539  0.00  0.00    +0.000 A 
ATOM     15  C   UNL     1       2.440   6.653  19.817  0.00  0.00    +0.000 A 
ATOM     16  C   UNL     1       1.725   7.778  20.244  0.00  0.00    +0.000 A 
BRANCH  11  22
ATOM     17 CL   UNL     1      -0.449  13.605  18.400  0.00  0.00    +0.000 Cl
ATOM     18  C   UNL     1      -0.184  12.280  19.467  0.00  0.00    +0.000 A 
ATOM     19  C   UNL     1      -0.628  12.354  20.782  0.00  0.00    +0.000 A 
ATOM     20  C   UNL     1      -0.399  11.286  21.642  0.00  0.00    +0.000 A 
ATOM     21  C   UNL     1       0.286  10.155  21.190  0.00  0.00    +0.000 A 
ATOM     22  C   UNL     1       0.750  10.057  19.863  0.00  0.00    +0.000 A 
ATOM     23  C   UNL     1       0.484  11.143  19.006  0.00  0.00    +0.000 A 
ENDBRANCH  11  22
ENDBRANCH   1  14
BRANCH   7  24
ATOM     24  C   UNL     1       7.249   8.881  17.625  0.00  0.00    +0.000 C 
BRANCH  24  25
ATOM     25  C   UNL     1       8.251   9.911  18.084  0.00  0.00    +0.000 A 
ATOM     26  C   UNL     1       8.318  11.196  17.534  0.00  0.00    +0.000 A 
ATOM     27  C   UNL     1       9.223  12.122  18.026  0.00  0.00    +0.000 A 
ATOM     28  C   UNL     1      10.032  11.745  19.088  0.00  0.00    +0.000 A 
ATOM     29  N   UNL     1       9.983  10.525  19.666  0.00  0.00    +0.000 NA
ATOM     30  C   UNL     1       9.091   9.644  19.159  0.00  0.00    +0.000 A 
ENDBRANCH  24  25
ENDBRANCH   7  24
TORSDOF 4
ENDMDL
