MODEL 1
REMARK VINA RESULT:      -7.9      0.000      0.000
REMARK  Name = 
REMARK  11 active torsions:
REMARK  status: ('A' for Active; 'I' for Inactive)
REMARK    1  A    between atoms: C_1  and  C_2
REMARK    2  A    between atoms: C_4  and  N_5
REMARK    3  A    between atoms: C_8  and  C_9
REMARK    4  A    between atoms: C_16  and  S_17
REMARK    5  A    between atoms: S_17  and  N_20
REMARK    6  A    between atoms: N_20  and  C_21
REMARK    7  A    between atoms: C_21  and  C_22
REMARK    8  A    between atoms: C_22  and  C_23
REMARK    9  A    between atoms: C_22  and  N_28
REMARK   10  A    between atoms: N_28  and  C_29
REMARK   11  A    between atoms: N_28  and  C_30
REMARK                            x       y       z     vdW  Elec       q    Type
REMARK                         _______ _______ _______ _____ _____    ______ ____
ROOT
ATOM      1  C   UNL     1       1.894   5.859  21.010  0.00  0.00    +0.000 C 
ATOM      2  C   UNL     1       1.793   7.101  20.169  0.00  0.00    +0.000 A 
ATOM      3  C   UNL     1       0.926   8.135  20.592  0.00  0.00    +0.000 A 
ATOM      4  C   UNL     1       0.797   9.326  19.862  0.00  0.00    +0.000 A 
ATOM      5  C   UNL     1       1.496   9.479  18.669  0.00  0.00    +0.000 A 
ATOM      6  C   UNL     1       2.347   8.468  18.226  0.00  0.00    +0.000 A 
ATOM      7  C   UNL     1       2.511   7.287  18.972  0.00  0.00    +0.000 A 
ENDROOT
BRANCH   4   8
ATOM      8  N   UNL     1      -0.155  10.329  20.214  0.00  0.00    +0.000 N 
ATOM      9  C   UNL     1      -1.048  10.806  19.234  0.00  0.00    +0.000 C 
ATOM     10  O   UNL     1      -1.475  10.156  18.290  0.00  0.00    +0.000 OA
ATOM     11  C   UNL     1      -1.365  12.275  19.439  0.00  0.00    +0.000 C 
ATOM     12  C   UNL     1      -0.632  13.070  18.365  0.00  0.00    +0.000 C 
ATOM     13  C   UNL     1      -0.930  12.653  20.853  0.00  0.00    +0.000 C 
ATOM     14  S   UNL     1       0.298  11.477  21.357  0.00  0.00    +0.000 S 
ATOM     15  O   UNL     1      -0.024  10.988  22.677  0.00  0.00    +0.000 OA
ATOM     16  O   UNL     1       1.600  12.017  21.020  0.00  0.00    +0.000 OA
ENDBRANCH   4   8
BRANCH   7  17
ATOM     17  S   UNL     1       3.605   6.051  18.286  0.00  0.00    +0.000 S 
ATOM     18  O   UNL     1       4.510   5.635  19.337  0.00  0.00    +0.000 OA
ATOM     19  O   UNL     1       2.816   5.082  17.558  0.00  0.00    +0.000 OA
BRANCH  17  20
ATOM     20  N   UNL     1       4.552   6.859  17.153  0.00  0.00    +0.000 NA
ATOM     21  H   UNL     1       5.336   7.323  17.615  0.00  0.00    +0.000 HD
BRANCH  20  22
ATOM     22  C   UNL     1       4.863   6.193  15.859  0.00  0.00    +0.000 C 
BRANCH  22  23
ATOM     23  C   UNL     1       6.356   5.763  15.708  0.00  0.00    +0.000 C 
BRANCH  23  24
ATOM     24  C   UNL     1       7.111   6.199  16.945  0.00  0.00    +0.000 A 
ATOM     25  C   UNL     1       7.577   5.554  18.075  0.00  0.00    +0.000 A 
ATOM     26  C   UNL     1       8.171   6.544  18.892  0.00  0.00    +0.000 A 
ATOM     27  C   UNL     1       8.058   7.724  18.202  0.00  0.00    +0.000 A 
ATOM     28  O   UNL     1       7.406   7.531  17.028  0.00  0.00    +0.000 OA
ENDBRANCH  23  24
BRANCH  23  29
ATOM     29  N   UNL     1       6.548   4.303  15.439  0.00  0.00    +0.000 NA
ATOM     30  C   UNL     1       5.526   3.491  16.114  0.00  0.00    +0.000 C 
ATOM     31  C   UNL     1       6.443   4.028  13.992  0.00  0.00    +0.000 C 
ENDBRANCH  23  29
ENDBRANCH  22  23
ENDBRANCH  20  22
ENDBRANCH  17  20
ENDBRANCH   7  17
TORSDOF 7
ENDMDL
MODEL 2
REMARK VINA RESULT:      -7.7      2.384      9.103
REMARK  Name = 
REMARK  11 active torsions:
REMARK  status: ('A' for Active; 'I' for Inactive)
REMARK    1  A    between atoms: C_1  and  C_2
REMARK    2  A    between atoms: C_4  and  N_5
REMARK    3  A    between atoms: C_8  and  C_9
REMARK    4  A    between atoms: C_16  and  S_17
REMARK    5  A    between atoms: S_17  and  N_20
REMARK    6  A    between atoms: N_20  and  C_21
REMARK    7  A    between atoms: C_21  and  C_22
REMARK    8  A    between atoms: C_22  and  C_23
REMARK    9  A    between atoms: C_22  and  N_28
REMARK   10  A    between atoms: N_28  and  C_29
REMARK   11  A    between atoms: N_28  and  C_30
REMARK                            x       y       z     vdW  Elec       q    Type
REMARK                         _______ _______ _______ _____ _____    ______ ____
ROOT
ATOM      1  C   UNL     1       1.478  10.250  18.160  0.00  0.00    +0.000 C 
ATOM      2  C   UNL     1       1.699   8.909  18.804  0.00  0.00    +0.000 A 
ATOM      3  C   UNL     1       2.355   7.902  18.060  0.00  0.00    +0.000 A 
ATOM      4  C   UNL     1       2.606   6.635  18.607  0.00  0.00    +0.000 A 
ATOM      5  C   UNL     1       2.158   6.340  19.890  0.00  0.00    +0.000 A 
ATOM      6  C   UNL     1       1.498   7.314  20.639  0.00  0.00    +0.000 A 
ATOM      7  C   UNL     1       1.276   8.599  20.111  0.00  0.00    +0.000 A 
ENDROOT
BRANCH   4   8
ATOM      8  N   UNL     1       3.165   5.575  17.833  0.00  0.00    +0.000 N 
ATOM      9  C   UNL     1       2.403   4.412  17.604  0.00  0.00    +0.000 C 
ATOM     10  O   UNL     1       1.183   4.370  17.527  0.00  0.00    +0.000 OA
ATOM     11  C   UNL     1       3.280   3.176  17.544  0.00  0.00    +0.000 C 
ATOM     12  C   UNL     1       3.075   2.389  18.833  0.00  0.00    +0.000 C 
ATOM     13  C   UNL     1       4.723   3.637  17.357  0.00  0.00    +0.000 C 
ATOM     14  S   UNL     1       4.822   5.307  17.945  0.00  0.00    +0.000 S 
ATOM     15  O   UNL     1       5.504   6.118  16.965  0.00  0.00    +0.000 OA
ATOM     16  O   UNL     1       5.218   5.267  19.339  0.00  0.00    +0.000 OA
ENDBRANCH   4   8
BRANCH   7  17
ATOM     17  S   UNL     1       0.391   9.751  21.153  0.00  0.00    +0.000 S 
ATOM     18  O   UNL     1      -0.388   8.977  22.097  0.00  0.00    +0.000 OA
ATOM     19  O   UNL     1       1.310  10.770  21.607  0.00  0.00    +0.000 OA
BRANCH  17  20
ATOM     20  N   UNL     1      -0.723  10.511  20.146  0.00  0.00    +0.000 NA
ATOM     21  H   UNL     1      -1.564   9.939  20.055  0.00  0.00    +0.000 HD
BRANCH  20  22
ATOM     22  C   UNL     1      -0.947  11.976  20.287  0.00  0.00    +0.000 C 
BRANCH  22  23
ATOM     23  C   UNL     1      -2.330  12.463  19.750  0.00  0.00    +0.000 C 
BRANCH  23  24
ATOM     24  C   UNL     1      -2.697  11.630  18.541  0.00  0.00    +0.000 A 
ATOM     25  C   UNL     1      -3.797  10.874  18.182  0.00  0.00    +0.000 A 
ATOM     26  C   UNL     1      -3.501  10.298  16.924  0.00  0.00    +0.000 A 
ATOM     27  C   UNL     1      -2.255  10.759  16.579  0.00  0.00    +0.000 A 
ATOM     28  O   UNL     1      -1.753  11.555  17.555  0.00  0.00    +0.000 OA
ENDBRANCH  23  24
BRANCH  23  29
ATOM     29  N   UNL     1      -3.422  12.450  20.773  0.00  0.00    +0.000 NA
ATOM     30  C   UNL     1      -2.884  12.541  22.138  0.00  0.00    +0.000 C 
ATOM     31  C   UNL     1      -4.324  13.602  20.578  0.00  0.00    +0.000 C 
ENDBRANCH  23  29
ENDBRANCH  22  23
ENDBRANCH  20  22
ENDBRANCH  17  20
ENDBRANCH   7  17
TORSDOF 7
ENDMDL
MODEL 3
REMARK VINA RESULT:      -7.5      2.559      8.735
REMARK  Name = 
REMARK  11 active torsions:
REMARK  status: ('A' for Active; 'I' for Inactive)
REMARK    1  A    between atoms: C_1  and  C_2
REMARK    2  A    between atoms: C_4  and  N_5
REMARK    3  A    between atoms: C_8  and  C_9
REMARK    4  A    between atoms: C_16  and  S_17
REMARK    5  A    between atoms: S_17  and  N_20
REMARK    6  A    between atoms: N_20  and  C_21
REMARK    7  A    between atoms: C_21  and  C_22
REMARK    8  A    between atoms: C_22  and  C_23
REMARK    9  A    between atoms: C_22  and  N_28
REMARK   10  A    between atoms: N_28  and  C_29
REMARK   11  A    between atoms: N_28  and  C_30
REMARK                            x       y       z     vdW  Elec       q    Type
REMARK                         _______ _______ _______ _____ _____    ______ ____
ROOT
ATOM      1  C   UNL     1       2.284   9.265  17.747  0.00  0.00    +0.000 C 
ATOM      2  C   UNL     1       2.075   8.214  18.801  0.00  0.00    +0.000 A 
ATOM      3  C   UNL     1       2.617   6.926  18.587  0.00  0.00    +0.000 A 
ATOM      4  C   UNL     1       2.471   5.904  19.536  0.00  0.00    +0.000 A 
ATOM      5  C   UNL     1       1.736   6.141  20.693  0.00  0.00    +0.000 A 
ATOM      6  C   UNL     1       1.182   7.400  20.920  0.00  0.00    +0.000 A 
ATOM      7  C   UNL     1       1.356   8.441  19.990  0.00  0.00    +0.000 A 
ENDROOT
BRANCH   4   8
ATOM      8  N   UNL     1       2.914   4.570  19.286  0.00  0.00    +0.000 N 
ATOM      9  C   UNL     1       4.264   4.343  18.952  0.00  0.00    +0.000 C 
ATOM     10  O   UNL     1       5.210   5.020  19.332  0.00  0.00    +0.000 OA
ATOM     11  C   UNL     1       4.409   3.188  17.980  0.00  0.00    +0.000 C 
ATOM     12  C   UNL     1       4.742   3.765  16.608  0.00  0.00    +0.000 C 
ATOM     13  C   UNL     1       3.099   2.404  17.988  0.00  0.00    +0.000 C 
ATOM     14  S   UNL     1       1.832   3.504  18.564  0.00  0.00    +0.000 S 
ATOM     15  O   UNL     1       1.057   2.844  19.587  0.00  0.00    +0.000 OA
ATOM     16  O   UNL     1       1.225   4.132  17.406  0.00  0.00    +0.000 OA
ENDBRANCH   4   8
BRANCH   7  17
ATOM     17  S   UNL     1       0.571   9.999  20.377  0.00  0.00    +0.000 S 
ATOM     18  O   UNL     1      -0.528   9.724  21.278  0.00  0.00    +0.000 OA
ATOM     19  O   UNL     1       1.592  10.963  20.723  0.00  0.00    +0.000 OA
BRANCH  17  20
ATOM     20  N   UNL     1      -0.129  10.525  18.939  0.00  0.00    +0.000 NA
ATOM     21  H   UNL     1       0.525  10.410  18.165  0.00  0.00    +0.000 HD
BRANCH  20  22
ATOM     22  C   UNL     1      -1.545  10.170  18.650  0.00  0.00    +0.000 C 
BRANCH  22  23
ATOM     23  C   UNL     1      -2.501  11.401  18.542  0.00  0.00    +0.000 C 
BRANCH  23  24
ATOM     24  C   UNL     1      -1.768  12.625  19.046  0.00  0.00    +0.000 A 
ATOM     25  C   UNL     1      -1.826  13.383  20.200  0.00  0.00    +0.000 A 
ATOM     26  C   UNL     1      -0.899  14.440  20.039  0.00  0.00    +0.000 A 
ATOM     27  C   UNL     1      -0.312  14.247  18.814  0.00  0.00    +0.000 A 
ATOM     28  O   UNL     1      -0.839  13.160  18.197  0.00  0.00    +0.000 OA
ENDBRANCH  23  24
BRANCH  23  29
ATOM     29  N   UNL     1      -3.057  11.624  17.170  0.00  0.00    +0.000 NA
ATOM     30  C   UNL     1      -2.583  10.605  16.224  0.00  0.00    +0.000 C 
ATOM     31  C   UNL     1      -4.531  11.552  17.195  0.00  0.00    +0.000 C 
ENDBRANCH  23  29
ENDBRANCH  22  23
ENDBRANCH  20  22
ENDBRANCH  17  20
ENDBRANCH   7  17
TORSDOF 7
ENDMDL
MODEL 4
REMARK VINA RESULT:      -7.3      2.545      9.758
REMARK  Name = 
REMARK  11 active torsions:
REMARK  status: ('A' for Active; 'I' for Inactive)
REMARK    1  A    between atoms: C_1  and  C_2
REMARK    2  A    between atoms: C_4  and  N_5
REMARK    3  A    between atoms: C_8  and  C_9
REMARK    4  A    between atoms: C_16  and  S_17
REMARK    5  A    between atoms: S_17  and  N_20
REMARK    6  A    between atoms: N_20  and  C_21
REMARK    7  A    between atoms: C_21  and  C_22
REMARK    8  A    between atoms: C_22  and  C_23
REMARK    9  A    between atoms: C_22  and  N_28
REMARK   10  A    between atoms: N_28  and  C_29
REMARK   11  A    between atoms: N_28  and  C_30
REMARK                            x       y       z     vdW  Elec       q    Type
REMARK                         _______ _______ _______ _____ _____    ______ ____
ROOT
ATOM      1  C   UNL     1       2.009   9.574  17.740  0.00  0.00    +0.000 C 
ATOM      2  C   UNL     1       1.882   8.532  18.816  0.00  0.00    +0.000 A 
ATOM      3  C   UNL     1       2.472   7.265  18.603  0.00  0.00    +0.000 A 
ATOM      4  C   UNL     1       2.403   6.254  19.573  0.00  0.00    +0.000 A 
ATOM      5  C   UNL     1       1.698   6.479  20.750  0.00  0.00    +0.000 A 
ATOM      6  C   UNL     1       1.097   7.716  20.977  0.00  0.00    +0.000 A 
ATOM      7  C   UNL     1       1.195   8.748  20.026  0.00  0.00    +0.000 A 
ENDROOT
BRANCH   4   8
ATOM      8  N   UNL     1       2.895   4.937  19.328  0.00  0.00    +0.000 N 
ATOM      9  C   UNL     1       4.250   4.760  18.985  0.00  0.00    +0.000 C 
ATOM     10  O   UNL     1       5.172   5.474  19.354  0.00  0.00    +0.000 OA
ATOM     11  C   UNL     1       4.432   3.604  18.020  0.00  0.00    +0.000 C 
ATOM     12  C   UNL     1       4.733   4.183  16.642  0.00  0.00    +0.000 C 
ATOM     13  C   UNL     1       3.153   2.771  18.043  0.00  0.00    +0.000 C 
ATOM     14  S   UNL     1       1.849   3.825  18.620  0.00  0.00    +0.000 S 
ATOM     15  O   UNL     1       1.107   3.143  19.653  0.00  0.00    +0.000 OA
ATOM     16  O   UNL     1       1.211   4.421  17.463  0.00  0.00    +0.000 OA
ENDBRANCH   4   8
BRANCH   7  17
ATOM     17  S   UNL     1       0.356  10.278  20.415  0.00  0.00    +0.000 S 
ATOM     18  O   UNL     1       1.368  11.255  20.760  0.00  0.00    +0.000 OA
ATOM     19  O   UNL     1      -0.620  10.551  19.385  0.00  0.00    +0.000 OA
BRANCH  17  20
ATOM     20  N   UNL     1      -0.501   9.979  21.833  0.00  0.00    +0.000 NA
ATOM     21  H   UNL     1      -0.097   9.183  22.329  0.00  0.00    +0.000 HD
BRANCH  20  22
ATOM     22  C   UNL     1      -0.921  11.127  22.682  0.00  0.00    +0.000 C 
BRANCH  22  23
ATOM     23  C   UNL     1      -1.739  12.217  21.920  0.00  0.00    +0.000 C 
BRANCH  23  24
ATOM     24  C   UNL     1      -3.035  12.455  22.665  0.00  0.00    +0.000 A 
ATOM     25  C   UNL     1      -4.269  12.975  22.322  0.00  0.00    +0.000 A 
ATOM     26  C   UNL     1      -5.054  12.968  23.500  0.00  0.00    +0.000 A 
ATOM     27  C   UNL     1      -4.264  12.419  24.479  0.00  0.00    +0.000 A 
ATOM     28  O   UNL     1      -3.036  12.118  23.989  0.00  0.00    +0.000 OA
ENDBRANCH  23  24
BRANCH  23  29
ATOM     29  N   UNL     1      -0.995  13.496  21.697  0.00  0.00    +0.000 NA
ATOM     30  C   UNL     1      -1.560  14.261  20.577  0.00  0.00    +0.000 C 
ATOM     31  C   UNL     1      -1.073  14.352  22.898  0.00  0.00    +0.000 C 
ENDBRANCH  23  29
ENDBRANCH  22  23
ENDBRANCH  20  22
ENDBRANCH  17  20
ENDBRANCH   7  17
TORSDOF 7
ENDMDL
MODEL 5
REMARK VINA RESULT:      -7.3      2.450      9.093
REMARK  Name = 
REMARK  11 active torsions:
REMARK  status: ('A' for Active; 'I' for Inactive)
REMARK    1  A    between atoms: C_1  and  C_2
REMARK    2  A    between atoms: C_4  and  N_5
REMARK    3  A    between atoms: C_8  and  C_9
REMARK    4  A    between atoms: C_16  and  S_17
REMARK    5  A    between atoms: S_17  and  N_20
REMARK    6  A    between atoms: N_20  and  C_21
REMARK    7  A    between atoms: C_21  and  C_22
REMARK    8  A    between atoms: C_22  and  C_23
REMARK    9  A    between atoms: C_22  and  N_28
REMARK   10  A    between atoms: N_28  and  C_29
REMARK   11  A    between atoms: N_28  and  C_30
REMARK                            x       y       z     vdW  Elec       q    Type
REMARK                         _______ _______ _______ _____ _____    ______ ____
ROOT
ATOM      1  C   UNL     1       0.756   8.665  22.071  0.00  0.00    +0.000 C 
ATOM      2  C   UNL     1       1.302   8.228  20.740  0.00  0.00    +0.000 A 
ATOM      3  C   UNL     1       1.729   6.889  20.591  0.00  0.00    +0.000 A 
ATOM      4  C   UNL     1       2.235   6.413  19.373  0.00  0.00    +0.000 A 
ATOM      5  C   UNL     1       2.369   7.285  18.298  0.00  0.00    +0.000 A 
ATOM      6  C   UNL     1       1.967   8.614  18.424  0.00  0.00    +0.000 A 
ATOM      7  C   UNL     1       1.423   9.089  19.632  0.00  0.00    +0.000 A 
ENDROOT
BRANCH   4   8
ATOM      8  N   UNL     1       2.773   5.098  19.239  0.00  0.00    +0.000 N 
ATOM      9  C   UNL     1       4.140   4.940  18.938  0.00  0.00    +0.000 C 
ATOM     10  O   UNL     1       5.031   5.709  19.270  0.00  0.00    +0.000 OA
ATOM     11  C   UNL     1       4.380   3.721  18.067  0.00  0.00    +0.000 C 
ATOM     12  C   UNL     1       4.693   4.204  16.656  0.00  0.00    +0.000 C 
ATOM     13  C   UNL     1       3.127   2.850  18.128  0.00  0.00    +0.000 C 
ATOM     14  S   UNL     1       1.778   3.903  18.597  0.00  0.00    +0.000 S 
ATOM     15  O   UNL     1       1.035   3.276  19.665  0.00  0.00    +0.000 OA
ATOM     16  O   UNL     1       1.147   4.388  17.386  0.00  0.00    +0.000 OA
ENDBRANCH   4   8
BRANCH   7  17
ATOM     17  S   UNL     1       0.973  10.818  19.683  0.00  0.00    +0.000 S 
ATOM     18  O   UNL     1       1.468  11.363  20.930  0.00  0.00    +0.000 OA
ATOM     19  O   UNL     1       1.316  11.427  18.417  0.00  0.00    +0.000 OA
BRANCH  17  20
ATOM     20  N   UNL     1      -0.706  10.848  19.799  0.00  0.00    +0.000 NA
ATOM     21  H   UNL     1      -0.997  10.661  20.760  0.00  0.00    +0.000 HD
BRANCH  20  22
ATOM     22  C   UNL     1      -1.464  11.914  19.089  0.00  0.00    +0.000 C 
BRANCH  22  23
ATOM     23  C   UNL     1      -1.739  13.185  19.955  0.00  0.00    +0.000 C 
BRANCH  23  24
ATOM     24  C   UNL     1      -2.237  12.742  21.314  0.00  0.00    +0.000 A 
ATOM     25  C   UNL     1      -3.466  12.748  21.945  0.00  0.00    +0.000 A 
ATOM     26  C   UNL     1      -3.258  12.232  23.245  0.00  0.00    +0.000 A 
ATOM     27  C   UNL     1      -1.925  11.916  23.319  0.00  0.00    +0.000 A 
ATOM     28  O   UNL     1      -1.293  12.233  22.162  0.00  0.00    +0.000 OA
ENDBRANCH  23  24
BRANCH  23  29
ATOM     29  N   UNL     1      -0.566  14.107  20.077  0.00  0.00    +0.000 NA
ATOM     30  C   UNL     1      -0.085  14.546  18.760  0.00  0.00    +0.000 C 
ATOM     31  C   UNL     1      -0.940  15.317  20.836  0.00  0.00    +0.000 C 
ENDBRANCH  23  29
ENDBRANCH  22  23
ENDBRANCH  20  22
ENDBRANCH  17  20
ENDBRANCH   7  17
TORSDOF 7
ENDMDL
MODEL 6
REMARK VINA RESULT:      -7.3      2.605      9.625
REMARK  Name = 
REMARK  11 active torsions:
REMARK  status: ('A' for Active; 'I' for Inactive)
REMARK    1  A    between atoms: C_1  and  C_2
REMARK    2  A    between atoms: C_4  and  N_5
REMARK    3  A    between atoms: C_8  and  C_9
REMARK    4  A    between atoms: C_16  and  S_17
REMARK    5  A    between atoms: S_17  and  N_20
REMARK    6  A    between atoms: N_20  and  C_21
REMARK    7  A    between atoms: C_21  and  C_22
REMARK    8  A    between atoms: C_22  and  C_23
REMARK    9  A    between atoms: C_22  and  N_28
REMARK   10  A    between atoms: N_28  and  C_29
REMARK   11  A    between atoms: N_28  and  C_30
REMARK                            x       y       z     vdW  Elec       q    Type
REMARK                         _______ _______ _______ _____ _____    ______ ____
ROOT
ATOM      1  C   UNL     1       2.111   9.496  17.573  0.00  0.00    +0.000 C 
ATOM      2  C   UNL     1       1.909   8.549  18.722  0.00  0.00    +0.000 A 
ATOM      3  C   UNL     1       2.468   7.253  18.636  0.00  0.00    +0.000 A 
ATOM      4  C   UNL     1       2.329   6.326  19.680  0.00  0.00    +0.000 A 
ATOM      5  C   UNL     1       1.584   6.664  20.804  0.00  0.00    +0.000 A 
ATOM      6  C   UNL     1       1.013   7.932  20.906  0.00  0.00    +0.000 A 
ATOM      7  C   UNL     1       1.180   8.880  19.881  0.00  0.00    +0.000 A 
ENDROOT
BRANCH   4   8
ATOM      8  N   UNL     1       2.790   4.980  19.561  0.00  0.00    +0.000 N 
ATOM      9  C   UNL     1       4.158   4.738  19.326  0.00  0.00    +0.000 C 
ATOM     10  O   UNL     1       5.078   5.449  19.706  0.00  0.00    +0.000 OA
ATOM     11  C   UNL     1       4.363   3.511  18.458  0.00  0.00    +0.000 C 
ATOM     12  C   UNL     1       4.775   3.981  17.067  0.00  0.00    +0.000 C 
ATOM     13  C   UNL     1       3.058   2.720  18.451  0.00  0.00    +0.000 C 
ATOM     14  S   UNL     1       1.755   3.853  18.863  0.00  0.00    +0.000 S 
ATOM     15  O   UNL     1       0.924   3.269  19.888  0.00  0.00    +0.000 OA
ATOM     16  O   UNL     1       1.216   4.383  17.626  0.00  0.00    +0.000 OA
ENDBRANCH   4   8
BRANCH   7  17
ATOM     17  S   UNL     1       0.374  10.459  20.111  0.00  0.00    +0.000 S 
ATOM     18  O   UNL     1       1.409  11.460  20.264  0.00  0.00    +0.000 OA
ATOM     19  O   UNL     1      -0.660  10.605  19.112  0.00  0.00    +0.000 OA
BRANCH  17  20
ATOM     20  N   UNL     1      -0.399  10.361  21.603  0.00  0.00    +0.000 NA
ATOM     21  H   UNL     1      -0.071   9.544  22.118  0.00  0.00    +0.000 HD
BRANCH  20  22
ATOM     22  C   UNL     1      -0.587  11.601  22.405  0.00  0.00    +0.000 C 
BRANCH  22  23
ATOM     23  C   UNL     1      -1.644  12.587  21.815  0.00  0.00    +0.000 C 
BRANCH  23  24
ATOM     24  C   UNL     1      -2.762  12.754  22.821  0.00  0.00    +0.000 A 
ATOM     25  C   UNL     1      -3.281  11.968  23.833  0.00  0.00    +0.000 A 
ATOM     26  C   UNL     1      -4.367  12.685  24.388  0.00  0.00    +0.000 A 
ATOM     27  C   UNL     1      -4.427  13.873  23.704  0.00  0.00    +0.000 A 
ATOM     28  O   UNL     1      -3.470  13.921  22.744  0.00  0.00    +0.000 OA
ENDBRANCH  23  24
BRANCH  23  29
ATOM     29  N   UNL     1      -1.081  13.911  21.401  0.00  0.00    +0.000 NA
ATOM     30  C   UNL     1       0.268  14.117  21.944  0.00  0.00    +0.000 C 
ATOM     31  C   UNL     1      -0.981  13.990  19.930  0.00  0.00    +0.000 C 
ENDBRANCH  23  29
ENDBRANCH  22  23
ENDBRANCH  20  22
ENDBRANCH  17  20
ENDBRANCH   7  17
TORSDOF 7
ENDMDL
MODEL 7
REMARK VINA RESULT:      -7.2      2.658      8.597
REMARK  Name = 
REMARK  11 active torsions:
REMARK  status: ('A' for Active; 'I' for Inactive)
REMARK    1  A    between atoms: C_1  and  C_2
REMARK    2  A    between atoms: C_4  and  N_5
REMARK    3  A    between atoms: C_8  and  C_9
REMARK    4  A    between atoms: C_16  and  S_17
REMARK    5  A    between atoms: S_17  and  N_20
REMARK    6  A    between atoms: N_20  and  C_21
REMARK    7  A    between atoms: C_21  and  C_22
REMARK    8  A    between atoms: C_22  and  C_23
REMARK    9  A    between atoms: C_22  and  N_28
REMARK   10  A    between atoms: N_28  and  C_29
REMARK   11  A    between atoms: N_28  and  C_30
REMARK                            x       y       z     vdW  Elec       q    Type
REMARK                         _______ _______ _______ _____ _____    ______ ____
ROOT
ATOM      1  C   UNL     1       1.924   9.960  18.123  0.00  0.00    +0.000 C 
ATOM      2  C   UNL     1       1.978   8.601  18.764  0.00  0.00    +0.000 A 
ATOM      3  C   UNL     1       2.559   7.535  18.038  0.00  0.00    +0.000 A 
ATOM      4  C   UNL     1       2.654   6.246  18.583  0.00  0.00    +0.000 A 
ATOM      5  C   UNL     1       2.124   5.993  19.843  0.00  0.00    +0.000 A 
ATOM      6  C   UNL     1       1.536   7.025  20.573  0.00  0.00    +0.000 A 
ATOM      7  C   UNL     1       1.471   8.329  20.049  0.00  0.00    +0.000 A 
ENDROOT
BRANCH   4   8
ATOM      8  N   UNL     1       3.134   5.138  17.823  0.00  0.00    +0.000 N 
ATOM      9  C   UNL     1       2.265   4.062  17.549  0.00  0.00    +0.000 C 
ATOM     10  O   UNL     1       1.052   4.149  17.418  0.00  0.00    +0.000 OA
ATOM     11  C   UNL     1       3.010   2.742  17.514  0.00  0.00    +0.000 C 
ATOM     12  C   UNL     1       2.668   1.973  18.785  0.00  0.00    +0.000 C 
ATOM     13  C   UNL     1       4.501   3.050  17.395  0.00  0.00    +0.000 C 
ATOM     14  S   UNL     1       4.747   4.698  18.004  0.00  0.00    +0.000 S 
ATOM     15  O   UNL     1       5.553   5.438  17.062  0.00  0.00    +0.000 OA
ATOM     16  O   UNL     1       5.075   4.609  19.413  0.00  0.00    +0.000 OA
ENDBRANCH   4   8
BRANCH   7  17
ATOM     17  S   UNL     1       0.666   9.561  21.063  0.00  0.00    +0.000 S 
ATOM     18  O   UNL     1      -0.428   8.911  21.755  0.00  0.00    +0.000 OA
ATOM     19  O   UNL     1       1.674  10.296  21.793  0.00  0.00    +0.000 OA
BRANCH  17  20
ATOM     20  N   UNL     1      -0.045  10.643  19.987  0.00  0.00    +0.000 NA
ATOM     21  H   UNL     1       0.666  11.065  19.390  0.00  0.00    +0.000 HD
BRANCH  20  22
ATOM     22  C   UNL     1      -1.317  10.265  19.313  0.00  0.00    +0.000 C 
BRANCH  22  23
ATOM     23  C   UNL     1      -2.131  11.480  18.763  0.00  0.00    +0.000 C 
BRANCH  23  24
ATOM     24  C   UNL     1      -1.305  12.734  18.946  0.00  0.00    +0.000 A 
ATOM     25  C   UNL     1      -0.428  13.442  18.147  0.00  0.00    +0.000 A 
ATOM     26  C   UNL     1       0.057  14.518  18.929  0.00  0.00    +0.000 A 
ATOM     27  C   UNL     1      -0.574  14.418  20.143  0.00  0.00    +0.000 A 
ATOM     28  O   UNL     1      -1.390  13.335  20.171  0.00  0.00    +0.000 OA
ENDBRANCH  23  24
BRANCH  23  29
ATOM     29  N   UNL     1      -2.579  11.323  17.344  0.00  0.00    +0.000 NA
ATOM     30  C   UNL     1      -2.147  10.036  16.781  0.00  0.00    +0.000 C 
ATOM     31  C   UNL     1      -4.052  11.367  17.261  0.00  0.00    +0.000 C 
ENDBRANCH  23  29
ENDBRANCH  22  23
ENDBRANCH  20  22
ENDBRANCH  17  20
ENDBRANCH   7  17
TORSDOF 7
ENDMDL
MODEL 8
REMARK VINA RESULT:      -7.2      1.722      3.240
REMARK  Name = 
REMARK  11 active torsions:
REMARK  status: ('A' for Active; 'I' for Inactive)
REMARK    1  A    between atoms: C_1  and  C_2
REMARK    2  A    between atoms: C_4  and  N_5
REMARK    3  A    between atoms: C_8  and  C_9
REMARK    4  A    between atoms: C_16  and  S_17
REMARK    5  A    between atoms: S_17  and  N_20
REMARK    6  A    between atoms: N_20  and  C_21
REMARK    7  A    between atoms: C_21  and  C_22
REMARK    8  A    between atoms: C_22  and  C_23
REMARK    9  A    between atoms: C_22  and  N_28
REMARK   10  A    between atoms: N_28  and  C_29
REMARK   11  A    between atoms: N_28  and  C_30
REMARK                            x       y       z     vdW  Elec       q    Type
REMARK                         _______ _______ _______ _____ _____    ______ ____
ROOT
ATOM      1  C   UNL     1       1.654   4.769  20.911  0.00  0.00    +0.000 C 
ATOM      2  C   UNL     1       1.898   6.029  20.128  0.00  0.00    +0.000 A 
ATOM      3  C   UNL     1       1.457   7.257  20.671  0.00  0.00    +0.000 A 
ATOM      4  C   UNL     1       1.666   8.470  19.999  0.00  0.00    +0.000 A 
ATOM      5  C   UNL     1       2.275   8.467  18.749  0.00  0.00    +0.000 A 
ATOM      6  C   UNL     1       2.708   7.266  18.188  0.00  0.00    +0.000 A 
ATOM      7  C   UNL     1       2.536   6.049  18.873  0.00  0.00    +0.000 A 
ENDROOT
BRANCH   4   8
ATOM      8  N   UNL     1       1.129   9.703  20.478  0.00  0.00    +0.000 N 
ATOM      9  C   UNL     1       1.155   9.975  21.860  0.00  0.00    +0.000 C 
ATOM     10  O   UNL     1       2.002   9.570  22.645  0.00  0.00    +0.000 OA
ATOM     11  C   UNL     1      -0.057  10.779  22.291  0.00  0.00    +0.000 C 
ATOM     12  C   UNL     1      -0.992   9.848  23.055  0.00  0.00    +0.000 C 
ATOM     13  C   UNL     1      -0.700  11.362  21.036  0.00  0.00    +0.000 C 
ATOM     14  S   UNL     1      -0.195  10.352  19.668  0.00  0.00    +0.000 S 
ATOM     15  O   UNL     1       0.270  11.200  18.596  0.00  0.00    +0.000 OA
ATOM     16  O   UNL     1      -1.201   9.327  19.474  0.00  0.00    +0.000 OA
ENDBRANCH   4   8
BRANCH   7  17
ATOM     17  S   UNL     1       3.102   4.574  18.039  0.00  0.00    +0.000 S 
ATOM     18  O   UNL     1       4.174   4.007  18.831  0.00  0.00    +0.000 OA
ATOM     19  O   UNL     1       1.955   3.779  17.665  0.00  0.00    +0.000 OA
BRANCH  17  20
ATOM     20  N   UNL     1       3.815   5.104  16.609  0.00  0.00    +0.000 NA
ATOM     21  H   UNL     1       3.105   5.476  15.977  0.00  0.00    +0.000 HD
BRANCH  20  22
ATOM     22  C   UNL     1       5.089   5.871  16.674  0.00  0.00    +0.000 C 
BRANCH  22  23
ATOM     23  C   UNL     1       6.369   4.993  16.501  0.00  0.00    +0.000 C 
BRANCH  23  24
ATOM     24  C   UNL     1       6.589   4.749  15.024  0.00  0.00    +0.000 A 
ATOM     25  C   UNL     1       6.006   3.924  14.080  0.00  0.00    +0.000 A 
ATOM     26  C   UNL     1       6.705   4.136  12.868  0.00  0.00    +0.000 A 
ATOM     27  C   UNL     1       7.648   5.095  13.137  0.00  0.00    +0.000 A 
ATOM     28  O   UNL     1       7.598   5.464  14.441  0.00  0.00    +0.000 OA
ENDBRANCH  23  24
BRANCH  23  29
ATOM     29  N   UNL     1       7.593   5.562  17.148  0.00  0.00    +0.000 NA
ATOM     30  C   UNL     1       7.398   6.968  17.529  0.00  0.00    +0.000 C 
ATOM     31  C   UNL     1       7.921   4.814  18.378  0.00  0.00    +0.000 C 
ENDBRANCH  23  29
ENDBRANCH  22  23
ENDBRANCH  20  22
ENDBRANCH  17  20
ENDBRANCH   7  17
TORSDOF 7
ENDMDL
MODEL 9
REMARK VINA RESULT:      -7.1      2.768      8.432
REMARK  Name = 
REMARK  11 active torsions:
REMARK  status: ('A' for Active; 'I' for Inactive)
REMARK    1  A    between atoms: C_1  and  C_2
REMARK    2  A    between atoms: C_4  and  N_5
REMARK    3  A    between atoms: C_8  and  C_9
REMARK    4  A    between atoms: C_16  and  S_17
REMARK    5  A    between atoms: S_17  and  N_20
REMARK    6  A    between atoms: N_20  and  C_21
REMARK    7  A    between atoms: C_21  and  C_22
REMARK    8  A    between atoms: C_22  and  C_23
REMARK    9  A    between atoms: C_22  and  N_28
REMARK   10  A    between atoms: N_28  and  C_29
REMARK   11  A    between atoms: N_28  and  C_30
REMARK                            x       y       z     vdW  Elec       q    Type
REMARK                         _______ _______ _______ _____ _____    ______ ____
ROOT
ATOM      1  C   UNL     1       0.782   8.764  21.596  0.00  0.00    +0.000 C 
ATOM      2  C   UNL     1       1.405   8.355  20.290  0.00  0.00    +0.000 A 
ATOM      3  C   UNL     1       1.928   7.047  20.172  0.00  0.00    +0.000 A 
ATOM      4  C   UNL     1       2.509   6.596  18.978  0.00  0.00    +0.000 A 
ATOM      5  C   UNL     1       2.620   7.466  17.898  0.00  0.00    +0.000 A 
ATOM      6  C   UNL     1       2.122   8.764  17.995  0.00  0.00    +0.000 A 
ATOM      7  C   UNL     1       1.504   9.211  19.177  0.00  0.00    +0.000 A 
ENDROOT
BRANCH   4   8
ATOM      8  N   UNL     1       3.141   5.321  18.878  0.00  0.00    +0.000 N 
ATOM      9  C   UNL     1       4.454   5.240  18.375  0.00  0.00    +0.000 C 
ATOM     10  O   UNL     1       5.309   6.108  18.486  0.00  0.00    +0.000 OA
ATOM     11  C   UNL     1       4.671   3.960  17.591  0.00  0.00    +0.000 C 
ATOM     12  C   UNL     1       4.717   4.316  16.109  0.00  0.00    +0.000 C 
ATOM     13  C   UNL     1       3.531   3.004  17.933  0.00  0.00    +0.000 C 
ATOM     14  S   UNL     1       2.177   3.990  18.518  0.00  0.00    +0.000 S 
ATOM     15  O   UNL     1       1.669   3.423  19.744  0.00  0.00    +0.000 OA
ATOM     16  O   UNL     1       1.324   4.295  17.386  0.00  0.00    +0.000 OA
ENDBRANCH   4   8
BRANCH   7  17
ATOM     17  S   UNL     1       0.933  10.905  19.191  0.00  0.00    +0.000 S 
ATOM     18  O   UNL     1      -0.422  10.915  18.682  0.00  0.00    +0.000 OA
ATOM     19  O   UNL     1       1.249  11.493  20.473  0.00  0.00    +0.000 OA
BRANCH  17  20
ATOM     20  N   UNL     1       1.865  11.709  18.042  0.00  0.00    +0.000 NA
ATOM     21  H   UNL     1       1.297  11.938  17.225  0.00  0.00    +0.000 HD
BRANCH  20  22
ATOM     22  C   UNL     1       2.816  12.763  18.488  0.00  0.00    +0.000 C 
BRANCH  22  23
ATOM     23  C   UNL     1       2.327  14.220  18.211  0.00  0.00    +0.000 C 
BRANCH  23  24
ATOM     24  C   UNL     1       1.221  14.551  19.190  0.00  0.00    +0.000 A 
ATOM     25  C   UNL     1       1.185  15.025  20.488  0.00  0.00    +0.000 A 
ATOM     26  C   UNL     1      -0.178  15.078  20.863  0.00  0.00    +0.000 A 
ATOM     27  C   UNL     1      -0.890  14.663  19.767  0.00  0.00    +0.000 A 
ATOM     28  O   UNL     1      -0.054  14.328  18.753  0.00  0.00    +0.000 OA
ENDBRANCH  23  24
BRANCH  23  29
ATOM     29  N   UNL     1       3.414  15.248  18.248  0.00  0.00    +0.000 NA
ATOM     30  C   UNL     1       4.705  14.682  17.833  0.00  0.00    +0.000 C 
ATOM     31  C   UNL     1       3.104  16.359  17.327  0.00  0.00    +0.000 C 
ENDBRANCH  23  29
ENDBRANCH  22  23
ENDBRANCH  20  22
ENDBRANCH  17  20
ENDBRANCH   7  17
TORSDOF 7
ENDMDL
