MODEL 1
REMARK VINA RESULT:      -7.2      0.000      0.000
REMARK  Name = 
REMARK  6 active torsions:
REMARK  status: ('A' for Active; 'I' for Inactive)
REMARK    1  A    between atoms: C_1  and  O_2
REMARK    2  A    between atoms: O_2  and  C_3
REMARK    3  A    between atoms: C_3  and  C_5
REMARK    4  A    between atoms: C_13  and  O_14
REMARK    5  A    between atoms: C_13  and  C_15
REMARK    6  A    between atoms: C_15  and  C_18
REMARK                            x       y       z     vdW  Elec       q    Type
REMARK                         _______ _______ _______ _____ _____    ______ ____
ROOT
ATOM      1  C   UNL     1       4.043   3.442  19.107  0.00  0.00    +0.000 C 
ATOM      2  N   UNL     1       5.291   3.320  19.489  0.00  0.00    +0.000 NA
ATOM      3  N   UNL     1       6.204   4.164  18.937  0.00  0.00    +0.000 N 
ATOM      4  C   UNL     1       5.919   5.141  18.063  0.00  0.00    +0.000 A 
ATOM      5  N   UNL     1       6.660   6.025  17.443  0.00  0.00    +0.000 NA
ATOM      6  N   UNL     1       5.801   6.714  16.614  0.00  0.00    +0.000 NA
ATOM      7  N   UNL     1       4.564   6.238  16.704  0.00  0.00    +0.000 NA
ATOM      8  N   UNL     1       4.633   5.293  17.653  0.00  0.00    +0.000 N 
ATOM      9  C   UNL     1       3.528   4.438  18.063  0.00  0.00    +0.000 C 
ATOM     10  H   UNL     1       7.181   4.038  19.214  0.00  0.00    +0.000 HD
ENDROOT
BRANCH   9  11
ATOM     11  C   UNL     1       2.343   5.304  18.536  0.00  0.00    +0.000 C 
ATOM     12  F   UNL     1       1.963   6.170  17.543  0.00  0.00    +0.000 F 
ATOM     13  F   UNL     1       1.230   4.541  18.725  0.00  0.00    +0.000 F 
BRANCH  11  14
ATOM     14  C   UNL     1       2.628   6.121  19.788  0.00  0.00    +0.000 C 
ATOM     15  F   UNL     1       2.555   7.450  19.532  0.00  0.00    +0.000 F 
ATOM     16  F   UNL     1       1.692   5.885  20.742  0.00  0.00    +0.000 F 
ENDBRANCH  11  14
ENDBRANCH   9  11
BRANCH   1  17
ATOM     17  C   UNL     1       3.050   2.466  19.716  0.00  0.00    +0.000 C 
ATOM     18  O   UNL     1       2.390   1.698  19.045  0.00  0.00    +0.000 OA
BRANCH  17  20
ATOM     19  C   UNL     1       1.641   2.706  21.552  0.00  0.00    +0.000 C 
ATOM     20  O   UNL     1       2.978   2.657  21.048  0.00  0.00    +0.000 OA
ENDBRANCH  17  20
ENDBRANCH   1  17
BRANCH   9  21
ATOM     21  O   UNL     1       3.144   3.628  16.915  0.00  0.00    +0.000 OA
ATOM     22  H   UNL     1       3.679   2.812  16.919  0.00  0.00    +0.000 HD
ENDBRANCH   9  21
TORSDOF 5
ENDMDL
MODEL 2
REMARK VINA RESULT:      -6.8      2.620      4.359
REMARK  Name = 
REMARK  6 active torsions:
REMARK  status: ('A' for Active; 'I' for Inactive)
REMARK    1  A    between atoms: C_1  and  O_2
REMARK    2  A    between atoms: O_2  and  C_3
REMARK    3  A    between atoms: C_3  and  C_5
REMARK    4  A    between atoms: C_13  and  O_14
REMARK    5  A    between atoms: C_13  and  C_15
REMARK    6  A    between atoms: C_15  and  C_18
REMARK                            x       y       z     vdW  Elec       q    Type
REMARK                         _______ _______ _______ _____ _____    ______ ____
ROOT
ATOM      1  C   UNL     1       4.933   3.903  18.862  0.00  0.00    +0.000 C 
ATOM      2  N   UNL     1       5.329   2.740  19.320  0.00  0.00    +0.000 NA
ATOM      3  N   UNL     1       4.607   2.181  20.329  0.00  0.00    +0.000 N 
ATOM      4  C   UNL     1       3.496   2.709  20.864  0.00  0.00    +0.000 A 
ATOM      5  N   UNL     1       2.696   2.315  21.822  0.00  0.00    +0.000 NA
ATOM      6  N   UNL     1       1.764   3.321  21.965  0.00  0.00    +0.000 NA
ATOM      7  N   UNL     1       2.011   4.325  21.131  0.00  0.00    +0.000 NA
ATOM      8  N   UNL     1       3.061   3.912  20.405  0.00  0.00    +0.000 N 
ATOM      9  C   UNL     1       3.740   4.706  19.392  0.00  0.00    +0.000 C 
ATOM     10  H   UNL     1       4.945   1.291  20.703  0.00  0.00    +0.000 HD
ENDROOT
BRANCH   9  11
ATOM     11  C   UNL     1       2.735   5.144  18.308  0.00  0.00    +0.000 C 
ATOM     12  F   UNL     1       1.848   6.053  18.826  0.00  0.00    +0.000 F 
ATOM     13  F   UNL     1       3.359   5.848  17.323  0.00  0.00    +0.000 F 
BRANCH  11  14
ATOM     14  C   UNL     1       1.935   4.002  17.699  0.00  0.00    +0.000 C 
ATOM     15  F   UNL     1       0.804   4.457  17.107  0.00  0.00    +0.000 F 
ATOM     16  F   UNL     1       2.639   3.391  16.713  0.00  0.00    +0.000 F 
ENDBRANCH  11  14
ENDBRANCH   9  11
BRANCH   1  17
ATOM     17  C   UNL     1       5.776   4.518  17.757  0.00  0.00    +0.000 C 
ATOM     18  O   UNL     1       5.792   4.078  16.624  0.00  0.00    +0.000 OA
BRANCH  17  20
ATOM     19  C   UNL     1       6.618   6.654  17.383  0.00  0.00    +0.000 C 
ATOM     20  O   UNL     1       6.521   5.524  18.253  0.00  0.00    +0.000 OA
ENDBRANCH  17  20
ENDBRANCH   1  17
BRANCH   9  21
ATOM     21  O   UNL     1       4.320   5.866  20.052  0.00  0.00    +0.000 OA
ATOM     22  H   UNL     1       3.608   6.508  20.234  0.00  0.00    +0.000 HD
ENDBRANCH   9  21
TORSDOF 5
ENDMDL
MODEL 3
REMARK VINA RESULT:      -6.8      2.584      4.422
REMARK  Name = 
REMARK  6 active torsions:
REMARK  status: ('A' for Active; 'I' for Inactive)
REMARK    1  A    between atoms: C_1  and  O_2
REMARK    2  A    between atoms: O_2  and  C_3
REMARK    3  A    between atoms: C_3  and  C_5
REMARK    4  A    between atoms: C_13  and  O_14
REMARK    5  A    between atoms: C_13  and  C_15
REMARK    6  A    between atoms: C_15  and  C_18
REMARK                            x       y       z     vdW  Elec       q    Type
REMARK                         _______ _______ _______ _____ _____    ______ ____
ROOT
ATOM      1  C   UNL     1       4.924   3.930  18.815  0.00  0.00    +0.000 C 
ATOM      2  N   UNL     1       5.335   2.768  19.261  0.00  0.00    +0.000 NA
ATOM      3  N   UNL     1       4.632   2.199  20.278  0.00  0.00    +0.000 N 
ATOM      4  C   UNL     1       3.525   2.717  20.831  0.00  0.00    +0.000 A 
ATOM      5  N   UNL     1       2.741   2.312  21.799  0.00  0.00    +0.000 NA
ATOM      6  N   UNL     1       1.804   3.311  21.960  0.00  0.00    +0.000 NA
ATOM      7  N   UNL     1       2.031   4.320  21.127  0.00  0.00    +0.000 NA
ATOM      8  N   UNL     1       3.074   3.918  20.384  0.00  0.00    +0.000 N 
ATOM      9  C   UNL     1       3.733   4.721  19.365  0.00  0.00    +0.000 C 
ATOM     10  H   UNL     1       4.981   1.310  20.644  0.00  0.00    +0.000 HD
ENDROOT
BRANCH   9  11
ATOM     11  C   UNL     1       2.708   5.157  18.298  0.00  0.00    +0.000 C 
ATOM     12  F   UNL     1       1.852   6.093  18.818  0.00  0.00    +0.000 F 
ATOM     13  F   UNL     1       3.321   5.828  17.283  0.00  0.00    +0.000 F 
BRANCH  11  14
ATOM     14  C   UNL     1       1.872   4.018  17.733  0.00  0.00    +0.000 C 
ATOM     15  F   UNL     1       0.751   4.485  17.131  0.00  0.00    +0.000 F 
ATOM     16  F   UNL     1       2.551   3.353  16.765  0.00  0.00    +0.000 F 
ENDBRANCH  11  14
ENDBRANCH   9  11
BRANCH   1  17
ATOM     17  C   UNL     1       5.746   4.556  17.700  0.00  0.00    +0.000 C 
ATOM     18  O   UNL     1       6.369   5.590  17.846  0.00  0.00    +0.000 OA
BRANCH  17  20
ATOM     19  C   UNL     1       6.489   4.235  15.519  0.00  0.00    +0.000 C 
ATOM     20  O   UNL     1       5.597   3.845  16.566  0.00  0.00    +0.000 OA
ENDBRANCH  17  20
ENDBRANCH   1  17
BRANCH   9  21
ATOM     21  O   UNL     1       4.313   5.884  20.022  0.00  0.00    +0.000 OA
ATOM     22  H   UNL     1       3.648   6.598  20.034  0.00  0.00    +0.000 HD
ENDBRANCH   9  21
TORSDOF 5
ENDMDL
MODEL 4
REMARK VINA RESULT:      -6.8      0.774      1.100
REMARK  Name = 
REMARK  6 active torsions:
REMARK  status: ('A' for Active; 'I' for Inactive)
REMARK    1  A    between atoms: C_1  and  O_2
REMARK    2  A    between atoms: O_2  and  C_3
REMARK    3  A    between atoms: C_3  and  C_5
REMARK    4  A    between atoms: C_13  and  O_14
REMARK    5  A    between atoms: C_13  and  C_15
REMARK    6  A    between atoms: C_15  and  C_18
REMARK                            x       y       z     vdW  Elec       q    Type
REMARK                         _______ _______ _______ _____ _____    ______ ____
ROOT
ATOM      1  C   UNL     1       4.265   3.719  18.978  0.00  0.00    +0.000 C 
ATOM      2  N   UNL     1       5.488   3.544  19.414  0.00  0.00    +0.000 NA
ATOM      3  N   UNL     1       6.471   4.301  18.855  0.00  0.00    +0.000 N 
ATOM      4  C   UNL     1       6.278   5.244  17.921  0.00  0.00    +0.000 A 
ATOM      5  N   UNL     1       7.094   6.047  17.285  0.00  0.00    +0.000 NA
ATOM      6  N   UNL     1       6.309   6.740  16.388  0.00  0.00    +0.000 NA
ATOM      7  N   UNL     1       5.043   6.344  16.455  0.00  0.00    +0.000 NA
ATOM      8  N   UNL     1       5.019   5.449  17.454  0.00  0.00    +0.000 N 
ATOM      9  C   UNL     1       3.850   4.686  17.864  0.00  0.00    +0.000 C 
ATOM     10  H   UNL     1       7.428   4.131  19.176  0.00  0.00    +0.000 HD
ENDROOT
BRANCH   9  11
ATOM     11  C   UNL     1       2.704   5.645  18.245  0.00  0.00    +0.000 C 
ATOM     12  F   UNL     1       2.806   6.810  17.529  0.00  0.00    +0.000 F 
ATOM     13  F   UNL     1       1.501   5.143  17.851  0.00  0.00    +0.000 F 
BRANCH  11  14
ATOM     14  C   UNL     1       2.656   6.004  19.723  0.00  0.00    +0.000 C 
ATOM     15  F   UNL     1       2.590   7.347  19.898  0.00  0.00    +0.000 F 
ATOM     16  F   UNL     1       1.535   5.508  20.304  0.00  0.00    +0.000 F 
ENDBRANCH  11  14
ENDBRANCH   9  11
BRANCH   1  17
ATOM     17  C   UNL     1       3.192   2.839  19.598  0.00  0.00    +0.000 C 
ATOM     18  O   UNL     1       3.041   2.739  20.800  0.00  0.00    +0.000 OA
BRANCH  17  20
ATOM     19  C   UNL     1       1.120   2.133  18.812  0.00  0.00    +0.000 C 
ATOM     20  O   UNL     1       2.538   2.164  18.633  0.00  0.00    +0.000 OA
ENDBRANCH  17  20
ENDBRANCH   1  17
BRANCH   9  21
ATOM     21  O   UNL     1       3.458   3.839  16.746  0.00  0.00    +0.000 OA
ATOM     22  H   UNL     1       2.492   3.709  16.779  0.00  0.00    +0.000 HD
ENDBRANCH   9  21
TORSDOF 5
ENDMDL
MODEL 5
REMARK VINA RESULT:      -6.7      2.742      4.242
REMARK  Name = 
REMARK  6 active torsions:
REMARK  status: ('A' for Active; 'I' for Inactive)
REMARK    1  A    between atoms: C_1  and  O_2
REMARK    2  A    between atoms: O_2  and  C_3
REMARK    3  A    between atoms: C_3  and  C_5
REMARK    4  A    between atoms: C_13  and  O_14
REMARK    5  A    between atoms: C_13  and  C_15
REMARK    6  A    between atoms: C_15  and  C_18
REMARK                            x       y       z     vdW  Elec       q    Type
REMARK                         _______ _______ _______ _____ _____    ______ ____
ROOT
ATOM      1  C   UNL     1       4.992   3.998  19.122  0.00  0.00    +0.000 C 
ATOM      2  N   UNL     1       5.094   2.790  19.620  0.00  0.00    +0.000 NA
ATOM      3  N   UNL     1       3.979   2.239  20.172  0.00  0.00    +0.000 N 
ATOM      4  C   UNL     1       2.771   2.822  20.209  0.00  0.00    +0.000 A 
ATOM      5  N   UNL     1       1.615   2.443  20.694  0.00  0.00    +0.000 NA
ATOM      6  N   UNL     1       0.761   3.508  20.491  0.00  0.00    +0.000 NA
ATOM      7  N   UNL     1       1.394   4.527  19.922  0.00  0.00    +0.000 NA
ATOM      8  N   UNL     1       2.635   4.072  19.696  0.00  0.00    +0.000 N 
ATOM      9  C   UNL     1       3.725   4.860  19.138  0.00  0.00    +0.000 C 
ATOM     10  H   UNL     1       4.077   1.311  20.590  0.00  0.00    +0.000 HD
ENDROOT
BRANCH   9  11
ATOM     11  C   UNL     1       3.316   5.419  17.760  0.00  0.00    +0.000 C 
ATOM     12  F   UNL     1       3.612   4.512  16.775  0.00  0.00    +0.000 F 
ATOM     13  F   UNL     1       1.963   5.544  17.670  0.00  0.00    +0.000 F 
BRANCH  11  14
ATOM     14  C   UNL     1       3.982   6.739  17.399  0.00  0.00    +0.000 C 
ATOM     15  F   UNL     1       4.585   6.668  16.187  0.00  0.00    +0.000 F 
ATOM     16  F   UNL     1       3.061   7.729  17.286  0.00  0.00    +0.000 F 
ENDBRANCH  11  14
ENDBRANCH   9  11
BRANCH   1  17
ATOM     17  C   UNL     1       6.260   4.599  18.539  0.00  0.00    +0.000 C 
ATOM     18  O   UNL     1       6.638   4.362  17.408  0.00  0.00    +0.000 OA
BRANCH  17  20
ATOM     19  C   UNL     1       7.873   6.226  18.945  0.00  0.00    +0.000 C 
ATOM     20  O   UNL     1       6.895   5.329  19.477  0.00  0.00    +0.000 OA
ENDBRANCH  17  20
ENDBRANCH   1  17
BRANCH   9  21
ATOM     21  O   UNL     1       4.010   5.944  20.067  0.00  0.00    +0.000 OA
ATOM     22  H   UNL     1       3.883   6.793  19.602  0.00  0.00    +0.000 HD
ENDBRANCH   9  21
TORSDOF 5
ENDMDL
MODEL 6
REMARK VINA RESULT:      -6.5      0.988      1.758
REMARK  Name = 
REMARK  6 active torsions:
REMARK  status: ('A' for Active; 'I' for Inactive)
REMARK    1  A    between atoms: C_1  and  O_2
REMARK    2  A    between atoms: O_2  and  C_3
REMARK    3  A    between atoms: C_3  and  C_5
REMARK    4  A    between atoms: C_13  and  O_14
REMARK    5  A    between atoms: C_13  and  C_15
REMARK    6  A    between atoms: C_15  and  C_18
REMARK                            x       y       z     vdW  Elec       q    Type
REMARK                         _______ _______ _______ _____ _____    ______ ____
ROOT
ATOM      1  C   UNL     1       4.667   3.671  19.048  0.00  0.00    +0.000 C 
ATOM      2  N   UNL     1       5.851   3.854  19.579  0.00  0.00    +0.000 NA
ATOM      3  N   UNL     1       6.614   4.867  19.085  0.00  0.00    +0.000 N 
ATOM      4  C   UNL     1       6.229   5.722  18.126  0.00  0.00    +0.000 A 
ATOM      5  N   UNL     1       6.824   6.732  17.542  0.00  0.00    +0.000 NA
ATOM      6  N   UNL     1       5.942   7.177  16.579  0.00  0.00    +0.000 NA
ATOM      7  N   UNL     1       4.843   6.431  16.555  0.00  0.00    +0.000 NA
ATOM      8  N   UNL     1       5.003   5.559  17.562  0.00  0.00    +0.000 N 
ATOM      9  C   UNL     1       4.077   4.486  17.893  0.00  0.00    +0.000 C 
ATOM     10  H   UNL     1       7.550   4.979  19.480  0.00  0.00    +0.000 HD
ENDROOT
BRANCH   9  11
ATOM     11  C   UNL     1       2.677   5.070  18.173  0.00  0.00    +0.000 C 
ATOM     12  F   UNL     1       2.518   5.292  19.517  0.00  0.00    +0.000 F 
ATOM     13  F   UNL     1       2.555   6.316  17.636  0.00  0.00    +0.000 F 
BRANCH  11  14
ATOM     14  C   UNL     1       1.528   4.190  17.703  0.00  0.00    +0.000 C 
ATOM     15  F   UNL     1       0.798   3.737  18.752  0.00  0.00    +0.000 F 
ATOM     16  F   UNL     1       0.660   4.897  16.937  0.00  0.00    +0.000 F 
ENDBRANCH  11  14
ENDBRANCH   9  11
BRANCH   1  17
ATOM     17  C   UNL     1       3.850   2.513  19.598  0.00  0.00    +0.000 C 
ATOM     18  O   UNL     1       3.369   1.654  18.886  0.00  0.00    +0.000 OA
BRANCH  17  20
ATOM     19  C   UNL     1       2.333   2.599  21.360  0.00  0.00    +0.000 C 
ATOM     20  O   UNL     1       3.695   2.652  20.929  0.00  0.00    +0.000 OA
ENDBRANCH  17  20
ENDBRANCH   1  17
BRANCH   9  21
ATOM     21  O   UNL     1       4.033   3.572  16.761  0.00  0.00    +0.000 OA
ATOM     22  H   UNL     1       4.642   3.902  16.072  0.00  0.00    +0.000 HD
ENDBRANCH   9  21
TORSDOF 5
ENDMDL
MODEL 7
REMARK VINA RESULT:      -6.5      1.707      2.136
REMARK  Name = 
REMARK  6 active torsions:
REMARK  status: ('A' for Active; 'I' for Inactive)
REMARK    1  A    between atoms: C_1  and  O_2
REMARK    2  A    between atoms: O_2  and  C_3
REMARK    3  A    between atoms: C_3  and  C_5
REMARK    4  A    between atoms: C_13  and  O_14
REMARK    5  A    between atoms: C_13  and  C_15
REMARK    6  A    between atoms: C_15  and  C_18
REMARK                            x       y       z     vdW  Elec       q    Type
REMARK                         _______ _______ _______ _____ _____    ______ ____
ROOT
ATOM      1  C   UNL     1       5.335   4.241  19.007  0.00  0.00    +0.000 C 
ATOM      2  N   UNL     1       6.106   4.578  20.012  0.00  0.00    +0.000 NA
ATOM      3  N   UNL     1       7.066   5.515  19.784  0.00  0.00    +0.000 N 
ATOM      4  C   UNL     1       7.257   6.152  18.619  0.00  0.00    +0.000 A 
ATOM      5  N   UNL     1       8.117   7.060  18.231  0.00  0.00    +0.000 NA
ATOM      6  N   UNL     1       7.859   7.269  16.893  0.00  0.00    +0.000 NA
ATOM      7  N   UNL     1       6.879   6.481  16.465  0.00  0.00    +0.000 NA
ATOM      8  N   UNL     1       6.469   5.825  17.561  0.00  0.00    +0.000 N 
ATOM      9  C   UNL     1       5.444   4.791  17.582  0.00  0.00    +0.000 C 
ATOM     10  H   UNL     1       7.686   5.745  20.564  0.00  0.00    +0.000 HD
ENDROOT
BRANCH   9  11
ATOM     11  C   UNL     1       4.125   5.350  17.010  0.00  0.00    +0.000 C 
ATOM     12  F   UNL     1       4.341   5.898  15.772  0.00  0.00    +0.000 F 
ATOM     13  F   UNL     1       3.244   4.343  16.753  0.00  0.00    +0.000 F 
BRANCH  11  14
ATOM     14  C   UNL     1       3.464   6.406  17.883  0.00  0.00    +0.000 C 
ATOM     15  F   UNL     1       3.544   7.633  17.312  0.00  0.00    +0.000 F 
ATOM     16  F   UNL     1       2.137   6.158  18.020  0.00  0.00    +0.000 F 
ENDBRANCH  11  14
ENDBRANCH   9  11
BRANCH   1  17
ATOM     17  C   UNL     1       4.292   3.171  19.284  0.00  0.00    +0.000 C 
ATOM     18  O   UNL     1       4.297   2.091  18.727  0.00  0.00    +0.000 OA
BRANCH  17  20
ATOM     19  C   UNL     1       2.154   2.887  20.157  0.00  0.00    +0.000 C 
ATOM     20  O   UNL     1       3.367   3.642  20.143  0.00  0.00    +0.000 OA
ENDBRANCH  17  20
ENDBRANCH   1  17
BRANCH   9  21
ATOM     21  O   UNL     1       5.921   3.677  16.775  0.00  0.00    +0.000 OA
ATOM     22  H   UNL     1       5.853   2.860  17.304  0.00  0.00    +0.000 HD
ENDBRANCH   9  21
TORSDOF 5
ENDMDL
MODEL 8
REMARK VINA RESULT:      -6.4      3.682      5.458
REMARK  Name = 
REMARK  6 active torsions:
REMARK  status: ('A' for Active; 'I' for Inactive)
REMARK    1  A    between atoms: C_1  and  O_2
REMARK    2  A    between atoms: O_2  and  C_3
REMARK    3  A    between atoms: C_3  and  C_5
REMARK    4  A    between atoms: C_13  and  O_14
REMARK    5  A    between atoms: C_13  and  C_15
REMARK    6  A    between atoms: C_15  and  C_18
REMARK                            x       y       z     vdW  Elec       q    Type
REMARK                         _______ _______ _______ _____ _____    ______ ____
ROOT
ATOM      1  C   UNL     1       5.882   5.589  15.821  0.00  0.00    +0.000 C 
ATOM      2  N   UNL     1       5.187   6.596  15.352  0.00  0.00    +0.000 NA
ATOM      3  N   UNL     1       4.234   7.135  16.160  0.00  0.00    +0.000 N 
ATOM      4  C   UNL     1       3.979   6.741  17.417  0.00  0.00    +0.000 A 
ATOM      5  N   UNL     1       3.114   7.139  18.316  0.00  0.00    +0.000 NA
ATOM      6  N   UNL     1       3.287   6.298  19.396  0.00  0.00    +0.000 NA
ATOM      7  N   UNL     1       4.219   5.385  19.147  0.00  0.00    +0.000 NA
ATOM      8  N   UNL     1       4.688   5.702  17.930  0.00  0.00    +0.000 N 
ATOM      9  C   UNL     1       5.690   4.942  17.197  0.00  0.00    +0.000 C 
ATOM     10  H   UNL     1       3.672   7.897  15.772  0.00  0.00    +0.000 HD
ENDROOT
BRANCH   9  11
ATOM     11  C   UNL     1       6.979   4.829  18.035  0.00  0.00    +0.000 C 
ATOM     12  F   UNL     1       6.769   4.014  19.118  0.00  0.00    +0.000 F 
ATOM     13  F   UNL     1       7.953   4.177  17.341  0.00  0.00    +0.000 F 
BRANCH  11  14
ATOM     14  C   UNL     1       7.511   6.160  18.545  0.00  0.00    +0.000 C 
ATOM     15  F   UNL     1       8.528   5.977  19.423  0.00  0.00    +0.000 F 
ATOM     16  F   UNL     1       8.037   6.891  17.530  0.00  0.00    +0.000 F 
ENDBRANCH  11  14
ENDBRANCH   9  11
BRANCH   1  17
ATOM     17  C   UNL     1       6.919   4.988  14.886  0.00  0.00    +0.000 C 
ATOM     18  O   UNL     1       7.919   5.588  14.544  0.00  0.00    +0.000 OA
BRANCH  17  20
ATOM     19  C   UNL     1       6.259   3.710  13.057  0.00  0.00    +0.000 C 
ATOM     20  O   UNL     1       6.508   3.777  14.463  0.00  0.00    +0.000 OA
ENDBRANCH  17  20
ENDBRANCH   1  17
BRANCH   9  21
ATOM     21  O   UNL     1       5.137   3.623  16.927  0.00  0.00    +0.000 OA
ATOM     22  H   UNL     1       4.740   3.629  16.036  0.00  0.00    +0.000 HD
ENDBRANCH   9  21
TORSDOF 5
ENDMDL
MODEL 9
REMARK VINA RESULT:      -6.4      0.813      1.270
REMARK  Name = 
REMARK  6 active torsions:
REMARK  status: ('A' for Active; 'I' for Inactive)
REMARK    1  A    between atoms: C_1  and  O_2
REMARK    2  A    between atoms: O_2  and  C_3
REMARK    3  A    between atoms: C_3  and  C_5
REMARK    4  A    between atoms: C_13  and  O_14
REMARK    5  A    between atoms: C_13  and  C_15
REMARK    6  A    between atoms: C_15  and  C_18
REMARK                            x       y       z     vdW  Elec       q    Type
REMARK                         _______ _______ _______ _____ _____    ______ ____
ROOT
ATOM      1  C   UNL     1       4.123   3.618  19.065  0.00  0.00    +0.000 C 
ATOM      2  N   UNL     1       5.366   3.487  19.460  0.00  0.00    +0.000 NA
ATOM      3  N   UNL     1       6.305   4.264  18.856  0.00  0.00    +0.000 N 
ATOM      4  C   UNL     1       6.050   5.186  17.915  0.00  0.00    +0.000 A 
ATOM      5  N   UNL     1       6.818   6.003  17.239  0.00  0.00    +0.000 NA
ATOM      6  N   UNL     1       5.980   6.659  16.361  0.00  0.00    +0.000 NA
ATOM      7  N   UNL     1       4.730   6.226  16.478  0.00  0.00    +0.000 NA
ATOM      8  N   UNL     1       4.769   5.346  17.490  0.00  0.00    +0.000 N 
ATOM      9  C   UNL     1       3.639   4.554  17.953  0.00  0.00    +0.000 C 
ATOM     10  H   UNL     1       7.276   4.129  19.145  0.00  0.00    +0.000 HD
ENDROOT
BRANCH   9  11
ATOM     11  C   UNL     1       2.479   5.484  18.361  0.00  0.00    +0.000 C 
ATOM     12  F   UNL     1       1.442   5.364  17.471  0.00  0.00    +0.000 F 
ATOM     13  F   UNL     1       1.925   5.080  19.538  0.00  0.00    +0.000 F 
BRANCH  11  14
ATOM     14  C   UNL     1       2.858   6.955  18.445  0.00  0.00    +0.000 C 
ATOM     15  F   UNL     1       2.077   7.709  17.633  0.00  0.00    +0.000 F 
ATOM     16  F   UNL     1       2.648   7.437  19.697  0.00  0.00    +0.000 F 
ENDBRANCH  11  14
ENDBRANCH   9  11
BRANCH   1  17
ATOM     17  C   UNL     1       3.101   2.715  19.736  0.00  0.00    +0.000 C 
ATOM     18  O   UNL     1       2.982   2.644  20.944  0.00  0.00    +0.000 OA
BRANCH  17  20
ATOM     19  C   UNL     1       1.026   2.070  18.904  0.00  0.00    +0.000 C 
ATOM     20  O   UNL     1       2.450   1.988  18.807  0.00  0.00    +0.000 OA
ENDBRANCH  17  20
ENDBRANCH   1  17
BRANCH   9  21
ATOM     21  O   UNL     1       3.235   3.678  16.862  0.00  0.00    +0.000 OA
ATOM     22  H   UNL     1       3.425   2.756  17.118  0.00  0.00    +0.000 HD
ENDBRANCH   9  21
TORSDOF 5
ENDMDL
