MODEL 1
REMARK VINA RESULT:      -7.7      0.000      0.000
REMARK  Name = 
REMARK  8 active torsions:
REMARK  status: ('A' for Active; 'I' for Inactive)
REMARK    1  A    between atoms: C_1  and  C_2
REMARK    2  A    between atoms: C_2  and  N_3
REMARK    3  A    between atoms: C_4  and  S_5
REMARK    4  A    between atoms: S_5  and  C_6
REMARK    5  A    between atoms: C_6  and  C_7
REMARK    6  A    between atoms: C_16  and  C_17
REMARK    7  A    between atoms: N_20  and  C_21
REMARK    8  A    between atoms: C_27  and  C_28
REMARK                            x       y       z     vdW  Elec       q    Type
REMARK                         _______ _______ _______ _____ _____    ______ ____
ROOT
ATOM      1  N   UNL     1      -0.461  11.540  19.587  0.00  0.00    +0.000 N 
ATOM      2  C   UNL     1      -0.685  12.421  20.619  0.00  0.00    +0.000 A 
ATOM      3  N   UNL     1       0.231  12.262  21.542  0.00  0.00    +0.000 NA
ATOM      4  N   UNL     1       1.078  11.276  21.116  0.00  0.00    +0.000 NA
ATOM      5  C   UNL     1       0.665  10.820  19.949  0.00  0.00    +0.000 A 
ENDROOT
BRANCH   5   6
ATOM      6  C   UNL     1       1.360   9.703  19.223  0.00  0.00    +0.000 A 
ATOM      7  C   UNL     1       1.897   9.721  17.930  0.00  0.00    +0.000 A 
ATOM      8  N   UNL     1       2.385   8.545  17.563  0.00  0.00    +0.000 NA
ATOM      9  N   UNL     1       2.215   7.726  18.642  0.00  0.00    +0.000 N 
ATOM     10  C   UNL     1       1.573   8.406  19.676  0.00  0.00    +0.000 A 
BRANCH   9  11
ATOM     11  C   UNL     1       2.677   6.370  18.511  0.00  0.00    +0.000 A 
ATOM     12  C   UNL     1       1.915   5.346  17.938  0.00  0.00    +0.000 A 
ATOM     13  C   UNL     1       2.446   4.058  17.783  0.00  0.00    +0.000 A 
ATOM     14  C   UNL     1       3.738   3.773  18.213  0.00  0.00    +0.000 A 
ATOM     15  C   UNL     1       4.491   4.766  18.826  0.00  0.00    +0.000 A 
ATOM     16  C   UNL     1       3.961   6.052  18.988  0.00  0.00    +0.000 A 
ENDBRANCH   9  11
BRANCH  10  17
ATOM     17  C   UNL     1       1.233   7.747  20.949  0.00  0.00    +0.000 C 
ATOM     18  F   UNL     1       1.881   8.211  22.038  0.00  0.00    +0.000 F 
ATOM     19  F   UNL     1      -0.089   7.856  21.241  0.00  0.00    +0.000 F 
ATOM     20  F   UNL     1       1.528   6.420  20.900  0.00  0.00    +0.000 F 
ENDBRANCH  10  17
ENDBRANCH   5   6
BRANCH   1  22
ATOM     21  C   UNL     1      -2.034  10.190  18.208  0.00  0.00    +0.000 C 
ATOM     22  C   UNL     1      -1.188  11.451  18.339  0.00  0.00    +0.000 C 
ENDBRANCH   1  22
BRANCH   2  23
ATOM     23  S   UNL     1      -1.998  13.551  20.702  0.00  0.00    +0.000 S 
BRANCH  23  24
ATOM     24  C   UNL     1      -2.183  13.757  22.505  0.00  0.00    +0.000 C 
BRANCH  24  25
ATOM     25  C   UNL     1      -3.579  13.402  22.976  0.00  0.00    +0.000 A 
ATOM     26  C   UNL     1      -3.779  12.751  24.206  0.00  0.00    +0.000 A 
ATOM     27  C   UNL     1      -5.070  12.436  24.643  0.00  0.00    +0.000 A 
ATOM     28  C   UNL     1      -6.163  12.765  23.852  0.00  0.00    +0.000 A 
ATOM     29  F   UNL     1      -7.399  12.467  24.275  0.00  0.00    +0.000 F 
ATOM     30  C   UNL     1      -5.992  13.404  22.631  0.00  0.00    +0.000 A 
ATOM     31  C   UNL     1      -4.705  13.721  22.190  0.00  0.00    +0.000 A 
ENDBRANCH  24  25
ENDBRANCH  23  24
ENDBRANCH   2  23
TORSDOF 7
ENDMDL
MODEL 2
REMARK VINA RESULT:      -7.7      2.099      2.717
REMARK  Name = 
REMARK  8 active torsions:
REMARK  status: ('A' for Active; 'I' for Inactive)
REMARK    1  A    between atoms: C_1  and  C_2
REMARK    2  A    between atoms: C_2  and  N_3
REMARK    3  A    between atoms: C_4  and  S_5
REMARK    4  A    between atoms: S_5  and  C_6
REMARK    5  A    between atoms: C_6  and  C_7
REMARK    6  A    between atoms: C_16  and  C_17
REMARK    7  A    between atoms: N_20  and  C_21
REMARK    8  A    between atoms: C_27  and  C_28
REMARK                            x       y       z     vdW  Elec       q    Type
REMARK                         _______ _______ _______ _____ _____    ______ ____
ROOT
ATOM      1  N   UNL     1      -0.447  10.934  20.083  0.00  0.00    +0.000 N 
ATOM      2  C   UNL     1      -0.390  12.241  20.507  0.00  0.00    +0.000 A 
ATOM      3  N   UNL     1       0.687  12.424  21.231  0.00  0.00    +0.000 NA
ATOM      4  N   UNL     1       1.358  11.233  21.278  0.00  0.00    +0.000 NA
ATOM      5  C   UNL     1       0.680  10.323  20.606  0.00  0.00    +0.000 A 
ENDROOT
BRANCH   5   6
ATOM      6  C   UNL     1       1.131   8.894  20.495  0.00  0.00    +0.000 A 
ATOM      7  C   UNL     1       1.018   7.880  21.454  0.00  0.00    +0.000 A 
ATOM      8  N   UNL     1       1.578   6.744  21.065  0.00  0.00    +0.000 NA
ATOM      9  N   UNL     1       2.040   6.977  19.802  0.00  0.00    +0.000 N 
ATOM     10  C   UNL     1       1.792   8.297  19.426  0.00  0.00    +0.000 A 
BRANCH   9  11
ATOM     11  C   UNL     1       2.693   5.884  19.133  0.00  0.00    +0.000 A 
ATOM     12  C   UNL     1       4.015   5.502  19.386  0.00  0.00    +0.000 A 
ATOM     13  C   UNL     1       4.574   4.388  18.745  0.00  0.00    +0.000 A 
ATOM     14  C   UNL     1       3.826   3.652  17.833  0.00  0.00    +0.000 A 
ATOM     15  C   UNL     1       2.526   4.045  17.535  0.00  0.00    +0.000 A 
ATOM     16  C   UNL     1       1.967   5.161  18.168  0.00  0.00    +0.000 A 
ENDBRANCH   9  11
BRANCH  10  17
ATOM     17  C   UNL     1       2.219   8.830  18.122  0.00  0.00    +0.000 C 
ATOM     18  F   UNL     1       1.453   8.477  17.068  0.00  0.00    +0.000 F 
ATOM     19  F   UNL     1       2.246  10.188  18.111  0.00  0.00    +0.000 F 
ATOM     20  F   UNL     1       3.470   8.398  17.810  0.00  0.00    +0.000 F 
ENDBRANCH  10  17
ENDBRANCH   5   6
BRANCH   1  22
ATOM     21  C   UNL     1      -1.101  10.525  17.715  0.00  0.00    +0.000 C 
ATOM     22  C   UNL     1      -1.424  10.344  19.193  0.00  0.00    +0.000 C 
ENDBRANCH   1  22
BRANCH   2  23
ATOM     23  S   UNL     1      -1.579  13.456  20.164  0.00  0.00    +0.000 S 
BRANCH  23  24
ATOM     24  C   UNL     1      -2.778  13.179  21.510  0.00  0.00    +0.000 C 
BRANCH  24  25
ATOM     25  C   UNL     1      -4.136  12.763  20.984  0.00  0.00    +0.000 A 
ATOM     26  C   UNL     1      -5.254  12.719  21.834  0.00  0.00    +0.000 A 
ATOM     27  C   UNL     1      -6.509  12.347  21.342  0.00  0.00    +0.000 A 
ATOM     28  C   UNL     1      -6.650  12.011  20.001  0.00  0.00    +0.000 A 
ATOM     29  F   UNL     1      -7.854  11.659  19.531  0.00  0.00    +0.000 F 
ATOM     30  C   UNL     1      -5.560  12.041  19.142  0.00  0.00    +0.000 A 
ATOM     31  C   UNL     1      -4.305  12.414  19.628  0.00  0.00    +0.000 A 
ENDBRANCH  24  25
ENDBRANCH  23  24
ENDBRANCH   2  23
TORSDOF 7
ENDMDL
MODEL 3
REMARK VINA RESULT:      -7.7      3.487     10.173
REMARK  Name = 
REMARK  8 active torsions:
REMARK  status: ('A' for Active; 'I' for Inactive)
REMARK    1  A    between atoms: C_1  and  C_2
REMARK    2  A    between atoms: C_2  and  N_3
REMARK    3  A    between atoms: C_4  and  S_5
REMARK    4  A    between atoms: S_5  and  C_6
REMARK    5  A    between atoms: C_6  and  C_7
REMARK    6  A    between atoms: C_16  and  C_17
REMARK    7  A    between atoms: N_20  and  C_21
REMARK    8  A    between atoms: C_27  and  C_28
REMARK                            x       y       z     vdW  Elec       q    Type
REMARK                         _______ _______ _______ _____ _____    ______ ____
ROOT
ATOM      1  N   UNL     1       1.908   6.257  19.603  0.00  0.00    +0.000 N 
ATOM      2  C   UNL     1       2.534   5.865  18.443  0.00  0.00    +0.000 A 
ATOM      3  N   UNL     1       2.984   6.918  17.806  0.00  0.00    +0.000 NA
ATOM      4  N   UNL     1       2.666   8.018  18.554  0.00  0.00    +0.000 NA
ATOM      5  C   UNL     1       2.003   7.638  19.630  0.00  0.00    +0.000 A 
ENDROOT
BRANCH   5   6
ATOM      6  C   UNL     1       1.476   8.613  20.644  0.00  0.00    +0.000 A 
ATOM      7  C   UNL     1       1.706   8.626  22.025  0.00  0.00    +0.000 A 
ATOM      8  N   UNL     1       1.037   9.588  22.645  0.00  0.00    +0.000 NA
ATOM      9  N   UNL     1       0.376  10.267  21.663  0.00  0.00    +0.000 N 
ATOM     10  C   UNL     1       0.615   9.683  20.419  0.00  0.00    +0.000 A 
BRANCH   9  11
ATOM     11  C   UNL     1      -0.430  11.385  22.071  0.00  0.00    +0.000 A 
ATOM     12  C   UNL     1      -0.151  12.710  21.718  0.00  0.00    +0.000 A 
ATOM     13  C   UNL     1      -1.012  13.749  22.096  0.00  0.00    +0.000 A 
ATOM     14  C   UNL     1      -2.152  13.481  22.845  0.00  0.00    +0.000 A 
ATOM     15  C   UNL     1      -2.420  12.177  23.245  0.00  0.00    +0.000 A 
ATOM     16  C   UNL     1      -1.559  11.137  22.874  0.00  0.00    +0.000 A 
ENDBRANCH   9  11
BRANCH  10  17
ATOM     17  C   UNL     1      -0.005  10.194  19.186  0.00  0.00    +0.000 C 
ATOM     18  F   UNL     1      -1.333  10.424  19.251  0.00  0.00    +0.000 F 
ATOM     19  F   UNL     1       0.546  11.371  18.789  0.00  0.00    +0.000 F 
ATOM     20  F   UNL     1       0.151   9.310  18.164  0.00  0.00    +0.000 F 
ENDBRANCH  10  17
ENDBRANCH   5   6
BRANCH   1  22
ATOM     21  C   UNL     1       2.376   4.478  21.281  0.00  0.00    +0.000 C 
ATOM     22  C   UNL     1       1.353   5.402  20.631  0.00  0.00    +0.000 C 
ENDBRANCH   1  22
BRANCH   2  23
ATOM     23  S   UNL     1       2.680   4.228  17.890  0.00  0.00    +0.000 S 
BRANCH  23  24
ATOM     24  C   UNL     1       4.444   3.894  18.213  0.00  0.00    +0.000 C 
BRANCH  24  25
ATOM     25  C   UNL     1       5.314   4.240  17.022  0.00  0.00    +0.000 A 
ATOM     26  C   UNL     1       6.670   4.569  17.194  0.00  0.00    +0.000 A 
ATOM     27  C   UNL     1       7.473   4.876  16.091  0.00  0.00    +0.000 A 
ATOM     28  C   UNL     1       6.924   4.861  14.815  0.00  0.00    +0.000 A 
ATOM     29  F   UNL     1       7.698   5.150  13.760  0.00  0.00    +0.000 F 
ATOM     30  C   UNL     1       5.587   4.543  14.619  0.00  0.00    +0.000 A 
ATOM     31  C   UNL     1       4.781   4.235  15.717  0.00  0.00    +0.000 A 
ENDBRANCH  24  25
ENDBRANCH  23  24
ENDBRANCH   2  23
TORSDOF 7
ENDMDL
MODEL 4
REMARK VINA RESULT:      -7.7      3.507     10.191
REMARK  Name = 
REMARK  8 active torsions:
REMARK  status: ('A' for Active; 'I' for Inactive)
REMARK    1  A    between atoms: C_1  and  C_2
REMARK    2  A    between atoms: C_2  and  N_3
REMARK    3  A    between atoms: C_4  and  S_5
REMARK    4  A    between atoms: S_5  and  C_6
REMARK    5  A    between atoms: C_6  and  C_7
REMARK    6  A    between atoms: C_16  and  C_17
REMARK    7  A    between atoms: N_20  and  C_21
REMARK    8  A    between atoms: C_27  and  C_28
REMARK                            x       y       z     vdW  Elec       q    Type
REMARK                         _______ _______ _______ _____ _____    ______ ____
ROOT
ATOM      1  N   UNL     1       1.931   6.170  19.514  0.00  0.00    +0.000 N 
ATOM      2  C   UNL     1       2.574   5.766  18.367  0.00  0.00    +0.000 A 
ATOM      3  N   UNL     1       3.075   6.808  17.752  0.00  0.00    +0.000 NA
ATOM      4  N   UNL     1       2.776   7.913  18.502  0.00  0.00    +0.000 NA
ATOM      5  C   UNL     1       2.073   7.547  19.557  0.00  0.00    +0.000 A 
ENDROOT
BRANCH   5   6
ATOM      6  C   UNL     1       1.553   8.531  20.566  0.00  0.00    +0.000 A 
ATOM      7  C   UNL     1       1.793   8.556  21.945  0.00  0.00    +0.000 A 
ATOM      8  N   UNL     1       1.128   9.523  22.561  0.00  0.00    +0.000 NA
ATOM      9  N   UNL     1       0.460  10.193  21.578  0.00  0.00    +0.000 N 
ATOM     10  C   UNL     1       0.690   9.598  20.337  0.00  0.00    +0.000 A 
BRANCH   9  11
ATOM     11  C   UNL     1      -0.344  11.315  21.982  0.00  0.00    +0.000 A 
ATOM     12  C   UNL     1      -1.505  11.196  22.754  0.00  0.00    +0.000 A 
ATOM     13  C   UNL     1      -2.210  12.334  23.167  0.00  0.00    +0.000 A 
ATOM     14  C   UNL     1      -1.775  13.603  22.803  0.00  0.00    +0.000 A 
ATOM     15  C   UNL     1      -0.650  13.737  21.998  0.00  0.00    +0.000 A 
ATOM     16  C   UNL     1       0.053  12.602  21.577  0.00  0.00    +0.000 A 
ENDBRANCH   9  11
BRANCH  10  17
ATOM     17  C   UNL     1       0.061  10.099  19.104  0.00  0.00    +0.000 C 
ATOM     18  F   UNL     1       0.442  11.334  18.714  0.00  0.00    +0.000 F 
ATOM     19  F   UNL     1       0.310   9.291  18.041  0.00  0.00    +0.000 F 
ATOM     20  F   UNL     1      -1.290  10.174  19.247  0.00  0.00    +0.000 F 
ENDBRANCH  10  17
ENDBRANCH   5   6
BRANCH   1  22
ATOM     21  C   UNL     1       2.315   4.460  21.283  0.00  0.00    +0.000 C 
ATOM     22  C   UNL     1       1.321   5.326  20.520  0.00  0.00    +0.000 C 
ENDBRANCH   1  22
BRANCH   2  23
ATOM     23  S   UNL     1       2.678   4.130  17.803  0.00  0.00    +0.000 S 
BRANCH  23  24
ATOM     24  C   UNL     1       4.433   3.748  18.125  0.00  0.00    +0.000 C 
BRANCH  24  25
ATOM     25  C   UNL     1       5.321   4.140  16.960  0.00  0.00    +0.000 A 
ATOM     26  C   UNL     1       4.839   4.090  15.641  0.00  0.00    +0.000 A 
ATOM     27  C   UNL     1       5.657   4.463  14.570  0.00  0.00    +0.000 A 
ATOM     28  C   UNL     1       6.959   4.883  14.813  0.00  0.00    +0.000 A 
ATOM     29  F   UNL     1       7.738   5.245  13.785  0.00  0.00    +0.000 F 
ATOM     30  C   UNL     1       7.460   4.936  16.106  0.00  0.00    +0.000 A 
ATOM     31  C   UNL     1       6.647   4.565  17.180  0.00  0.00    +0.000 A 
ENDBRANCH  24  25
ENDBRANCH  23  24
ENDBRANCH   2  23
TORSDOF 7
ENDMDL
MODEL 5
REMARK VINA RESULT:      -7.6      3.230      9.670
REMARK  Name = 
REMARK  8 active torsions:
REMARK  status: ('A' for Active; 'I' for Inactive)
REMARK    1  A    between atoms: C_1  and  C_2
REMARK    2  A    between atoms: C_2  and  N_3
REMARK    3  A    between atoms: C_4  and  S_5
REMARK    4  A    between atoms: S_5  and  C_6
REMARK    5  A    between atoms: C_6  and  C_7
REMARK    6  A    between atoms: C_16  and  C_17
REMARK    7  A    between atoms: N_20  and  C_21
REMARK    8  A    between atoms: C_27  and  C_28
REMARK                            x       y       z     vdW  Elec       q    Type
REMARK                         _______ _______ _______ _____ _____    ______ ____
ROOT
ATOM      1  N   UNL     1       2.132   6.449  19.634  0.00  0.00    +0.000 N 
ATOM      2  C   UNL     1       2.663   6.097  18.415  0.00  0.00    +0.000 A 
ATOM      3  N   UNL     1       2.822   7.168  17.677  0.00  0.00    +0.000 NA
ATOM      4  N   UNL     1       2.405   8.242  18.415  0.00  0.00    +0.000 NA
ATOM      5  C   UNL     1       1.971   7.823  19.588  0.00  0.00    +0.000 A 
ENDROOT
BRANCH   5   6
ATOM      6  C   UNL     1       1.408   8.755  20.624  0.00  0.00    +0.000 A 
ATOM      7  C   UNL     1       1.627   8.736  22.006  0.00  0.00    +0.000 A 
ATOM      8  N   UNL     1       0.926   9.661  22.647  0.00  0.00    +0.000 NA
ATOM      9  N   UNL     1       0.254  10.348  21.678  0.00  0.00    +0.000 N 
ATOM     10  C   UNL     1       0.519   9.805  20.421  0.00  0.00    +0.000 A 
BRANCH   9  11
ATOM     11  C   UNL     1      -0.588  11.431  22.110  0.00  0.00    +0.000 A 
ATOM     12  C   UNL     1      -0.389  12.763  21.730  0.00  0.00    +0.000 A 
ATOM     13  C   UNL     1      -1.281  13.764  22.135  0.00  0.00    +0.000 A 
ATOM     14  C   UNL     1      -2.374  13.451  22.937  0.00  0.00    +0.000 A 
ATOM     15  C   UNL     1      -2.560  12.141  23.362  0.00  0.00    +0.000 A 
ATOM     16  C   UNL     1      -1.666  11.140  22.964  0.00  0.00    +0.000 A 
ENDBRANCH   9  11
BRANCH  10  17
ATOM     17  C   UNL     1      -0.106  10.333  19.197  0.00  0.00    +0.000 C 
ATOM     18  F   UNL     1      -1.416  10.638  19.295  0.00  0.00    +0.000 F 
ATOM     19  F   UNL     1       0.500  11.469  18.765  0.00  0.00    +0.000 F 
ATOM     20  F   UNL     1      -0.029   9.425  18.186  0.00  0.00    +0.000 F 
ENDBRANCH  10  17
ENDBRANCH   5   6
BRANCH   1  22
ATOM     21  C   UNL     1       0.918   4.440  20.467  0.00  0.00    +0.000 C 
ATOM     22  C   UNL     1       1.885   5.580  20.765  0.00  0.00    +0.000 C 
ENDBRANCH   1  22
BRANCH   2  23
ATOM     23  S   UNL     1       3.038   4.478  17.917  0.00  0.00    +0.000 S 
BRANCH  23  24
ATOM     24  C   UNL     1       4.377   4.772  16.713  0.00  0.00    +0.000 C 
BRANCH  24  25
ATOM     25  C   UNL     1       5.568   5.462  17.347  0.00  0.00    +0.000 A 
ATOM     26  C   UNL     1       6.124   4.981  18.545  0.00  0.00    +0.000 A 
ATOM     27  C   UNL     1       7.231   5.613  19.120  0.00  0.00    +0.000 A 
ATOM     28  C   UNL     1       7.782   6.730  18.505  0.00  0.00    +0.000 A 
ATOM     29  F   UNL     1       8.845   7.330  19.055  0.00  0.00    +0.000 F 
ATOM     30  C   UNL     1       7.248   7.228  17.323  0.00  0.00    +0.000 A 
ATOM     31  C   UNL     1       6.144   6.599  16.744  0.00  0.00    +0.000 A 
ENDBRANCH  24  25
ENDBRANCH  23  24
ENDBRANCH   2  23
TORSDOF 7
ENDMDL
MODEL 6
REMARK VINA RESULT:      -7.6      3.553     10.206
REMARK  Name = 
REMARK  8 active torsions:
REMARK  status: ('A' for Active; 'I' for Inactive)
REMARK    1  A    between atoms: C_1  and  C_2
REMARK    2  A    between atoms: C_2  and  N_3
REMARK    3  A    between atoms: C_4  and  S_5
REMARK    4  A    between atoms: S_5  and  C_6
REMARK    5  A    between atoms: C_6  and  C_7
REMARK    6  A    between atoms: C_16  and  C_17
REMARK    7  A    between atoms: N_20  and  C_21
REMARK    8  A    between atoms: C_27  and  C_28
REMARK                            x       y       z     vdW  Elec       q    Type
REMARK                         _______ _______ _______ _____ _____    ______ ____
ROOT
ATOM      1  N   UNL     1       2.134   6.339  19.704  0.00  0.00    +0.000 N 
ATOM      2  C   UNL     1       2.692   5.970  18.502  0.00  0.00    +0.000 A 
ATOM      3  N   UNL     1       2.924   7.037  17.778  0.00  0.00    +0.000 NA
ATOM      4  N   UNL     1       2.530   8.124  18.509  0.00  0.00    +0.000 NA
ATOM      5  C   UNL     1       2.036   7.719  19.663  0.00  0.00    +0.000 A 
ENDROOT
BRANCH   5   6
ATOM      6  C   UNL     1       1.479   8.670  20.685  0.00  0.00    +0.000 A 
ATOM      7  C   UNL     1       1.700   8.671  22.067  0.00  0.00    +0.000 A 
ATOM      8  N   UNL     1       1.004   9.609  22.694  0.00  0.00    +0.000 NA
ATOM      9  N   UNL     1       0.334  10.284  21.715  0.00  0.00    +0.000 N 
ATOM     10  C   UNL     1       0.595   9.721  20.466  0.00  0.00    +0.000 A 
BRANCH   9  11
ATOM     11  C   UNL     1      -0.502  11.378  22.132  0.00  0.00    +0.000 A 
ATOM     12  C   UNL     1      -1.657  11.217  22.904  0.00  0.00    +0.000 A 
ATOM     13  C   UNL     1      -2.395  12.330  23.330  0.00  0.00    +0.000 A 
ATOM     14  C   UNL     1      -1.998  13.615  22.976  0.00  0.00    +0.000 A 
ATOM     15  C   UNL     1      -0.879  13.790  22.170  0.00  0.00    +0.000 A 
ATOM     16  C   UNL     1      -0.144  12.680  21.738  0.00  0.00    +0.000 A 
ENDBRANCH   9  11
BRANCH  10  17
ATOM     17  C   UNL     1      -0.029  10.232  19.235  0.00  0.00    +0.000 C 
ATOM     18  F   UNL     1       0.019   9.406  18.169  0.00  0.00    +0.000 F 
ATOM     19  F   UNL     1      -1.345  10.519  19.412  0.00  0.00    +0.000 F 
ATOM     20  F   UNL     1       0.581  11.376  18.823  0.00  0.00    +0.000 F 
ENDBRANCH  10  17
ENDBRANCH   5   6
BRANCH   1  22
ATOM     21  C   UNL     1       0.937   4.283  20.442  0.00  0.00    +0.000 C 
ATOM     22  C   UNL     1       1.808   5.476  20.820  0.00  0.00    +0.000 C 
ENDBRANCH   1  22
BRANCH   2  23
ATOM     23  S   UNL     1       3.011   4.339  18.006  0.00  0.00    +0.000 S 
BRANCH  23  24
ATOM     24  C   UNL     1       4.823   4.253  18.195  0.00  0.00    +0.000 C 
BRANCH  24  25
ATOM     25  C   UNL     1       5.541   4.456  16.876  0.00  0.00    +0.000 A 
ATOM     26  C   UNL     1       6.872   4.908  16.845  0.00  0.00    +0.000 A 
ATOM     27  C   UNL     1       7.535   5.082  15.626  0.00  0.00    +0.000 A 
ATOM     28  C   UNL     1       6.871   4.811  14.436  0.00  0.00    +0.000 A 
ATOM     29  F   UNL     1       7.511   4.974  13.271  0.00  0.00    +0.000 F 
ATOM     30  C   UNL     1       5.555   4.368  14.441  0.00  0.00    +0.000 A 
ATOM     31  C   UNL     1       4.888   4.192  15.655  0.00  0.00    +0.000 A 
ENDBRANCH  24  25
ENDBRANCH  23  24
ENDBRANCH   2  23
TORSDOF 7
ENDMDL
MODEL 7
REMARK VINA RESULT:      -7.6      1.597      1.974
REMARK  Name = 
REMARK  8 active torsions:
REMARK  status: ('A' for Active; 'I' for Inactive)
REMARK    1  A    between atoms: C_1  and  C_2
REMARK    2  A    between atoms: C_2  and  N_3
REMARK    3  A    between atoms: C_4  and  S_5
REMARK    4  A    between atoms: S_5  and  C_6
REMARK    5  A    between atoms: C_6  and  C_7
REMARK    6  A    between atoms: C_16  and  C_17
REMARK    7  A    between atoms: N_20  and  C_21
REMARK    8  A    between atoms: C_27  and  C_28
REMARK                            x       y       z     vdW  Elec       q    Type
REMARK                         _______ _______ _______ _____ _____    ______ ____
ROOT
ATOM      1  N   UNL     1      -0.502  10.841  20.181  0.00  0.00    +0.000 N 
ATOM      2  C   UNL     1      -0.465  12.138  20.639  0.00  0.00    +0.000 A 
ATOM      3  N   UNL     1       0.612  12.318  21.364  0.00  0.00    +0.000 NA
ATOM      4  N   UNL     1       1.302  11.137  21.377  0.00  0.00    +0.000 NA
ATOM      5  C   UNL     1       0.636  10.234  20.684  0.00  0.00    +0.000 A 
ENDROOT
BRANCH   5   6
ATOM      6  C   UNL     1       1.109   8.816  20.534  0.00  0.00    +0.000 A 
ATOM      7  C   UNL     1       1.019   7.777  21.468  0.00  0.00    +0.000 A 
ATOM      8  N   UNL     1       1.595   6.660  21.046  0.00  0.00    +0.000 NA
ATOM      9  N   UNL     1       2.044   6.932  19.787  0.00  0.00    +0.000 N 
ATOM     10  C   UNL     1       1.773   8.258  19.446  0.00  0.00    +0.000 A 
BRANCH   9  11
ATOM     11  C   UNL     1       2.710   5.867  19.086  0.00  0.00    +0.000 A 
ATOM     12  C   UNL     1       2.099   5.095  18.093  0.00  0.00    +0.000 A 
ATOM     13  C   UNL     1       2.821   4.111  17.404  0.00  0.00    +0.000 A 
ATOM     14  C   UNL     1       4.158   3.877  17.708  0.00  0.00    +0.000 A 
ATOM     15  C   UNL     1       4.767   4.603  18.724  0.00  0.00    +0.000 A 
ATOM     16  C   UNL     1       4.046   5.581  19.419  0.00  0.00    +0.000 A 
ENDBRANCH   9  11
BRANCH  10  17
ATOM     17  C   UNL     1       2.182   8.830  18.153  0.00  0.00    +0.000 C 
ATOM     18  F   UNL     1       1.424   8.478  17.093  0.00  0.00    +0.000 F 
ATOM     19  F   UNL     1       2.172  10.188  18.171  0.00  0.00    +0.000 F 
ATOM     20  F   UNL     1       3.444   8.439  17.830  0.00  0.00    +0.000 F 
ENDBRANCH  10  17
ENDBRANCH   5   6
BRANCH   1  22
ATOM     21  C   UNL     1      -1.135  10.444  17.805  0.00  0.00    +0.000 C 
ATOM     22  C   UNL     1      -1.474  10.259  19.279  0.00  0.00    +0.000 C 
ENDBRANCH   1  22
BRANCH   2  23
ATOM     23  S   UNL     1      -1.674  13.342  20.331  0.00  0.00    +0.000 S 
BRANCH  23  24
ATOM     24  C   UNL     1      -1.876  14.081  21.987  0.00  0.00    +0.000 C 
BRANCH  24  25
ATOM     25  C   UNL     1      -3.171  13.651  22.645  0.00  0.00    +0.000 A 
ATOM     26  C   UNL     1      -3.159  12.911  23.840  0.00  0.00    +0.000 A 
ATOM     27  C   UNL     1      -4.356  12.526  24.452  0.00  0.00    +0.000 A 
ATOM     28  C   UNL     1      -5.568  12.875  23.870  0.00  0.00    +0.000 A 
ATOM     29  F   UNL     1      -6.714  12.509  24.461  0.00  0.00    +0.000 F 
ATOM     30  C   UNL     1      -5.608  13.601  22.687  0.00  0.00    +0.000 A 
ATOM     31  C   UNL     1      -4.415  13.988  22.073  0.00  0.00    +0.000 A 
ENDBRANCH  24  25
ENDBRANCH  23  24
ENDBRANCH   2  23
TORSDOF 7
ENDMDL
MODEL 8
REMARK VINA RESULT:      -7.6      0.532      1.340
REMARK  Name = 
REMARK  8 active torsions:
REMARK  status: ('A' for Active; 'I' for Inactive)
REMARK    1  A    between atoms: C_1  and  C_2
REMARK    2  A    between atoms: C_2  and  N_3
REMARK    3  A    between atoms: C_4  and  S_5
REMARK    4  A    between atoms: S_5  and  C_6
REMARK    5  A    between atoms: C_6  and  C_7
REMARK    6  A    between atoms: C_16  and  C_17
REMARK    7  A    between atoms: N_20  and  C_21
REMARK    8  A    between atoms: C_27  and  C_28
REMARK                            x       y       z     vdW  Elec       q    Type
REMARK                         _______ _______ _______ _____ _____    ______ ____
ROOT
ATOM      1  N   UNL     1      -0.539  11.411  19.973  0.00  0.00    +0.000 N 
ATOM      2  C   UNL     1      -0.596  12.395  20.932  0.00  0.00    +0.000 A 
ATOM      3  N   UNL     1       0.561  12.485  21.541  0.00  0.00    +0.000 NA
ATOM      4  N   UNL     1       1.397  11.562  20.975  0.00  0.00    +0.000 NA
ATOM      5  C   UNL     1       0.745  10.896  20.042  0.00  0.00    +0.000 A 
ENDROOT
BRANCH   5   6
ATOM      6  C   UNL     1       1.372   9.783  19.252  0.00  0.00    +0.000 A 
ATOM      7  C   UNL     1       1.832   9.819  17.931  0.00  0.00    +0.000 A 
ATOM      8  N   UNL     1       2.273   8.642  17.510  0.00  0.00    +0.000 NA
ATOM      9  N   UNL     1       2.151   7.802  18.579  0.00  0.00    +0.000 N 
ATOM     10  C   UNL     1       1.586   8.471  19.665  0.00  0.00    +0.000 A 
BRANCH   9  11
ATOM     11  C   UNL     1       2.577   6.441  18.393  0.00  0.00    +0.000 A 
ATOM     12  C   UNL     1       3.899   6.015  18.561  0.00  0.00    +0.000 A 
ATOM     13  C   UNL     1       4.238   4.662  18.424  0.00  0.00    +0.000 A 
ATOM     14  C   UNL     1       3.265   3.721  18.103  0.00  0.00    +0.000 A 
ATOM     15  C   UNL     1       1.956   4.135  17.887  0.00  0.00    +0.000 A 
ATOM     16  C   UNL     1       1.615   5.486  18.016  0.00  0.00    +0.000 A 
ENDBRANCH   9  11
BRANCH  10  17
ATOM     17  C   UNL     1       1.309   7.792  20.941  0.00  0.00    +0.000 C 
ATOM     18  F   UNL     1       1.745   8.428  22.049  0.00  0.00    +0.000 F 
ATOM     19  F   UNL     1      -0.021   7.596  21.136  0.00  0.00    +0.000 F 
ATOM     20  F   UNL     1       1.906   6.570  20.978  0.00  0.00    +0.000 F 
ENDBRANCH  10  17
ENDBRANCH   5   6
BRANCH   1  22
ATOM     21  C   UNL     1      -1.601  11.940  17.784  0.00  0.00    +0.000 C 
ATOM     22  C   UNL     1      -1.571  11.053  19.023  0.00  0.00    +0.000 C 
ENDBRANCH   1  22
BRANCH   2  23
ATOM     23  S   UNL     1      -1.994  13.352  21.301  0.00  0.00    +0.000 S 
BRANCH  23  24
ATOM     24  C   UNL     1      -2.354  12.821  23.009  0.00  0.00    +0.000 C 
BRANCH  24  25
ATOM     25  C   UNL     1      -3.844  12.765  23.283  0.00  0.00    +0.000 A 
ATOM     26  C   UNL     1      -4.772  13.057  22.269  0.00  0.00    +0.000 A 
ATOM     27  C   UNL     1      -6.146  12.992  22.522  0.00  0.00    +0.000 A 
ATOM     28  C   UNL     1      -6.596  12.641  23.788  0.00  0.00    +0.000 A 
ATOM     29  F   UNL     1      -7.913  12.574  24.026  0.00  0.00    +0.000 F 
ATOM     30  C   UNL     1      -5.700  12.352  24.808  0.00  0.00    +0.000 A 
ATOM     31  C   UNL     1      -4.326  12.414  24.560  0.00  0.00    +0.000 A 
ENDBRANCH  24  25
ENDBRANCH  23  24
ENDBRANCH   2  23
TORSDOF 7
ENDMDL
MODEL 9
REMARK VINA RESULT:      -7.6      1.603      2.316
REMARK  Name = 
REMARK  8 active torsions:
REMARK  status: ('A' for Active; 'I' for Inactive)
REMARK    1  A    between atoms: C_1  and  C_2
REMARK    2  A    between atoms: C_2  and  N_3
REMARK    3  A    between atoms: C_4  and  S_5
REMARK    4  A    between atoms: S_5  and  C_6
REMARK    5  A    between atoms: C_6  and  C_7
REMARK    6  A    between atoms: C_16  and  C_17
REMARK    7  A    between atoms: N_20  and  C_21
REMARK    8  A    between atoms: C_27  and  C_28
REMARK                            x       y       z     vdW  Elec       q    Type
REMARK                         _______ _______ _______ _____ _____    ______ ____
ROOT
ATOM      1  N   UNL     1      -0.512  10.819  20.127  0.00  0.00    +0.000 N 
ATOM      2  C   UNL     1      -0.488  12.118  20.579  0.00  0.00    +0.000 A 
ATOM      3  N   UNL     1       0.579  12.309  21.315  0.00  0.00    +0.000 NA
ATOM      4  N   UNL     1       1.277  11.133  21.342  0.00  0.00    +0.000 NA
ATOM      5  C   UNL     1       0.625  10.222  20.646  0.00  0.00    +0.000 A 
ENDROOT
BRANCH   5   6
ATOM      6  C   UNL     1       1.108   8.806  20.509  0.00  0.00    +0.000 A 
ATOM      7  C   UNL     1       1.009   7.770  21.444  0.00  0.00    +0.000 A 
ATOM      8  N   UNL     1       1.598   6.655  21.036  0.00  0.00    +0.000 NA
ATOM      9  N   UNL     1       2.067   6.926  19.783  0.00  0.00    +0.000 N 
ATOM     10  C   UNL     1       1.794   8.248  19.434  0.00  0.00    +0.000 A 
BRANCH   9  11
ATOM     11  C   UNL     1       2.751   5.862  19.098  0.00  0.00    +0.000 A 
ATOM     12  C   UNL     1       4.074   5.495  19.366  0.00  0.00    +0.000 A 
ATOM     13  C   UNL     1       4.664   4.409  18.706  0.00  0.00    +0.000 A 
ATOM     14  C   UNL     1       3.946   3.686  17.760  0.00  0.00    +0.000 A 
ATOM     15  C   UNL     1       2.646   4.066  17.448  0.00  0.00    +0.000 A 
ATOM     16  C   UNL     1       2.056   5.155  18.100  0.00  0.00    +0.000 A 
ENDBRANCH   9  11
BRANCH  10  17
ATOM     17  C   UNL     1       2.221   8.819  18.146  0.00  0.00    +0.000 C 
ATOM     18  F   UNL     1       1.487   8.456  17.074  0.00  0.00    +0.000 F 
ATOM     19  F   UNL     1       2.199  10.177  18.158  0.00  0.00    +0.000 F 
ATOM     20  F   UNL     1       3.493   8.439  17.848  0.00  0.00    +0.000 F 
ENDBRANCH  10  17
ENDBRANCH   5   6
BRANCH   1  22
ATOM     21  C   UNL     1      -1.111  10.400  17.746  0.00  0.00    +0.000 C 
ATOM     22  C   UNL     1      -1.469  10.226  19.217  0.00  0.00    +0.000 C 
ENDBRANCH   1  22
BRANCH   2  23
ATOM     23  S   UNL     1      -1.701  13.313  20.251  0.00  0.00    +0.000 S 
BRANCH  23  24
ATOM     24  C   UNL     1      -1.935  14.052  21.903  0.00  0.00    +0.000 C 
BRANCH  24  25
ATOM     25  C   UNL     1      -3.220  13.585  22.556  0.00  0.00    +0.000 A 
ATOM     26  C   UNL     1      -4.429  13.579  21.840  0.00  0.00    +0.000 A 
ATOM     27  C   UNL     1      -5.610  13.135  22.443  0.00  0.00    +0.000 A 
ATOM     28  C   UNL     1      -5.589  12.701  23.762  0.00  0.00    +0.000 A 
ATOM     29  F   UNL     1      -6.721  12.272  24.335  0.00  0.00    +0.000 F 
ATOM     30  C   UNL     1      -4.408  12.702  24.493  0.00  0.00    +0.000 A 
ATOM     31  C   UNL     1      -3.225  13.143  23.895  0.00  0.00    +0.000 A 
ENDBRANCH  24  25
ENDBRANCH  23  24
ENDBRANCH   2  23
TORSDOF 7
ENDMDL
