MODEL 1
REMARK VINA RESULT:      -8.3      0.000      0.000
REMARK  Name = 
REMARK  8 active torsions:
REMARK  status: ('A' for Active; 'I' for Inactive)
REMARK    1  A    between atoms: C_1  and  O_2
REMARK    2  A    between atoms: O_2  and  C_3
REMARK    3  A    between atoms: C_3  and  C_5
REMARK    4  A    between atoms: C_10  and  N_11
REMARK    5  A    between atoms: C_12  and  C_14
REMARK    6  A    between atoms: N_22  and  S_23
REMARK    7  A    between atoms: S_23  and  C_26
REMARK    8  A    between atoms: C_29  and  C_30
REMARK                            x       y       z     vdW  Elec       q    Type
REMARK                         _______ _______ _______ _____ _____    ______ ____
ROOT
ATOM      1  C   UNL     1       1.736   8.050  20.396  0.00  0.00    +0.000 A 
ATOM      2  C   UNL     1       1.359   8.978  19.402  0.00  0.00    +0.000 A 
ATOM      3  C   UNL     1       0.722  10.200  19.756  0.00  0.00    +0.000 A 
ATOM      4  C   UNL     1       0.441  10.446  21.100  0.00  0.00    +0.000 A 
ATOM      5  C   UNL     1       0.983   9.590  22.076  0.00  0.00    +0.000 A 
ATOM      6  C   UNL     1       1.639   8.412  21.743  0.00  0.00    +0.000 A 
ATOM      7  C   UNL     1       0.232   9.746  23.370  0.00  0.00    +0.000 C 
ATOM      8  C   UNL     1      -1.137   9.925  22.723  0.00  0.00    +0.000 C 
ATOM      9  N   UNL     1      -0.855  10.898  21.612  0.00  0.00    +0.000 N 
ENDROOT
BRANCH   1  11
ATOM     10  N   UNL     1       2.492   6.188  18.951  0.00  0.00    +0.000 N 
ATOM     11  C   UNL     1       1.906   6.580  20.141  0.00  0.00    +0.000 C 
ATOM     12  O   UNL     1       1.522   5.820  21.028  0.00  0.00    +0.000 OA
ATOM     13  H   UNL     1       3.002   6.889  18.416  0.00  0.00    +0.000 HD
BRANCH  10  19
ATOM     14  C   UNL     1       3.952   4.276  18.360  0.00  0.00    +0.000 A 
ATOM     15  C   UNL     1       4.084   2.918  17.984  0.00  0.00    +0.000 A 
ATOM     16  C   UNL     1       2.966   2.122  17.752  0.00  0.00    +0.000 A 
ATOM     17  C   UNL     1       1.701   2.673  17.873  0.00  0.00    +0.000 A 
ATOM     18  C   UNL     1       1.554   4.012  18.254  0.00  0.00    +0.000 A 
ATOM     19  C   UNL     1       2.663   4.832  18.528  0.00  0.00    +0.000 A 
BRANCH  14  20
ATOM     20  C   UNL     1       5.186   5.088  18.589  0.00  0.00    +0.000 C 
ATOM     21  O   UNL     1       6.094   4.756  19.336  0.00  0.00    +0.000 OA
BRANCH  20  23
ATOM     22  C   UNL     1       5.499   6.135  16.491  0.00  0.00    +0.000 C 
ATOM     23  O   UNL     1       5.130   6.236  17.866  0.00  0.00    +0.000 OA
ENDBRANCH  20  23
ENDBRANCH  14  20
ENDBRANCH  10  19
ENDBRANCH   1  11
BRANCH   9  24
ATOM     24  S   UNL     1      -1.205  12.525  22.021  0.00  0.00    +0.000 S 
ATOM     25  O   UNL     1      -0.440  12.868  23.213  0.00  0.00    +0.000 OA
ATOM     26  O   UNL     1      -1.068  13.316  20.819  0.00  0.00    +0.000 OA
BRANCH  24  27
ATOM     27  C   UNL     1      -2.927  12.608  22.495  0.00  0.00    +0.000 A 
ATOM     28  C   UNL     1      -3.188  12.598  23.859  0.00  0.00    +0.000 A 
ATOM     29  C   UNL     1      -4.499  12.684  24.339  0.00  0.00    +0.000 A 
ATOM     30  C   UNL     1      -5.568  12.810  23.445  0.00  0.00    +0.000 A 
ATOM     31  C   UNL     1      -6.965  12.874  24.002  0.00  0.00    +0.000 C 
ATOM     32  C   UNL     1      -5.299  12.875  22.071  0.00  0.00    +0.000 A 
ATOM     33  C   UNL     1      -3.977  12.786  21.582  0.00  0.00    +0.000 A 
ENDBRANCH  24  27
ENDBRANCH   9  24
TORSDOF 6
ENDMDL
MODEL 2
REMARK VINA RESULT:      -8.2      1.865      3.203
REMARK  Name = 
REMARK  8 active torsions:
REMARK  status: ('A' for Active; 'I' for Inactive)
REMARK    1  A    between atoms: C_1  and  O_2
REMARK    2  A    between atoms: O_2  and  C_3
REMARK    3  A    between atoms: C_3  and  C_5
REMARK    4  A    between atoms: C_10  and  N_11
REMARK    5  A    between atoms: C_12  and  C_14
REMARK    6  A    between atoms: N_22  and  S_23
REMARK    7  A    between atoms: S_23  and  C_26
REMARK    8  A    between atoms: C_29  and  C_30
REMARK                            x       y       z     vdW  Elec       q    Type
REMARK                         _______ _______ _______ _____ _____    ______ ____
ROOT
ATOM      1  C   UNL     1       1.041   9.249  19.135  0.00  0.00    +0.000 A 
ATOM      2  C   UNL     1       0.995   9.151  20.542  0.00  0.00    +0.000 A 
ATOM      3  C   UNL     1       0.493  10.227  21.327  0.00  0.00    +0.000 A 
ATOM      4  C   UNL     1       0.085  11.396  20.682  0.00  0.00    +0.000 A 
ATOM      5  C   UNL     1      -0.021  11.396  19.280  0.00  0.00    +0.000 A 
ATOM      6  C   UNL     1       0.431  10.338  18.504  0.00  0.00    +0.000 A 
ATOM      7  C   UNL     1      -0.037  12.811  18.768  0.00  0.00    +0.000 C 
ATOM      8  C   UNL     1       0.971  13.344  19.779  0.00  0.00    +0.000 C 
ATOM      9  N   UNL     1       0.490  12.748  21.073  0.00  0.00    +0.000 N 
ENDROOT
BRANCH   1  11
ATOM     10  N   UNL     1       2.411   7.227  18.732  0.00  0.00    +0.000 N 
ATOM     11  C   UNL     1       1.989   8.463  18.276  0.00  0.00    +0.000 C 
ATOM     12  O   UNL     1       2.316   8.974  17.207  0.00  0.00    +0.000 OA
ATOM     13  H   UNL     1       1.885   6.793  19.489  0.00  0.00    +0.000 HD
BRANCH  10  19
ATOM     14  C   UNL     1       3.056   5.045  17.754  0.00  0.00    +0.000 A 
ATOM     15  C   UNL     1       4.003   4.257  17.058  0.00  0.00    +0.000 A 
ATOM     16  C   UNL     1       5.245   4.772  16.698  0.00  0.00    +0.000 A 
ATOM     17  C   UNL     1       5.566   6.075  17.043  0.00  0.00    +0.000 A 
ATOM     18  C   UNL     1       4.636   6.870  17.722  0.00  0.00    +0.000 A 
ATOM     19  C   UNL     1       3.361   6.388  18.070  0.00  0.00    +0.000 A 
BRANCH  14  20
ATOM     20  C   UNL     1       1.740   4.438  18.124  0.00  0.00    +0.000 C 
ATOM     21  O   UNL     1       0.936   4.005  17.313  0.00  0.00    +0.000 OA
BRANCH  20  23
ATOM     22  C   UNL     1       1.594   3.199  20.133  0.00  0.00    +0.000 C 
ATOM     23  O   UNL     1       1.577   4.464  19.471  0.00  0.00    +0.000 OA
ENDBRANCH  20  23
ENDBRANCH  14  20
ENDBRANCH  10  19
ENDBRANCH   1  11
BRANCH   9  24
ATOM     24  S   UNL     1      -0.493  13.810  21.993  0.00  0.00    +0.000 S 
ATOM     25  O   UNL     1      -0.245  13.549  23.404  0.00  0.00    +0.000 OA
ATOM     26  O   UNL     1      -0.315  15.141  21.459  0.00  0.00    +0.000 OA
BRANCH  24  27
ATOM     27  C   UNL     1      -2.198  13.364  21.696  0.00  0.00    +0.000 A 
ATOM     28  C   UNL     1      -2.921  12.939  22.803  0.00  0.00    +0.000 A 
ATOM     29  C   UNL     1      -4.271  12.590  22.688  0.00  0.00    +0.000 A 
ATOM     30  C   UNL     1      -4.921  12.692  21.452  0.00  0.00    +0.000 A 
ATOM     31  C   UNL     1      -6.367  12.282  21.366  0.00  0.00    +0.000 C 
ATOM     32  C   UNL     1      -4.205  13.173  20.348  0.00  0.00    +0.000 A 
ATOM     33  C   UNL     1      -2.841  13.524  20.460  0.00  0.00    +0.000 A 
ENDBRANCH  24  27
ENDBRANCH   9  24
TORSDOF 6
ENDMDL
MODEL 3
REMARK VINA RESULT:      -8.1      2.766      4.283
REMARK  Name = 
REMARK  8 active torsions:
REMARK  status: ('A' for Active; 'I' for Inactive)
REMARK    1  A    between atoms: C_1  and  O_2
REMARK    2  A    between atoms: O_2  and  C_3
REMARK    3  A    between atoms: C_3  and  C_5
REMARK    4  A    between atoms: C_10  and  N_11
REMARK    5  A    between atoms: C_12  and  C_14
REMARK    6  A    between atoms: N_22  and  S_23
REMARK    7  A    between atoms: S_23  and  C_26
REMARK    8  A    between atoms: C_29  and  C_30
REMARK                            x       y       z     vdW  Elec       q    Type
REMARK                         _______ _______ _______ _____ _____    ______ ____
ROOT
ATOM      1  C   UNL     1       2.041   7.916  19.581  0.00  0.00    +0.000 A 
ATOM      2  C   UNL     1       2.129   8.595  18.347  0.00  0.00    +0.000 A 
ATOM      3  C   UNL     1       1.599   9.908  18.203  0.00  0.00    +0.000 A 
ATOM      4  C   UNL     1       0.957  10.496  19.294  0.00  0.00    +0.000 A 
ATOM      5  C   UNL     1       1.043   9.871  20.551  0.00  0.00    +0.000 A 
ATOM      6  C   UNL     1       1.589   8.604  20.711  0.00  0.00    +0.000 A 
ATOM      7  C   UNL     1      -0.039  10.392  21.458  0.00  0.00    +0.000 C 
ATOM      8  C   UNL     1      -1.101  10.502  20.370  0.00  0.00    +0.000 C 
ATOM      9  N   UNL     1      -0.353  11.149  19.238  0.00  0.00    +0.000 N 
ENDROOT
BRANCH   1  11
ATOM     10  N   UNL     1       2.463   5.676  18.617  0.00  0.00    +0.000 N 
ATOM     11  C   UNL     1       2.065   6.420  19.713  0.00  0.00    +0.000 C 
ATOM     12  O   UNL     1       1.739   5.958  20.804  0.00  0.00    +0.000 OA
ATOM     13  H   UNL     1       2.954   6.157  17.865  0.00  0.00    +0.000 HD
BRANCH  10  19
ATOM     14  C   UNL     1       3.686   3.530  18.427  0.00  0.00    +0.000 A 
ATOM     15  C   UNL     1       3.664   2.115  18.416  0.00  0.00    +0.000 A 
ATOM     16  C   UNL     1       2.467   1.411  18.505  0.00  0.00    +0.000 A 
ATOM     17  C   UNL     1       1.273   2.109  18.589  0.00  0.00    +0.000 A 
ATOM     18  C   UNL     1       1.279   3.508  18.611  0.00  0.00    +0.000 A 
ATOM     19  C   UNL     1       2.475   4.247  18.556  0.00  0.00    +0.000 A 
BRANCH  14  20
ATOM     20  C   UNL     1       5.000   4.235  18.320  0.00  0.00    +0.000 C 
ATOM     21  O   UNL     1       5.911   4.110  19.125  0.00  0.00    +0.000 OA
BRANCH  20  23
ATOM     22  C   UNL     1       5.319   4.398  15.983  0.00  0.00    +0.000 C 
ATOM     23  O   UNL     1       5.013   5.034  17.223  0.00  0.00    +0.000 OA
ENDBRANCH  20  23
ENDBRANCH  14  20
ENDBRANCH  10  19
ENDBRANCH   1  11
BRANCH   9  24
ATOM     24  S   UNL     1      -0.569  12.848  19.157  0.00  0.00    +0.000 S 
ATOM     25  O   UNL     1      -0.733  13.217  17.758  0.00  0.00    +0.000 OA
ATOM     26  O   UNL     1      -1.581  13.206  20.125  0.00  0.00    +0.000 OA
BRANCH  24  27
ATOM     27  C   UNL     1       0.951  13.616  19.699  0.00  0.00    +0.000 A 
ATOM     28  C   UNL     1       1.794  14.078  18.697  0.00  0.00    +0.000 A 
ATOM     29  C   UNL     1       2.998  14.718  19.012  0.00  0.00    +0.000 A 
ATOM     30  C   UNL     1       3.357  14.925  20.349  0.00  0.00    +0.000 A 
ATOM     31  C   UNL     1       4.672  15.594  20.643  0.00  0.00    +0.000 C 
ATOM     32  C   UNL     1       2.479  14.507  21.358  0.00  0.00    +0.000 A 
ATOM     33  C   UNL     1       1.264  13.858  21.045  0.00  0.00    +0.000 A 
ENDBRANCH  24  27
ENDBRANCH   9  24
TORSDOF 6
ENDMDL
MODEL 4
REMARK VINA RESULT:      -8.0      0.612      1.228
REMARK  Name = 
REMARK  8 active torsions:
REMARK  status: ('A' for Active; 'I' for Inactive)
REMARK    1  A    between atoms: C_1  and  O_2
REMARK    2  A    between atoms: O_2  and  C_3
REMARK    3  A    between atoms: C_3  and  C_5
REMARK    4  A    between atoms: C_10  and  N_11
REMARK    5  A    between atoms: C_12  and  C_14
REMARK    6  A    between atoms: N_22  and  S_23
REMARK    7  A    between atoms: S_23  and  C_26
REMARK    8  A    between atoms: C_29  and  C_30
REMARK                            x       y       z     vdW  Elec       q    Type
REMARK                         _______ _______ _______ _____ _____    ______ ____
ROOT
ATOM      1  C   UNL     1       1.799   8.012  20.175  0.00  0.00    +0.000 A 
ATOM      2  C   UNL     1       1.529   8.906  19.117  0.00  0.00    +0.000 A 
ATOM      3  C   UNL     1       0.914  10.164  19.371  0.00  0.00    +0.000 A 
ATOM      4  C   UNL     1       0.548  10.480  20.680  0.00  0.00    +0.000 A 
ATOM      5  C   UNL     1       0.988   9.652  21.728  0.00  0.00    +0.000 A 
ATOM      6  C   UNL     1       1.621   8.438  21.495  0.00  0.00    +0.000 A 
ATOM      7  C   UNL     1       0.154   9.892  22.957  0.00  0.00    +0.000 C 
ATOM      8  C   UNL     1      -1.158  10.088  22.207  0.00  0.00    +0.000 C 
ATOM      9  N   UNL     1      -0.763  10.999  21.078  0.00  0.00    +0.000 N 
ENDROOT
BRANCH   1  11
ATOM     10  N   UNL     1       2.506   6.059  18.828  0.00  0.00    +0.000 N 
ATOM     11  C   UNL     1       1.933   6.527  19.997  0.00  0.00    +0.000 C 
ATOM     12  O   UNL     1       1.532   5.823  20.922  0.00  0.00    +0.000 OA
ATOM     13  H   UNL     1       3.032   6.718  18.257  0.00  0.00    +0.000 HD
BRANCH  10  19
ATOM     14  C   UNL     1       3.885   4.151  18.059  0.00  0.00    +0.000 A 
ATOM     15  C   UNL     1       3.994   2.772  17.762  0.00  0.00    +0.000 A 
ATOM     16  C   UNL     1       2.893   1.925  17.849  0.00  0.00    +0.000 A 
ATOM     17  C   UNL     1       1.663   2.446  18.216  0.00  0.00    +0.000 A 
ATOM     18  C   UNL     1       1.541   3.806  18.522  0.00  0.00    +0.000 A 
ATOM     19  C   UNL     1       2.643   4.679  18.476  0.00  0.00    +0.000 A 
BRANCH  14  20
ATOM     20  C   UNL     1       5.099   5.016  17.941  0.00  0.00    +0.000 C 
ATOM     21  O   UNL     1       5.102   6.123  17.424  0.00  0.00    +0.000 OA
BRANCH  20  23
ATOM     22  C   UNL     1       7.450   4.960  18.186  0.00  0.00    +0.000 C 
ATOM     23  O   UNL     1       6.177   4.382  18.470  0.00  0.00    +0.000 OA
ENDBRANCH  20  23
ENDBRANCH  14  20
ENDBRANCH  10  19
ENDBRANCH   1  11
BRANCH   9  24
ATOM     24  S   UNL     1      -1.080  12.654  21.390  0.00  0.00    +0.000 S 
ATOM     25  O   UNL     1      -0.070  13.142  22.319  0.00  0.00    +0.000 OA
ATOM     26  O   UNL     1      -1.271  13.310  20.116  0.00  0.00    +0.000 OA
BRANCH  24  27
ATOM     27  C   UNL     1      -2.641  12.754  22.256  0.00  0.00    +0.000 A 
ATOM     28  C   UNL     1      -3.780  12.783  21.463  0.00  0.00    +0.000 A 
ATOM     29  C   UNL     1      -5.054  12.835  22.038  0.00  0.00    +0.000 A 
ATOM     30  C   UNL     1      -5.197  12.831  23.431  0.00  0.00    +0.000 A 
ATOM     31  C   UNL     1      -6.585  12.914  24.009  0.00  0.00    +0.000 C 
ATOM     32  C   UNL     1      -4.050  12.747  24.230  0.00  0.00    +0.000 A 
ATOM     33  C   UNL     1      -2.762  12.697  23.652  0.00  0.00    +0.000 A 
ENDBRANCH  24  27
ENDBRANCH   9  24
TORSDOF 6
ENDMDL
MODEL 5
REMARK VINA RESULT:      -8.0      3.561     10.547
REMARK  Name = 
REMARK  8 active torsions:
REMARK  status: ('A' for Active; 'I' for Inactive)
REMARK    1  A    between atoms: C_1  and  O_2
REMARK    2  A    between atoms: O_2  and  C_3
REMARK    3  A    between atoms: C_3  and  C_5
REMARK    4  A    between atoms: C_10  and  N_11
REMARK    5  A    between atoms: C_12  and  C_14
REMARK    6  A    between atoms: N_22  and  S_23
REMARK    7  A    between atoms: S_23  and  C_26
REMARK    8  A    between atoms: C_29  and  C_30
REMARK                            x       y       z     vdW  Elec       q    Type
REMARK                         _______ _______ _______ _____ _____    ______ ____
ROOT
ATOM      1  C   UNL     1       2.451   6.946  18.897  0.00  0.00    +0.000 A 
ATOM      2  C   UNL     1       2.960   7.751  17.856  0.00  0.00    +0.000 A 
ATOM      3  C   UNL     1       4.152   7.382  17.172  0.00  0.00    +0.000 A 
ATOM      4  C   UNL     1       4.829   6.230  17.576  0.00  0.00    +0.000 A 
ATOM      5  C   UNL     1       4.206   5.361  18.490  0.00  0.00    +0.000 A 
ATOM      6  C   UNL     1       3.024   5.693  19.138  0.00  0.00    +0.000 A 
ATOM      7  C   UNL     1       5.231   4.456  19.117  0.00  0.00    +0.000 C 
ATOM      8  C   UNL     1       6.328   5.511  19.198  0.00  0.00    +0.000 C 
ATOM      9  N   UNL     1       6.267   6.158  17.842  0.00  0.00    +0.000 N 
ENDROOT
BRANCH   1  11
ATOM     10  N   UNL     1       1.305   8.822  20.034  0.00  0.00    +0.000 N 
ATOM     11  C   UNL     1       1.567   7.465  19.995  0.00  0.00    +0.000 C 
ATOM     12  O   UNL     1       1.122   6.633  20.783  0.00  0.00    +0.000 OA
ATOM     13  H   UNL     1       1.503   9.372  19.199  0.00  0.00    +0.000 HD
BRANCH  10  19
ATOM     14  C   UNL     1      -0.337  10.541  20.731  0.00  0.00    +0.000 A 
ATOM     15  C   UNL     1      -1.109  11.140  21.754  0.00  0.00    +0.000 A 
ATOM     16  C   UNL     1      -1.001  10.724  23.078  0.00  0.00    +0.000 A 
ATOM     17  C   UNL     1      -0.108   9.716  23.402  0.00  0.00    +0.000 A 
ATOM     18  C   UNL     1       0.655   9.107  22.400  0.00  0.00    +0.000 A 
ATOM     19  C   UNL     1       0.543   9.482  21.049  0.00  0.00    +0.000 A 
BRANCH  14  20
ATOM     20  C   UNL     1      -0.488  11.033  19.327  0.00  0.00    +0.000 C 
ATOM     21  O   UNL     1       0.360  11.687  18.737  0.00  0.00    +0.000 OA
BRANCH  20  23
ATOM     22  C   UNL     1      -2.410  11.663  18.102  0.00  0.00    +0.000 C 
ATOM     23  O   UNL     1      -1.696  10.665  18.830  0.00  0.00    +0.000 OA
ENDBRANCH  20  23
ENDBRANCH  14  20
ENDBRANCH  10  19
ENDBRANCH   1  11
BRANCH   9  24
ATOM     24  S   UNL     1       7.413   5.531  16.732  0.00  0.00    +0.000 S 
ATOM     25  O   UNL     1       8.183   6.646  16.197  0.00  0.00    +0.000 OA
ATOM     26  O   UNL     1       8.087   4.427  17.377  0.00  0.00    +0.000 OA
BRANCH  24  27
ATOM     27  C   UNL     1       6.511   4.843  15.351  0.00  0.00    +0.000 A 
ATOM     28  C   UNL     1       7.136   4.915  14.114  0.00  0.00    +0.000 A 
ATOM     29  C   UNL     1       6.529   4.384  12.971  0.00  0.00    +0.000 A 
ATOM     30  C   UNL     1       5.287   3.745  13.066  0.00  0.00    +0.000 A 
ATOM     31  C   UNL     1       4.657   3.210  11.808  0.00  0.00    +0.000 C 
ATOM     32  C   UNL     1       4.683   3.625  14.324  0.00  0.00    +0.000 A 
ATOM     33  C   UNL     1       5.291   4.162  15.480  0.00  0.00    +0.000 A 
ENDBRANCH  24  27
ENDBRANCH   9  24
TORSDOF 6
ENDMDL
MODEL 6
REMARK VINA RESULT:      -8.0      1.944      3.373
REMARK  Name = 
REMARK  8 active torsions:
REMARK  status: ('A' for Active; 'I' for Inactive)
REMARK    1  A    between atoms: C_1  and  O_2
REMARK    2  A    between atoms: O_2  and  C_3
REMARK    3  A    between atoms: C_3  and  C_5
REMARK    4  A    between atoms: C_10  and  N_11
REMARK    5  A    between atoms: C_12  and  C_14
REMARK    6  A    between atoms: N_22  and  S_23
REMARK    7  A    between atoms: S_23  and  C_26
REMARK    8  A    between atoms: C_29  and  C_30
REMARK                            x       y       z     vdW  Elec       q    Type
REMARK                         _______ _______ _______ _____ _____    ______ ____
ROOT
ATOM      1  C   UNL     1       0.970   9.475  19.146  0.00  0.00    +0.000 A 
ATOM      2  C   UNL     1       1.100   9.523  20.551  0.00  0.00    +0.000 A 
ATOM      3  C   UNL     1       0.683  10.674  21.277  0.00  0.00    +0.000 A 
ATOM      4  C   UNL     1       0.181  11.769  20.572  0.00  0.00    +0.000 A 
ATOM      5  C   UNL     1      -0.099  11.623  19.201  0.00  0.00    +0.000 A 
ATOM      6  C   UNL     1       0.270  10.491  18.487  0.00  0.00    +0.000 A 
ATOM      7  C   UNL     1      -0.200  12.976  18.552  0.00  0.00    +0.000 C 
ATOM      8  C   UNL     1       0.917  13.614  19.369  0.00  0.00    +0.000 C 
ATOM      9  N   UNL     1       0.610  13.155  20.768  0.00  0.00    +0.000 N 
ENDROOT
BRANCH   1  11
ATOM     10  N   UNL     1       2.280   7.408  18.774  0.00  0.00    +0.000 N 
ATOM     11  C   UNL     1       1.816   8.606  18.261  0.00  0.00    +0.000 C 
ATOM     12  O   UNL     1       2.027   9.020  17.122  0.00  0.00    +0.000 OA
ATOM     13  H   UNL     1       1.838   7.047  19.618  0.00  0.00    +0.000 HD
BRANCH  10  19
ATOM     14  C   UNL     1       2.910   5.111  18.096  0.00  0.00    +0.000 A 
ATOM     15  C   UNL     1       3.765   4.249  17.368  0.00  0.00    +0.000 A 
ATOM     16  C   UNL     1       4.857   4.744  16.662  0.00  0.00    +0.000 A 
ATOM     17  C   UNL     1       5.122   6.104  16.685  0.00  0.00    +0.000 A 
ATOM     18  C   UNL     1       4.280   6.970  17.392  0.00  0.00    +0.000 A 
ATOM     19  C   UNL     1       3.150   6.503  18.088  0.00  0.00    +0.000 A 
BRANCH  14  20
ATOM     20  C   UNL     1       1.756   4.524  18.844  0.00  0.00    +0.000 C 
ATOM     21  O   UNL     1       1.450   4.839  19.985  0.00  0.00    +0.000 OA
BRANCH  20  23
ATOM     22  C   UNL     1       0.835   2.350  18.718  0.00  0.00    +0.000 C 
ATOM     23  O   UNL     1       1.130   3.592  18.081  0.00  0.00    +0.000 OA
ENDBRANCH  20  23
ENDBRANCH  14  20
ENDBRANCH  10  19
ENDBRANCH   1  11
BRANCH   9  24
ATOM     24  S   UNL     1      -0.268  14.304  21.689  0.00  0.00    +0.000 S 
ATOM     25  O   UNL     1       0.251  14.286  23.050  0.00  0.00    +0.000 OA
ATOM     26  O   UNL     1      -0.291  15.539  20.938  0.00  0.00    +0.000 OA
BRANCH  24  27
ATOM     27  C   UNL     1      -1.960  13.738  21.794  0.00  0.00    +0.000 A 
ATOM     28  C   UNL     1      -2.783  14.068  20.726  0.00  0.00    +0.000 A 
ATOM     29  C   UNL     1      -4.119  13.653  20.694  0.00  0.00    +0.000 A 
ATOM     30  C   UNL     1      -4.637  12.872  21.734  0.00  0.00    +0.000 A 
ATOM     31  C   UNL     1      -6.086  12.468  21.673  0.00  0.00    +0.000 C 
ATOM     32  C   UNL     1      -3.790  12.493  22.784  0.00  0.00    +0.000 A 
ATOM     33  C   UNL     1      -2.442  12.912  22.821  0.00  0.00    +0.000 A 
ENDBRANCH  24  27
ENDBRANCH   9  24
TORSDOF 6
ENDMDL
MODEL 7
REMARK VINA RESULT:      -8.0      0.866      1.336
REMARK  Name = 
REMARK  8 active torsions:
REMARK  status: ('A' for Active; 'I' for Inactive)
REMARK    1  A    between atoms: C_1  and  O_2
REMARK    2  A    between atoms: O_2  and  C_3
REMARK    3  A    between atoms: C_3  and  C_5
REMARK    4  A    between atoms: C_10  and  N_11
REMARK    5  A    between atoms: C_12  and  C_14
REMARK    6  A    between atoms: N_22  and  S_23
REMARK    7  A    between atoms: S_23  and  C_26
REMARK    8  A    between atoms: C_29  and  C_30
REMARK                            x       y       z     vdW  Elec       q    Type
REMARK                         _______ _______ _______ _____ _____    ______ ____
ROOT
ATOM      1  C   UNL     1       1.863   7.904  20.278  0.00  0.00    +0.000 A 
ATOM      2  C   UNL     1       1.480   8.817  19.273  0.00  0.00    +0.000 A 
ATOM      3  C   UNL     1       0.849  10.046  19.614  0.00  0.00    +0.000 A 
ATOM      4  C   UNL     1       0.581  10.314  20.957  0.00  0.00    +0.000 A 
ATOM      5  C   UNL     1       1.130   9.472  21.941  0.00  0.00    +0.000 A 
ATOM      6  C   UNL     1       1.780   8.287  21.621  0.00  0.00    +0.000 A 
ATOM      7  C   UNL     1       0.391   9.651  23.239  0.00  0.00    +0.000 C 
ATOM      8  C   UNL     1      -0.983   9.823  22.603  0.00  0.00    +0.000 C 
ATOM      9  N   UNL     1      -0.709  10.777  21.473  0.00  0.00    +0.000 N 
ENDROOT
BRANCH   1  11
ATOM     10  N   UNL     1       2.640   6.018  18.876  0.00  0.00    +0.000 N 
ATOM     11  C   UNL     1       2.028   6.430  20.046  0.00  0.00    +0.000 C 
ATOM     12  O   UNL     1       1.615   5.683  20.931  0.00  0.00    +0.000 OA
ATOM     13  H   UNL     1       3.170   6.709  18.346  0.00  0.00    +0.000 HD
BRANCH  10  19
ATOM     14  C   UNL     1       4.099   4.092  18.332  0.00  0.00    +0.000 A 
ATOM     15  C   UNL     1       4.229   2.728  17.976  0.00  0.00    +0.000 A 
ATOM     16  C   UNL     1       3.111   1.934  17.737  0.00  0.00    +0.000 A 
ATOM     17  C   UNL     1       1.847   2.494  17.833  0.00  0.00    +0.000 A 
ATOM     18  C   UNL     1       1.701   3.838  18.193  0.00  0.00    +0.000 A 
ATOM     19  C   UNL     1       2.811   4.656  18.473  0.00  0.00    +0.000 A 
BRANCH  14  20
ATOM     20  C   UNL     1       5.334   4.900  18.569  0.00  0.00    +0.000 C 
ATOM     21  O   UNL     1       5.645   5.371  19.652  0.00  0.00    +0.000 OA
BRANCH  20  23
ATOM     22  C   UNL     1       7.390   4.621  17.436  0.00  0.00    +0.000 C 
ATOM     23  O   UNL     1       6.028   5.043  17.411  0.00  0.00    +0.000 OA
ENDBRANCH  20  23
ENDBRANCH  14  20
ENDBRANCH  10  19
ENDBRANCH   1  11
BRANCH   9  24
ATOM     24  S   UNL     1      -1.051  12.412  21.860  0.00  0.00    +0.000 S 
ATOM     25  O   UNL     1      -0.734  12.621  23.266  0.00  0.00    +0.000 OA
ATOM     26  O   UNL     1      -0.435  13.238  20.846  0.00  0.00    +0.000 OA
BRANCH  24  27
ATOM     27  C   UNL     1      -2.816  12.648  21.708  0.00  0.00    +0.000 A 
ATOM     28  C   UNL     1      -3.332  12.603  20.420  0.00  0.00    +0.000 A 
ATOM     29  C   UNL     1      -4.704  12.750  20.190  0.00  0.00    +0.000 A 
ATOM     30  C   UNL     1      -5.583  12.919  21.266  0.00  0.00    +0.000 A 
ATOM     31  C   UNL     1      -7.048  13.099  20.973  0.00  0.00    +0.000 C 
ATOM     32  C   UNL     1      -5.069  12.909  22.569  0.00  0.00    +0.000 A 
ATOM     33  C   UNL     1      -3.684  12.763  22.805  0.00  0.00    +0.000 A 
ENDBRANCH  24  27
ENDBRANCH   9  24
TORSDOF 6
ENDMDL
MODEL 8
REMARK VINA RESULT:      -8.0      1.809      2.408
REMARK  Name = 
REMARK  8 active torsions:
REMARK  status: ('A' for Active; 'I' for Inactive)
REMARK    1  A    between atoms: C_1  and  O_2
REMARK    2  A    between atoms: O_2  and  C_3
REMARK    3  A    between atoms: C_3  and  C_5
REMARK    4  A    between atoms: C_10  and  N_11
REMARK    5  A    between atoms: C_12  and  C_14
REMARK    6  A    between atoms: N_22  and  S_23
REMARK    7  A    between atoms: S_23  and  C_26
REMARK    8  A    between atoms: C_29  and  C_30
REMARK                            x       y       z     vdW  Elec       q    Type
REMARK                         _______ _______ _______ _____ _____    ______ ____
ROOT
ATOM      1  C   UNL     1       2.140   7.841  19.317  0.00  0.00    +0.000 A 
ATOM      2  C   UNL     1       2.010   8.519  18.087  0.00  0.00    +0.000 A 
ATOM      3  C   UNL     1       1.258   9.725  18.001  0.00  0.00    +0.000 A 
ATOM      4  C   UNL     1       0.621  10.202  19.147  0.00  0.00    +0.000 A 
ATOM      5  C   UNL     1       0.914   9.605  20.386  0.00  0.00    +0.000 A 
ATOM      6  C   UNL     1       1.676   8.449  20.488  0.00  0.00    +0.000 A 
ATOM      7  C   UNL     1      -0.159   9.943  21.385  0.00  0.00    +0.000 C 
ATOM      8  C   UNL     1      -1.312   9.868  20.391  0.00  0.00    +0.000 C 
ATOM      9  N   UNL     1      -0.780  10.627  19.207  0.00  0.00    +0.000 N 
ENDROOT
BRANCH   1  11
ATOM     10  N   UNL     1       2.721   5.672  18.275  0.00  0.00    +0.000 N 
ATOM     11  C   UNL     1       2.425   6.371  19.432  0.00  0.00    +0.000 C 
ATOM     12  O   UNL     1       2.387   5.889  20.562  0.00  0.00    +0.000 OA
ATOM     13  H   UNL     1       2.979   6.206  17.447  0.00  0.00    +0.000 HD
BRANCH  10  19
ATOM     14  C   UNL     1       4.254   3.727  18.246  0.00  0.00    +0.000 A 
ATOM     15  C   UNL     1       4.438   2.324  18.219  0.00  0.00    +0.000 A 
ATOM     16  C   UNL     1       3.354   1.456  18.126  0.00  0.00    +0.000 A 
ATOM     17  C   UNL     1       2.072   1.975  18.041  0.00  0.00    +0.000 A 
ATOM     18  C   UNL     1       1.874   3.360  18.077  0.00  0.00    +0.000 A 
ATOM     19  C   UNL     1       2.947   4.261  18.204  0.00  0.00    +0.000 A 
BRANCH  14  20
ATOM     20  C   UNL     1       5.455   4.613  18.338  0.00  0.00    +0.000 C 
ATOM     21  O   UNL     1       6.195   4.663  19.309  0.00  0.00    +0.000 OA
BRANCH  20  23
ATOM     22  C   UNL     1       6.124   6.661  17.363  0.00  0.00    +0.000 C 
ATOM     23  O   UNL     1       5.578   5.352  17.206  0.00  0.00    +0.000 OA
ENDBRANCH  20  23
ENDBRANCH  14  20
ENDBRANCH  10  19
ENDBRANCH   1  11
BRANCH   9  24
ATOM     24  S   UNL     1      -1.283  12.265  19.160  0.00  0.00    +0.000 S 
ATOM     25  O   UNL     1      -0.744  12.939  20.333  0.00  0.00    +0.000 OA
ATOM     26  O   UNL     1      -0.997  12.772  17.837  0.00  0.00    +0.000 OA
BRANCH  24  27
ATOM     27  C   UNL     1      -3.061  12.292  19.345  0.00  0.00    +0.000 A 
ATOM     28  C   UNL     1      -3.789  11.659  18.347  0.00  0.00    +0.000 A 
ATOM     29  C   UNL     1      -5.186  11.599  18.406  0.00  0.00    +0.000 A 
ATOM     30  C   UNL     1      -5.868  12.157  19.494  0.00  0.00    +0.000 A 
ATOM     31  C   UNL     1      -7.372  12.094  19.506  0.00  0.00    +0.000 C 
ATOM     32  C   UNL     1      -5.129  12.748  20.526  0.00  0.00    +0.000 A 
ATOM     33  C   UNL     1      -3.719  12.813  20.469  0.00  0.00    +0.000 A 
ENDBRANCH  24  27
ENDBRANCH   9  24
TORSDOF 6
ENDMDL
MODEL 9
REMARK VINA RESULT:      -7.9      1.509      1.867
REMARK  Name = 
REMARK  8 active torsions:
REMARK  status: ('A' for Active; 'I' for Inactive)
REMARK    1  A    between atoms: C_1  and  O_2
REMARK    2  A    between atoms: O_2  and  C_3
REMARK    3  A    between atoms: C_3  and  C_5
REMARK    4  A    between atoms: C_10  and  N_11
REMARK    5  A    between atoms: C_12  and  C_14
REMARK    6  A    between atoms: N_22  and  S_23
REMARK    7  A    between atoms: S_23  and  C_26
REMARK    8  A    between atoms: C_29  and  C_30
REMARK                            x       y       z     vdW  Elec       q    Type
REMARK                         _______ _______ _______ _____ _____    ______ ____
ROOT
ATOM      1  C   UNL     1       2.171   7.832  19.425  0.00  0.00    +0.000 A 
ATOM      2  C   UNL     1       2.147   8.563  18.219  0.00  0.00    +0.000 A 
ATOM      3  C   UNL     1       1.446   9.799  18.134  0.00  0.00    +0.000 A 
ATOM      4  C   UNL     1       0.751  10.255  19.255  0.00  0.00    +0.000 A 
ATOM      5  C   UNL     1       0.939   9.599  20.485  0.00  0.00    +0.000 A 
ATOM      6  C   UNL     1       1.651   8.411  20.588  0.00  0.00    +0.000 A 
ATOM      7  C   UNL     1      -0.186   9.937  21.425  0.00  0.00    +0.000 C 
ATOM      8  C   UNL     1      -1.272   9.946  20.355  0.00  0.00    +0.000 C 
ATOM      9  N   UNL     1      -0.635  10.730  19.241  0.00  0.00    +0.000 N 
ENDROOT
BRANCH   1  11
ATOM     10  N   UNL     1       2.905   5.712  18.380  0.00  0.00    +0.000 N 
ATOM     11  C   UNL     1       2.394   6.349  19.497  0.00  0.00    +0.000 C 
ATOM     12  O   UNL     1       2.117   5.801  20.562  0.00  0.00    +0.000 OA
ATOM     13  H   UNL     1       3.337   6.287  17.658  0.00  0.00    +0.000 HD
BRANCH  10  19
ATOM     14  C   UNL     1       4.393   3.733  18.428  0.00  0.00    +0.000 A 
ATOM     15  C   UNL     1       4.551   2.329  18.349  0.00  0.00    +0.000 A 
ATOM     16  C   UNL     1       3.469   1.494  18.085  0.00  0.00    +0.000 A 
ATOM     17  C   UNL     1       2.217   2.049  17.878  0.00  0.00    +0.000 A 
ATOM     18  C   UNL     1       2.042   3.436  17.963  0.00  0.00    +0.000 A 
ATOM     19  C   UNL     1       3.110   4.301  18.261  0.00  0.00    +0.000 A 
BRANCH  14  20
ATOM     20  C   UNL     1       5.591   4.583  18.706  0.00  0.00    +0.000 C 
ATOM     21  O   UNL     1       5.693   5.326  19.671  0.00  0.00    +0.000 OA
BRANCH  20  23
ATOM     22  C   UNL     1       6.609   5.464  16.762  0.00  0.00    +0.000 C 
ATOM     23  O   UNL     1       6.518   4.417  17.728  0.00  0.00    +0.000 OA
ENDBRANCH  20  23
ENDBRANCH  14  20
ENDBRANCH  10  19
ENDBRANCH   1  11
BRANCH   9  24
ATOM     24  S   UNL     1      -1.075  12.387  19.230  0.00  0.00    +0.000 S 
ATOM     25  O   UNL     1      -0.190  13.097  20.143  0.00  0.00    +0.000 OA
ATOM     26  O   UNL     1      -1.178  12.802  17.849  0.00  0.00    +0.000 OA
BRANCH  24  27
ATOM     27  C   UNL     1      -2.716  12.517  19.927  0.00  0.00    +0.000 A 
ATOM     28  C   UNL     1      -2.797  13.045  21.208  0.00  0.00    +0.000 A 
ATOM     29  C   UNL     1      -4.035  13.214  21.838  0.00  0.00    +0.000 A 
ATOM     30  C   UNL     1      -5.217  12.876  21.168  0.00  0.00    +0.000 A 
ATOM     31  C   UNL     1      -6.526  13.049  21.891  0.00  0.00    +0.000 C 
ATOM     32  C   UNL     1      -5.137  12.395  19.854  0.00  0.00    +0.000 A 
ATOM     33  C   UNL     1      -3.889  12.220  19.216  0.00  0.00    +0.000 A 
ENDBRANCH  24  27
ENDBRANCH   9  24
TORSDOF 6
ENDMDL
