MODEL 1
REMARK VINA RESULT:      -6.5      0.000      0.000
REMARK  Name = 
REMARK  5 active torsions:
REMARK  status: ('A' for Active; 'I' for Inactive)
REMARK    1  A    between atoms: C_1  and  C_2
REMARK    2  A    between atoms: N_4  and  C_5
REMARK    3  A    between atoms: C_8  and  O_9
REMARK    4  A    between atoms: C_10  and  C_11
REMARK    5  A    between atoms: C_11  and  O_13
REMARK                            x       y       z     vdW  Elec       q    Type
REMARK                         _______ _______ _______ _____ _____    ______ ____
ROOT
ATOM      1  C   UNL     1       4.159   4.604  18.426  0.00  0.00    +0.000 A 
ATOM      2  C   UNL     1       4.333   4.024  17.168  0.00  0.00    +0.000 A 
ATOM      3  C   UNL     1       5.582   4.031  16.544  0.00  0.00    +0.000 A 
ATOM      4  C   UNL     1       6.672   4.623  17.179  0.00  0.00    +0.000 A 
ATOM      5  C   UNL     1       6.516   5.243  18.423  0.00  0.00    +0.000 A 
ATOM      6  C   UNL     1       5.247   5.243  19.032  0.00  0.00    +0.000 A 
ENDROOT
BRANCH   1  10
ATOM      7  C   UNL     1       1.061   3.757  20.408  0.00  0.00    +0.000 C 
ATOM      8  C   UNL     1       2.393   3.464  19.769  0.00  0.00    +0.000 C 
ATOM      9  O   UNL     1       2.891   2.346  19.845  0.00  0.00    +0.000 OA
ATOM     10  N   UNL     1       2.935   4.569  19.129  0.00  0.00    +0.000 N 
ATOM     11  H   UNL     1       2.476   5.459  19.285  0.00  0.00    +0.000 HD
ENDBRANCH   1  10
BRANCH   4  12
ATOM     12  O   UNL     1       7.900   4.577  16.572  0.00  0.00    +0.000 OA
ATOM     13  H   UNL     1       8.171   5.490  16.352  0.00  0.00    +0.000 HD
ENDBRANCH   4  12
BRANCH   5  14
ATOM     14  C   UNL     1       7.631   5.897  19.171  0.00  0.00    +0.000 C 
ATOM     15  O   UNL     1       8.244   6.850  18.717  0.00  0.00    +0.000 OA
BRANCH  14  16
ATOM     16  O   UNL     1       7.902   5.373  20.383  0.00  0.00    +0.000 OA
ATOM     17  H   UNL     1       8.685   4.779  20.367  0.00  0.00    +0.000 HD
ENDBRANCH  14  16
ENDBRANCH   5  14
TORSDOF 4
ENDMDL
MODEL 2
REMARK VINA RESULT:      -6.4      2.104      5.385
REMARK  Name = 
REMARK  5 active torsions:
REMARK  status: ('A' for Active; 'I' for Inactive)
REMARK    1  A    between atoms: C_1  and  C_2
REMARK    2  A    between atoms: N_4  and  C_5
REMARK    3  A    between atoms: C_8  and  O_9
REMARK    4  A    between atoms: C_10  and  C_11
REMARK    5  A    between atoms: C_11  and  O_13
REMARK                            x       y       z     vdW  Elec       q    Type
REMARK                         _______ _______ _______ _____ _____    ______ ____
ROOT
ATOM      1  C   UNL     1       4.672   3.527  18.601  0.00  0.00    +0.000 A 
ATOM      2  C   UNL     1       4.082   3.090  17.413  0.00  0.00    +0.000 A 
ATOM      3  C   UNL     1       2.802   2.534  17.412  0.00  0.00    +0.000 A 
ATOM      4  C   UNL     1       2.099   2.408  18.608  0.00  0.00    +0.000 A 
ATOM      5  C   UNL     1       2.682   2.802  19.818  0.00  0.00    +0.000 A 
ATOM      6  C   UNL     1       3.980   3.346  19.804  0.00  0.00    +0.000 A 
ENDROOT
BRANCH   1  10
ATOM      7  C   UNL     1       7.666   5.817  18.441  0.00  0.00    +0.000 C 
ATOM      8  C   UNL     1       6.210   5.464  18.291  0.00  0.00    +0.000 C 
ATOM      9  O   UNL     1       5.404   6.297  17.890  0.00  0.00    +0.000 OA
ATOM     10  N   UNL     1       5.935   4.154  18.650  0.00  0.00    +0.000 N 
ATOM     11  H   UNL     1       6.680   3.639  19.105  0.00  0.00    +0.000 HD
ENDBRANCH   1  10
BRANCH   4  12
ATOM     12  O   UNL     1       0.824   1.903  18.582  0.00  0.00    +0.000 OA
ATOM     13  H   UNL     1       0.587   1.711  17.654  0.00  0.00    +0.000 HD
ENDBRANCH   4  12
BRANCH   5  14
ATOM     14  C   UNL     1       1.997   2.704  21.141  0.00  0.00    +0.000 C 
ATOM     15  O   UNL     1       2.610   2.478  22.172  0.00  0.00    +0.000 OA
BRANCH  14  16
ATOM     16  O   UNL     1       0.663   2.896  21.120  0.00  0.00    +0.000 OA
ATOM     17  H   UNL     1       0.218   2.512  21.908  0.00  0.00    +0.000 HD
ENDBRANCH  14  16
ENDBRANCH   5  14
TORSDOF 4
ENDMDL
MODEL 3
REMARK VINA RESULT:      -6.3      1.052      1.052
REMARK  Name = 
REMARK  5 active torsions:
REMARK  status: ('A' for Active; 'I' for Inactive)
REMARK    1  A    between atoms: C_1  and  C_2
REMARK    2  A    between atoms: N_4  and  C_5
REMARK    3  A    between atoms: C_8  and  O_9
REMARK    4  A    between atoms: C_10  and  C_11
REMARK    5  A    between atoms: C_11  and  O_13
REMARK                            x       y       z     vdW  Elec       q    Type
REMARK                         _______ _______ _______ _____ _____    ______ ____
ROOT
ATOM      1  C   UNL     1       4.431   4.069  18.443  0.00  0.00    +0.000 A 
ATOM      2  C   UNL     1       4.366   4.099  17.048  0.00  0.00    +0.000 A 
ATOM      3  C   UNL     1       5.362   4.730  16.300  0.00  0.00    +0.000 A 
ATOM      4  C   UNL     1       6.434   5.341  16.947  0.00  0.00    +0.000 A 
ATOM      5  C   UNL     1       6.503   5.358  18.344  0.00  0.00    +0.000 A 
ATOM      6  C   UNL     1       5.483   4.732  19.085  0.00  0.00    +0.000 A 
ENDROOT
BRANCH   1  10
ATOM      7  C   UNL     1       1.555   2.952  20.615  0.00  0.00    +0.000 C 
ATOM      8  C   UNL     1       2.338   3.941  19.792  0.00  0.00    +0.000 C 
ATOM      9  O   UNL     1       1.944   5.094  19.660  0.00  0.00    +0.000 OA
ATOM     10  N   UNL     1       3.487   3.391  19.244  0.00  0.00    +0.000 N 
ATOM     11  H   UNL     1       3.594   2.386  19.319  0.00  0.00    +0.000 HD
ENDBRANCH   1  10
BRANCH   4  12
ATOM     12  O   UNL     1       7.427   5.914  16.194  0.00  0.00    +0.000 OA
ATOM     13  H   UNL     1       7.504   5.419  15.355  0.00  0.00    +0.000 HD
ENDBRANCH   4  12
BRANCH   5  14
ATOM     14  C   UNL     1       7.618   5.987  19.114  0.00  0.00    +0.000 C 
ATOM     15  O   UNL     1       8.242   6.944  18.683  0.00  0.00    +0.000 OA
BRANCH  14  16
ATOM     16  O   UNL     1       7.875   5.437  20.317  0.00  0.00    +0.000 OA
ATOM     17  H   UNL     1       8.838   5.349  20.490  0.00  0.00    +0.000 HD
ENDBRANCH  14  16
ENDBRANCH   5  14
TORSDOF 4
ENDMDL
MODEL 4
REMARK VINA RESULT:      -6.3      1.323      1.672
REMARK  Name = 
REMARK  5 active torsions:
REMARK  status: ('A' for Active; 'I' for Inactive)
REMARK    1  A    between atoms: C_1  and  C_2
REMARK    2  A    between atoms: N_4  and  C_5
REMARK    3  A    between atoms: C_8  and  O_9
REMARK    4  A    between atoms: C_10  and  C_11
REMARK    5  A    between atoms: C_11  and  O_13
REMARK                            x       y       z     vdW  Elec       q    Type
REMARK                         _______ _______ _______ _____ _____    ______ ____
ROOT
ATOM      1  C   UNL     1       4.633   4.371  18.025  0.00  0.00    +0.000 A 
ATOM      2  C   UNL     1       4.675   3.786  16.757  0.00  0.00    +0.000 A 
ATOM      3  C   UNL     1       5.643   4.164  15.826  0.00  0.00    +0.000 A 
ATOM      4  C   UNL     1       6.583   5.138  16.158  0.00  0.00    +0.000 A 
ATOM      5  C   UNL     1       6.540   5.767  17.407  0.00  0.00    +0.000 A 
ATOM      6  C   UNL     1       5.547   5.387  18.329  0.00  0.00    +0.000 A 
ENDROOT
BRANCH   1  10
ATOM      7  C   UNL     1       2.729   2.800  20.878  0.00  0.00    +0.000 C 
ATOM      8  C   UNL     1       3.912   2.980  19.964  0.00  0.00    +0.000 C 
ATOM      9  O   UNL     1       4.912   2.282  20.092  0.00  0.00    +0.000 OA
ATOM     10  N   UNL     1       3.717   3.981  19.025  0.00  0.00    +0.000 N 
ATOM     11  H   UNL     1       2.900   4.568  19.145  0.00  0.00    +0.000 HD
ENDBRANCH   1  10
BRANCH   4  12
ATOM     12  O   UNL     1       7.555   5.462  15.248  0.00  0.00    +0.000 OA
ATOM     13  H   UNL     1       7.186   5.358  14.350  0.00  0.00    +0.000 HD
ENDBRANCH   4  12
BRANCH   5  14
ATOM     14  C   UNL     1       7.509   6.817  17.842  0.00  0.00    +0.000 C 
ATOM     15  O   UNL     1       8.176   6.701  18.858  0.00  0.00    +0.000 OA
BRANCH  14  16
ATOM     16  O   UNL     1       7.607   7.888  17.031  0.00  0.00    +0.000 OA
ATOM     17  H   UNL     1       6.728   8.235  16.761  0.00  0.00    +0.000 HD
ENDBRANCH  14  16
ENDBRANCH   5  14
TORSDOF 4
ENDMDL
MODEL 5
REMARK VINA RESULT:      -6.2      1.681      5.208
REMARK  Name = 
REMARK  5 active torsions:
REMARK  status: ('A' for Active; 'I' for Inactive)
REMARK    1  A    between atoms: C_1  and  C_2
REMARK    2  A    between atoms: N_4  and  C_5
REMARK    3  A    between atoms: C_8  and  O_9
REMARK    4  A    between atoms: C_10  and  C_11
REMARK    5  A    between atoms: C_11  and  O_13
REMARK                            x       y       z     vdW  Elec       q    Type
REMARK                         _______ _______ _______ _____ _____    ______ ____
ROOT
ATOM      1  C   UNL     1       4.509   4.430  18.425  0.00  0.00    +0.000 A 
ATOM      2  C   UNL     1       4.149   3.737  17.267  0.00  0.00    +0.000 A 
ATOM      3  C   UNL     1       3.144   2.768  17.296  0.00  0.00    +0.000 A 
ATOM      4  C   UNL     1       2.489   2.483  18.492  0.00  0.00    +0.000 A 
ATOM      5  C   UNL     1       2.856   3.135  19.674  0.00  0.00    +0.000 A 
ATOM      6  C   UNL     1       3.882   4.097  19.632  0.00  0.00    +0.000 A 
ENDROOT
BRANCH   1  10
ATOM      7  C   UNL     1       7.591   6.605  18.370  0.00  0.00    +0.000 C 
ATOM      8  C   UNL     1       6.840   5.302  18.284  0.00  0.00    +0.000 C 
ATOM      9  O   UNL     1       7.437   4.248  18.093  0.00  0.00    +0.000 OA
ATOM     10  N   UNL     1       5.471   5.462  18.439  0.00  0.00    +0.000 N 
ATOM     11  H   UNL     1       5.118   6.411  18.437  0.00  0.00    +0.000 HD
ENDBRANCH   1  10
BRANCH   4  12
ATOM     12  O   UNL     1       1.472   1.563  18.491  0.00  0.00    +0.000 OA
ATOM     13  H   UNL     1       1.851   0.683  18.681  0.00  0.00    +0.000 HD
ENDBRANCH   4  12
BRANCH   5  14
ATOM     14  C   UNL     1       2.204   2.891  20.995  0.00  0.00    +0.000 C 
ATOM     15  O   UNL     1       2.841   2.550  21.979  0.00  0.00    +0.000 OA
BRANCH  14  16
ATOM     16  O   UNL     1       0.871   3.087  21.029  0.00  0.00    +0.000 OA
ATOM     17  H   UNL     1       0.616   3.984  20.718  0.00  0.00    +0.000 HD
ENDBRANCH  14  16
ENDBRANCH   5  14
TORSDOF 4
ENDMDL
MODEL 6
REMARK VINA RESULT:      -6.2      1.250      1.509
REMARK  Name = 
REMARK  5 active torsions:
REMARK  status: ('A' for Active; 'I' for Inactive)
REMARK    1  A    between atoms: C_1  and  C_2
REMARK    2  A    between atoms: N_4  and  C_5
REMARK    3  A    between atoms: C_8  and  O_9
REMARK    4  A    between atoms: C_10  and  C_11
REMARK    5  A    between atoms: C_11  and  O_13
REMARK                            x       y       z     vdW  Elec       q    Type
REMARK                         _______ _______ _______ _____ _____    ______ ____
ROOT
ATOM      1  C   UNL     1       4.208   4.589  18.447  0.00  0.00    +0.000 A 
ATOM      2  C   UNL     1       4.165   4.849  17.076  0.00  0.00    +0.000 A 
ATOM      3  C   UNL     1       5.256   5.427  16.423  0.00  0.00    +0.000 A 
ATOM      4  C   UNL     1       6.403   5.753  17.143  0.00  0.00    +0.000 A 
ATOM      5  C   UNL     1       6.457   5.539  18.525  0.00  0.00    +0.000 A 
ATOM      6  C   UNL     1       5.344   4.970  19.171  0.00  0.00    +0.000 A 
ENDROOT
BRANCH   1  10
ATOM      7  C   UNL     1       1.232   3.600  20.545  0.00  0.00    +0.000 C 
ATOM      8  C   UNL     1       2.196   4.573  19.919  0.00  0.00    +0.000 C 
ATOM      9  O   UNL     1       2.082   5.778  20.115  0.00  0.00    +0.000 OA
ATOM     10  N   UNL     1       3.161   3.949  19.144  0.00  0.00    +0.000 N 
ATOM     11  H   UNL     1       3.030   2.961  18.957  0.00  0.00    +0.000 HD
ENDBRANCH   1  10
BRANCH   4  12
ATOM     12  O   UNL     1       7.481   6.277  16.477  0.00  0.00    +0.000 OA
ATOM     13  H   UNL     1       7.740   7.110  16.915  0.00  0.00    +0.000 HD
ENDBRANCH   4  12
BRANCH   5  14
ATOM     14  C   UNL     1       7.647   5.857  19.369  0.00  0.00    +0.000 C 
ATOM     15  O   UNL     1       7.934   5.200  20.357  0.00  0.00    +0.000 OA
BRANCH  14  16
ATOM     16  O   UNL     1       8.387   6.906  18.957  0.00  0.00    +0.000 OA
ATOM     17  H   UNL     1       8.720   6.791  18.039  0.00  0.00    +0.000 HD
ENDBRANCH  14  16
ENDBRANCH   5  14
TORSDOF 4
ENDMDL
MODEL 7
REMARK VINA RESULT:      -6.2      2.027      3.248
REMARK  Name = 
REMARK  5 active torsions:
REMARK  status: ('A' for Active; 'I' for Inactive)
REMARK    1  A    between atoms: C_1  and  C_2
REMARK    2  A    between atoms: N_4  and  C_5
REMARK    3  A    between atoms: C_8  and  O_9
REMARK    4  A    between atoms: C_10  and  C_11
REMARK    5  A    between atoms: C_11  and  O_13
REMARK                            x       y       z     vdW  Elec       q    Type
REMARK                         _______ _______ _______ _____ _____    ______ ____
ROOT
ATOM      1  C   UNL     1       4.668   4.118  17.733  0.00  0.00    +0.000 A 
ATOM      2  C   UNL     1       5.150   5.122  18.575  0.00  0.00    +0.000 A 
ATOM      3  C   UNL     1       6.167   5.981  18.154  0.00  0.00    +0.000 A 
ATOM      4  C   UNL     1       6.714   5.838  16.881  0.00  0.00    +0.000 A 
ATOM      5  C   UNL     1       6.277   4.816  16.032  0.00  0.00    +0.000 A 
ATOM      6  C   UNL     1       5.262   3.948  16.477  0.00  0.00    +0.000 A 
ENDROOT
BRANCH   1  10
ATOM      7  C   UNL     1       1.367   2.455  18.493  0.00  0.00    +0.000 C 
ATOM      8  C   UNL     1       2.251   3.584  18.032  0.00  0.00    +0.000 C 
ATOM      9  O   UNL     1       1.764   4.647  17.662  0.00  0.00    +0.000 OA
ATOM     10  N   UNL     1       3.600   3.265  18.083  0.00  0.00    +0.000 N 
ATOM     11  H   UNL     1       3.834   2.296  18.266  0.00  0.00    +0.000 HD
ENDBRANCH   1  10
BRANCH   4  12
ATOM     12  O   UNL     1       7.679   6.721  16.469  0.00  0.00    +0.000 OA
ATOM     13  H   UNL     1       8.399   6.722  17.128  0.00  0.00    +0.000 HD
ENDBRANCH   4  12
BRANCH   5  14
ATOM     14  C   UNL     1       6.808   4.596  14.654  0.00  0.00    +0.000 C 
ATOM     15  O   UNL     1       7.603   5.364  14.136  0.00  0.00    +0.000 OA
BRANCH  14  16
ATOM     16  O   UNL     1       6.362   3.487  14.031  0.00  0.00    +0.000 OA
ATOM     17  H   UNL     1       7.037   3.099  13.429  0.00  0.00    +0.000 HD
ENDBRANCH  14  16
ENDBRANCH   5  14
TORSDOF 4
ENDMDL
MODEL 8
REMARK VINA RESULT:      -6.2      1.427      1.706
REMARK  Name = 
REMARK  5 active torsions:
REMARK  status: ('A' for Active; 'I' for Inactive)
REMARK    1  A    between atoms: C_1  and  C_2
REMARK    2  A    between atoms: N_4  and  C_5
REMARK    3  A    between atoms: C_8  and  O_9
REMARK    4  A    between atoms: C_10  and  C_11
REMARK    5  A    between atoms: C_11  and  O_13
REMARK                            x       y       z     vdW  Elec       q    Type
REMARK                         _______ _______ _______ _____ _____    ______ ____
ROOT
ATOM      1  C   UNL     1       4.096   5.713  18.711  0.00  0.00    +0.000 A 
ATOM      2  C   UNL     1       3.943   6.468  17.546  0.00  0.00    +0.000 A 
ATOM      3  C   UNL     1       5.032   6.717  16.707  0.00  0.00    +0.000 A 
ATOM      4  C   UNL     1       6.288   6.211  17.033  0.00  0.00    +0.000 A 
ATOM      5  C   UNL     1       6.476   5.484  18.214  0.00  0.00    +0.000 A 
ATOM      6  C   UNL     1       5.373   5.255  19.056  0.00  0.00    +0.000 A 
ENDROOT
BRANCH   1  10
ATOM      7  C   UNL     1       1.121   4.218  20.487  0.00  0.00    +0.000 C 
ATOM      8  C   UNL     1       2.189   4.275  19.426  0.00  0.00    +0.000 C 
ATOM      9  O   UNL     1       2.263   3.403  18.567  0.00  0.00    +0.000 OA
ATOM     10  N   UNL     1       3.019   5.378  19.559  0.00  0.00    +0.000 N 
ATOM     11  H   UNL     1       2.924   5.922  20.408  0.00  0.00    +0.000 HD
ENDBRANCH   1  10
BRANCH   4  12
ATOM     12  O   UNL     1       7.335   6.425  16.173  0.00  0.00    +0.000 OA
ATOM     13  H   UNL     1       8.169   6.278  16.659  0.00  0.00    +0.000 HD
ENDBRANCH   4  12
BRANCH   5  14
ATOM     14  C   UNL     1       7.787   4.906  18.634  0.00  0.00    +0.000 C 
ATOM     15  O   UNL     1       8.305   5.185  19.703  0.00  0.00    +0.000 OA
BRANCH  14  16
ATOM     16  O   UNL     1       8.348   4.046  17.761  0.00  0.00    +0.000 OA
ATOM     17  H   UNL     1       7.794   3.909  16.961  0.00  0.00    +0.000 HD
ENDBRANCH  14  16
ENDBRANCH   5  14
TORSDOF 4
ENDMDL
MODEL 9
REMARK VINA RESULT:      -6.1      1.899      3.157
REMARK  Name = 
REMARK  5 active torsions:
REMARK  status: ('A' for Active; 'I' for Inactive)
REMARK    1  A    between atoms: C_1  and  C_2
REMARK    2  A    between atoms: N_4  and  C_5
REMARK    3  A    between atoms: C_8  and  O_9
REMARK    4  A    between atoms: C_10  and  C_11
REMARK    5  A    between atoms: C_11  and  O_13
REMARK                            x       y       z     vdW  Elec       q    Type
REMARK                         _______ _______ _______ _____ _____    ______ ____
ROOT
ATOM      1  C   UNL     1       4.235   4.549  17.402  0.00  0.00    +0.000 A 
ATOM      2  C   UNL     1       4.739   5.525  18.264  0.00  0.00    +0.000 A 
ATOM      3  C   UNL     1       5.899   6.233  17.945  0.00  0.00    +0.000 A 
ATOM      4  C   UNL     1       6.568   5.966  16.752  0.00  0.00    +0.000 A 
ATOM      5  C   UNL     1       6.107   4.967  15.889  0.00  0.00    +0.000 A 
ATOM      6  C   UNL     1       4.946   4.250  16.233  0.00  0.00    +0.000 A 
ENDROOT
BRANCH   1  10
ATOM      7  C   UNL     1       1.462   2.258  18.542  0.00  0.00    +0.000 C 
ATOM      8  C   UNL     1       2.868   2.799  18.535  0.00  0.00    +0.000 C 
ATOM      9  O   UNL     1       3.726   2.317  19.266  0.00  0.00    +0.000 OA
ATOM     10  N   UNL     1       3.034   3.849  17.645  0.00  0.00    +0.000 N 
ATOM     11  H   UNL     1       2.194   4.231  17.225  0.00  0.00    +0.000 HD
ENDBRANCH   1  10
BRANCH   4  12
ATOM     12  O   UNL     1       7.679   6.705  16.433  0.00  0.00    +0.000 OA
ATOM     13  H   UNL     1       7.579   7.033  15.519  0.00  0.00    +0.000 HD
ENDBRANCH   4  12
BRANCH   5  14
ATOM     14  C   UNL     1       6.763   4.621  14.593  0.00  0.00    +0.000 C 
ATOM     15  O   UNL     1       7.631   5.323  14.098  0.00  0.00    +0.000 OA
BRANCH  14  16
ATOM     16  O   UNL     1       6.344   3.477  14.017  0.00  0.00    +0.000 OA
ATOM     17  H   UNL     1       6.630   2.680  14.516  0.00  0.00    +0.000 HD
ENDBRANCH  14  16
ENDBRANCH   5  14
TORSDOF 4
ENDMDL
