MODEL 1
REMARK VINA RESULT:      -6.9      0.000      0.000
REMARK  Name = 
REMARK  9 active torsions:
REMARK  status: ('A' for Active; 'I' for Inactive)
REMARK    1  A    between atoms: C_1  and  C_2
REMARK    2  A    between atoms: C_2  and  C_3
REMARK    3  A    between atoms: C_3  and  C_4
REMARK    4  A    between atoms: C_7  and  C_8
REMARK    5  A    between atoms: C_8  and  N_9
REMARK    6  A    between atoms: C_11  and  C_12
REMARK    7  A    between atoms: C_12  and  C_13
REMARK    8  A    between atoms: C_15  and  C_16
REMARK    9  A    between atoms: C_16  and  C_17
REMARK                            x       y       z     vdW  Elec       q    Type
REMARK                         _______ _______ _______ _____ _____    ______ ____
ROOT
ATOM      1  C   UNL     1       4.502   5.956  17.612  0.00  0.00    +0.000 C 
ENDROOT
BRANCH   1   5
ATOM      2  C   UNL     1       2.784   3.093  18.800  0.00  0.00    +0.000 A 
ATOM      3  N   UNL     1       4.036   2.681  19.024  0.00  0.00    +0.000 NA
ATOM      4  O   UNL     1       4.814   3.737  18.541  0.00  0.00    +0.000 OA
ATOM      5  C   UNL     1       3.940   4.676  18.073  0.00  0.00    +0.000 A 
ATOM      6  N   UNL     1       2.679   4.324  18.202  0.00  0.00    +0.000 NA
BRANCH   2   7
ATOM      7  C   UNL     1       1.589   2.328  19.236  0.00  0.00    +0.000 C 
BRANCH   7   9
ATOM      8  C   UNL     1       1.623   2.828  21.701  0.00  0.00    +0.000 C 
ATOM      9  C   UNL     1       0.855   2.996  20.399  0.00  0.00    +0.000 C 
ENDBRANCH   7   9
ENDBRANCH   2   7
ENDBRANCH   1   5
BRANCH   1  10
ATOM     10  N   UNL     1       5.600   5.773  16.685  0.00  0.00    +0.000 N 
ATOM     11  N   UNL     1       5.354   5.148  15.509  0.00  0.00    +0.000 NA
ATOM     12  C   UNL     1       6.575   5.062  14.980  0.00  0.00    +0.000 A 
ATOM     13  N   UNL     1       7.573   5.561  15.769  0.00  0.00    +0.000 NA
ATOM     14  C   UNL     1       6.943   6.021  16.832  0.00  0.00    +0.000 A 
BRANCH  12  15
ATOM     15  C   UNL     1       6.832   4.516  13.624  0.00  0.00    +0.000 C 
ATOM     16  C   UNL     1       5.662   3.681  13.125  0.00  0.00    +0.000 C 
ENDBRANCH  12  15
BRANCH  14  17
ATOM     17  C   UNL     1       7.604   6.782  17.932  0.00  0.00    +0.000 C 
ATOM     18  C   UNL     1       7.829   8.255  17.644  0.00  0.00    +0.000 C 
ENDBRANCH  14  17
ENDBRANCH   1  10
TORSDOF 6
ENDMDL
MODEL 2
REMARK VINA RESULT:      -6.9      1.772      6.005
REMARK  Name = 
REMARK  9 active torsions:
REMARK  status: ('A' for Active; 'I' for Inactive)
REMARK    1  A    between atoms: C_1  and  C_2
REMARK    2  A    between atoms: C_2  and  C_3
REMARK    3  A    between atoms: C_3  and  C_4
REMARK    4  A    between atoms: C_7  and  C_8
REMARK    5  A    between atoms: C_8  and  N_9
REMARK    6  A    between atoms: C_11  and  C_12
REMARK    7  A    between atoms: C_12  and  C_13
REMARK    8  A    between atoms: C_15  and  C_16
REMARK    9  A    between atoms: C_16  and  C_17
REMARK                            x       y       z     vdW  Elec       q    Type
REMARK                         _______ _______ _______ _____ _____    ______ ____
ROOT
ATOM      1  C   UNL     1       6.182   4.683  17.826  0.00  0.00    +0.000 C 
ENDROOT
BRANCH   1   5
ATOM      2  C   UNL     1       6.576   4.379  14.317  0.00  0.00    +0.000 A 
ATOM      3  N   UNL     1       7.411   5.404  14.523  0.00  0.00    +0.000 NA
ATOM      4  O   UNL     1       7.297   5.641  15.896  0.00  0.00    +0.000 OA
ATOM      5  C   UNL     1       6.398   4.729  16.370  0.00  0.00    +0.000 A 
ATOM      6  N   UNL     1       5.920   3.936  15.437  0.00  0.00    +0.000 NA
BRANCH   2   7
ATOM      7  C   UNL     1       6.426   3.710  13.002  0.00  0.00    +0.000 C 
BRANCH   7   9
ATOM      8  C   UNL     1       4.804   2.715  11.357  0.00  0.00    +0.000 C 
ATOM      9  C   UNL     1       4.977   3.687  12.514  0.00  0.00    +0.000 C 
ENDBRANCH   7   9
ENDBRANCH   2   7
ENDBRANCH   1   5
BRANCH   1  10
ATOM     10  N   UNL     1       4.776   4.646  18.173  0.00  0.00    +0.000 N 
ATOM     11  N   UNL     1       4.273   3.505  18.702  0.00  0.00    +0.000 NA
ATOM     12  C   UNL     1       2.973   3.791  18.789  0.00  0.00    +0.000 A 
ATOM     13  N   UNL     1       2.628   5.025  18.314  0.00  0.00    +0.000 NA
ATOM     14  C   UNL     1       3.776   5.559  17.944  0.00  0.00    +0.000 A 
BRANCH  12  15
ATOM     15  C   UNL     1       1.983   2.870  19.399  0.00  0.00    +0.000 C 
ATOM     16  C   UNL     1       1.412   3.435  20.691  0.00  0.00    +0.000 C 
ENDBRANCH  12  15
BRANCH  14  17
ATOM     17  C   UNL     1       3.930   6.966  17.472  0.00  0.00    +0.000 C 
ATOM     18  C   UNL     1       2.770   7.884  17.811  0.00  0.00    +0.000 C 
ENDBRANCH  14  17
ENDBRANCH   1  10
TORSDOF 6
ENDMDL
MODEL 3
REMARK VINA RESULT:      -6.8      2.309      6.321
REMARK  Name = 
REMARK  9 active torsions:
REMARK  status: ('A' for Active; 'I' for Inactive)
REMARK    1  A    between atoms: C_1  and  C_2
REMARK    2  A    between atoms: C_2  and  C_3
REMARK    3  A    between atoms: C_3  and  C_4
REMARK    4  A    between atoms: C_7  and  C_8
REMARK    5  A    between atoms: C_8  and  N_9
REMARK    6  A    between atoms: C_11  and  C_12
REMARK    7  A    between atoms: C_12  and  C_13
REMARK    8  A    between atoms: C_15  and  C_16
REMARK    9  A    between atoms: C_16  and  C_17
REMARK                            x       y       z     vdW  Elec       q    Type
REMARK                         _______ _______ _______ _____ _____    ______ ____
ROOT
ATOM      1  C   UNL     1       6.264   4.568  17.133  0.00  0.00    +0.000 C 
ENDROOT
BRANCH   1   5
ATOM      2  C   UNL     1       6.767   4.400  13.629  0.00  0.00    +0.000 A 
ATOM      3  N   UNL     1       7.709   5.303  13.922  0.00  0.00    +0.000 NA
ATOM      4  O   UNL     1       7.566   5.481  15.302  0.00  0.00    +0.000 OA
ATOM      5  C   UNL     1       6.545   4.663  15.691  0.00  0.00    +0.000 A 
ATOM      6  N   UNL     1       6.015   3.983  14.698  0.00  0.00    +0.000 NA
BRANCH   2   7
ATOM      7  C   UNL     1       6.593   3.822  12.274  0.00  0.00    +0.000 C 
BRANCH   7   9
ATOM      8  C   UNL     1       4.278   3.394  11.391  0.00  0.00    +0.000 C 
ATOM      9  C   UNL     1       5.434   2.828  12.201  0.00  0.00    +0.000 C 
ENDBRANCH   7   9
ENDBRANCH   2   7
ENDBRANCH   1   5
BRANCH   1  10
ATOM     10  N   UNL     1       4.885   4.883  17.447  0.00  0.00    +0.000 N 
ATOM     11  N   UNL     1       4.554   6.178  17.669  0.00  0.00    +0.000 NA
ATOM     12  C   UNL     1       3.273   6.078  18.026  0.00  0.00    +0.000 A 
ATOM     13  N   UNL     1       2.794   4.799  18.077  0.00  0.00    +0.000 NA
ATOM     14  C   UNL     1       3.816   4.058  17.693  0.00  0.00    +0.000 A 
BRANCH  12  15
ATOM     15  C   UNL     1       2.416   7.259  18.298  0.00  0.00    +0.000 C 
ATOM     16  C   UNL     1       2.118   7.406  19.783  0.00  0.00    +0.000 C 
ENDBRANCH  12  15
BRANCH  14  17
ATOM     17  C   UNL     1       3.741   2.585  17.466  0.00  0.00    +0.000 C 
ATOM     18  C   UNL     1       3.285   1.776  18.665  0.00  0.00    +0.000 C 
ENDBRANCH  14  17
ENDBRANCH   1  10
TORSDOF 6
ENDMDL
MODEL 4
REMARK VINA RESULT:      -6.8      1.025      1.077
REMARK  Name = 
REMARK  9 active torsions:
REMARK  status: ('A' for Active; 'I' for Inactive)
REMARK    1  A    between atoms: C_1  and  C_2
REMARK    2  A    between atoms: C_2  and  C_3
REMARK    3  A    between atoms: C_3  and  C_4
REMARK    4  A    between atoms: C_7  and  C_8
REMARK    5  A    between atoms: C_8  and  N_9
REMARK    6  A    between atoms: C_11  and  C_12
REMARK    7  A    between atoms: C_12  and  C_13
REMARK    8  A    between atoms: C_15  and  C_16
REMARK    9  A    between atoms: C_16  and  C_17
REMARK                            x       y       z     vdW  Elec       q    Type
REMARK                         _______ _______ _______ _____ _____    ______ ____
ROOT
ATOM      1  C   UNL     1       4.466   6.040  17.164  0.00  0.00    +0.000 C 
ENDROOT
BRANCH   1   5
ATOM      2  C   UNL     1       2.131   3.629  18.301  0.00  0.00    +0.000 A 
ATOM      3  N   UNL     1       2.774   2.875  17.403  0.00  0.00    +0.000 NA
ATOM      4  O   UNL     1       3.707   3.758  16.850  0.00  0.00    +0.000 OA
ATOM      5  C   UNL     1       3.521   4.956  17.479  0.00  0.00    +0.000 A 
ATOM      6  N   UNL     1       2.558   4.931  18.373  0.00  0.00    +0.000 NA
BRANCH   2   7
ATOM      7  C   UNL     1       1.093   3.091  19.214  0.00  0.00    +0.000 C 
BRANCH   7   9
ATOM      8  C   UNL     1       1.576   2.762  21.660  0.00  0.00    +0.000 C 
ATOM      9  C   UNL     1       1.124   3.748  20.594  0.00  0.00    +0.000 C 
ENDBRANCH   7   9
ENDBRANCH   2   7
ENDBRANCH   1   5
BRANCH   1  10
ATOM     10  N   UNL     1       5.606   5.573  16.402  0.00  0.00    +0.000 N 
ATOM     11  N   UNL     1       5.465   5.412  15.065  0.00  0.00    +0.000 NA
ATOM     12  C   UNL     1       6.641   4.883  14.724  0.00  0.00    +0.000 A 
ATOM     13  N   UNL     1       7.494   4.669  15.771  0.00  0.00    +0.000 NA
ATOM     14  C   UNL     1       6.835   5.124  16.820  0.00  0.00    +0.000 A 
BRANCH  12  15
ATOM     15  C   UNL     1       7.021   4.594  13.319  0.00  0.00    +0.000 C 
ATOM     16  C   UNL     1       6.168   3.483  12.724  0.00  0.00    +0.000 C 
ENDBRANCH  12  15
BRANCH  14  17
ATOM     17  C   UNL     1       7.413   5.224  18.191  0.00  0.00    +0.000 C 
ATOM     18  C   UNL     1       7.919   6.602  18.573  0.00  0.00    +0.000 C 
ENDBRANCH  14  17
ENDBRANCH   1  10
TORSDOF 6
ENDMDL
MODEL 5
REMARK VINA RESULT:      -6.7      1.123      1.155
REMARK  Name = 
REMARK  9 active torsions:
REMARK  status: ('A' for Active; 'I' for Inactive)
REMARK    1  A    between atoms: C_1  and  C_2
REMARK    2  A    between atoms: C_2  and  C_3
REMARK    3  A    between atoms: C_3  and  C_4
REMARK    4  A    between atoms: C_7  and  C_8
REMARK    5  A    between atoms: C_8  and  N_9
REMARK    6  A    between atoms: C_11  and  C_12
REMARK    7  A    between atoms: C_12  and  C_13
REMARK    8  A    between atoms: C_15  and  C_16
REMARK    9  A    between atoms: C_16  and  C_17
REMARK                            x       y       z     vdW  Elec       q    Type
REMARK                         _______ _______ _______ _____ _____    ______ ____
ROOT
ATOM      1  C   UNL     1       5.838   5.180  19.097  0.00  0.00    +0.000 C 
ENDROOT
BRANCH   1   5
ATOM      2  C   UNL     1       3.069   2.987  18.805  0.00  0.00    +0.000 A 
ATOM      3  N   UNL     1       3.873   2.197  19.526  0.00  0.00    +0.000 NA
ATOM      4  O   UNL     1       5.036   2.962  19.663  0.00  0.00    +0.000 OA
ATOM      5  C   UNL     1       4.805   4.135  19.005  0.00  0.00    +0.000 A 
ATOM      6  N   UNL     1       3.613   4.197  18.453  0.00  0.00    +0.000 NA
BRANCH   2   7
ATOM      7  C   UNL     1       1.667   2.631  18.479  0.00  0.00    +0.000 C 
BRANCH   7   9
ATOM      8  C   UNL     1       0.982   4.078  20.418  0.00  0.00    +0.000 C 
ATOM      9  C   UNL     1       0.728   2.775  19.677  0.00  0.00    +0.000 C 
ENDBRANCH   7   9
ENDBRANCH   2   7
ENDBRANCH   1   5
BRANCH   1  10
ATOM     10  N   UNL     1       6.418   5.496  17.807  0.00  0.00    +0.000 N 
ATOM     11  N   UNL     1       6.067   4.740  16.740  0.00  0.00    +0.000 NA
ATOM     12  C   UNL     1       6.854   5.232  15.782  0.00  0.00    +0.000 A 
ATOM     13  N   UNL     1       7.700   6.223  16.193  0.00  0.00    +0.000 NA
ATOM     14  C   UNL     1       7.404   6.391  17.467  0.00  0.00    +0.000 A 
BRANCH  12  15
ATOM     15  C   UNL     1       6.785   4.782  14.369  0.00  0.00    +0.000 C 
ATOM     16  C   UNL     1       5.504   4.011  14.088  0.00  0.00    +0.000 C 
ENDBRANCH  12  15
BRANCH  14  17
ATOM     17  C   UNL     1       7.982   7.464  18.327  0.00  0.00    +0.000 C 
ATOM     18  C   UNL     1       7.966   8.851  17.712  0.00  0.00    +0.000 C 
ENDBRANCH  14  17
ENDBRANCH   1  10
TORSDOF 6
ENDMDL
MODEL 6
REMARK VINA RESULT:      -6.7      1.265      1.455
REMARK  Name = 
REMARK  9 active torsions:
REMARK  status: ('A' for Active; 'I' for Inactive)
REMARK    1  A    between atoms: C_1  and  C_2
REMARK    2  A    between atoms: C_2  and  C_3
REMARK    3  A    between atoms: C_3  and  C_4
REMARK    4  A    between atoms: C_7  and  C_8
REMARK    5  A    between atoms: C_8  and  N_9
REMARK    6  A    between atoms: C_11  and  C_12
REMARK    7  A    between atoms: C_12  and  C_13
REMARK    8  A    between atoms: C_15  and  C_16
REMARK    9  A    between atoms: C_16  and  C_17
REMARK                            x       y       z     vdW  Elec       q    Type
REMARK                         _______ _______ _______ _____ _____    ______ ____
ROOT
ATOM      1  C   UNL     1       6.316   4.536  18.953  0.00  0.00    +0.000 C 
ENDROOT
BRANCH   1   5
ATOM      2  C   UNL     1       2.800   4.183  19.221  0.00  0.00    +0.000 A 
ATOM      3  N   UNL     1       2.893   5.484  19.518  0.00  0.00    +0.000 NA
ATOM      4  O   UNL     1       4.270   5.725  19.485  0.00  0.00    +0.000 OA
ATOM      5  C   UNL     1       4.860   4.534  19.171  0.00  0.00    +0.000 A 
ATOM      6  N   UNL     1       4.000   3.553  19.007  0.00  0.00    +0.000 NA
BRANCH   2   7
ATOM      7  C   UNL     1       1.504   3.483  19.048  0.00  0.00    +0.000 C 
BRANCH   7   9
ATOM      8  C   UNL     1       1.441   2.681  21.431  0.00  0.00    +0.000 C 
ATOM      9  C   UNL     1       0.688   3.427  20.340  0.00  0.00    +0.000 C 
ENDBRANCH   7   9
ENDBRANCH   2   7
ENDBRANCH   1   5
BRANCH   1  10
ATOM     10  N   UNL     1       6.679   5.084  17.662  0.00  0.00    +0.000 N 
ATOM     11  N   UNL     1       6.351   4.384  16.550  0.00  0.00    +0.000 NA
ATOM     12  C   UNL     1       6.920   5.112  15.588  0.00  0.00    +0.000 A 
ATOM     13  N   UNL     1       7.615   6.202  16.033  0.00  0.00    +0.000 NA
ATOM     14  C   UNL     1       7.440   6.181  17.341  0.00  0.00    +0.000 A 
BRANCH  12  15
ATOM     15  C   UNL     1       6.774   4.799  14.145  0.00  0.00    +0.000 C 
ATOM     16  C   UNL     1       5.608   3.855  13.891  0.00  0.00    +0.000 C 
ENDBRANCH  12  15
BRANCH  14  17
ATOM     17  C   UNL     1       7.909   7.256  18.263  0.00  0.00    +0.000 C 
ATOM     18  C   UNL     1       7.876   8.656  17.681  0.00  0.00    +0.000 C 
ENDBRANCH  14  17
ENDBRANCH   1  10
TORSDOF 6
ENDMDL
MODEL 7
REMARK VINA RESULT:      -6.7      1.649      5.880
REMARK  Name = 
REMARK  9 active torsions:
REMARK  status: ('A' for Active; 'I' for Inactive)
REMARK    1  A    between atoms: C_1  and  C_2
REMARK    2  A    between atoms: C_2  and  C_3
REMARK    3  A    between atoms: C_3  and  C_4
REMARK    4  A    between atoms: C_7  and  C_8
REMARK    5  A    between atoms: C_8  and  N_9
REMARK    6  A    between atoms: C_11  and  C_12
REMARK    7  A    between atoms: C_12  and  C_13
REMARK    8  A    between atoms: C_15  and  C_16
REMARK    9  A    between atoms: C_16  and  C_17
REMARK                            x       y       z     vdW  Elec       q    Type
REMARK                         _______ _______ _______ _____ _____    ______ ____
ROOT
ATOM      1  C   UNL     1       5.640   5.472  19.272  0.00  0.00    +0.000 C 
ENDROOT
BRANCH   1   5
ATOM      2  C   UNL     1       7.036   4.890  16.068  0.00  0.00    +0.000 A 
ATOM      3  N   UNL     1       7.953   4.250  16.804  0.00  0.00    +0.000 NA
ATOM      4  O   UNL     1       7.515   4.459  18.116  0.00  0.00    +0.000 OA
ATOM      5  C   UNL     1       6.377   5.208  18.026  0.00  0.00    +0.000 A 
ATOM      6  N   UNL     1       6.045   5.506  16.789  0.00  0.00    +0.000 NA
BRANCH   2   7
ATOM      7  C   UNL     1       7.032   4.869  14.585  0.00  0.00    +0.000 C 
BRANCH   7   9
ATOM      8  C   UNL     1       6.342   3.595  12.530  0.00  0.00    +0.000 C 
ATOM      9  C   UNL     1       6.084   3.815  14.013  0.00  0.00    +0.000 C 
ENDBRANCH   7   9
ENDBRANCH   2   7
ENDBRANCH   1   5
BRANCH   1  10
ATOM     10  N   UNL     1       4.286   4.955  19.232  0.00  0.00    +0.000 N 
ATOM     11  N   UNL     1       4.084   3.653  19.545  0.00  0.00    +0.000 NA
ATOM     12  C   UNL     1       2.781   3.509  19.300  0.00  0.00    +0.000 A 
ATOM     13  N   UNL     1       2.165   4.630  18.818  0.00  0.00    +0.000 NA
ATOM     14  C   UNL     1       3.122   5.538  18.796  0.00  0.00    +0.000 A 
BRANCH  12  15
ATOM     15  C   UNL     1       2.041   2.252  19.574  0.00  0.00    +0.000 C 
ATOM     16  C   UNL     1       0.711   2.213  18.837  0.00  0.00    +0.000 C 
ENDBRANCH  12  15
BRANCH  14  17
ATOM     17  C   UNL     1       2.903   6.975  18.460  0.00  0.00    +0.000 C 
ATOM     18  C   UNL     1       2.114   7.759  19.492  0.00  0.00    +0.000 C 
ENDBRANCH  14  17
ENDBRANCH   1  10
TORSDOF 6
ENDMDL
MODEL 8
REMARK VINA RESULT:      -6.7      1.034      1.176
REMARK  Name = 
REMARK  9 active torsions:
REMARK  status: ('A' for Active; 'I' for Inactive)
REMARK    1  A    between atoms: C_1  and  C_2
REMARK    2  A    between atoms: C_2  and  C_3
REMARK    3  A    between atoms: C_3  and  C_4
REMARK    4  A    between atoms: C_7  and  C_8
REMARK    5  A    between atoms: C_8  and  N_9
REMARK    6  A    between atoms: C_11  and  C_12
REMARK    7  A    between atoms: C_12  and  C_13
REMARK    8  A    between atoms: C_15  and  C_16
REMARK    9  A    between atoms: C_16  and  C_17
REMARK                            x       y       z     vdW  Elec       q    Type
REMARK                         _______ _______ _______ _____ _____    ______ ____
ROOT
ATOM      1  C   UNL     1       4.408   6.804  17.094  0.00  0.00    +0.000 C 
ENDROOT
BRANCH   1   5
ATOM      2  C   UNL     1       2.477   4.648  19.138  0.00  0.00    +0.000 A 
ATOM      3  N   UNL     1       3.572   4.720  19.903  0.00  0.00    +0.000 NA
ATOM      4  O   UNL     1       4.435   5.527  19.155  0.00  0.00    +0.000 OA
ATOM      5  C   UNL     1       3.762   5.853  18.013  0.00  0.00    +0.000 A 
ATOM      6  N   UNL     1       2.557   5.330  17.950  0.00  0.00    +0.000 NA
BRANCH   2   7
ATOM      7  C   UNL     1       1.235   3.958  19.565  0.00  0.00    +0.000 C 
BRANCH   7   9
ATOM      8  C   UNL     1       1.495   2.683  21.717  0.00  0.00    +0.000 C 
ATOM      9  C   UNL     1       1.507   2.594  20.199  0.00  0.00    +0.000 C 
ENDBRANCH   7   9
ENDBRANCH   2   7
ENDBRANCH   1   5
BRANCH   1  10
ATOM     10  N   UNL     1       5.490   6.198  16.344  0.00  0.00    +0.000 N 
ATOM     11  N   UNL     1       5.178   5.375  15.315  0.00  0.00    +0.000 NA
ATOM     12  C   UNL     1       6.380   4.931  14.943  0.00  0.00    +0.000 A 
ATOM     13  N   UNL     1       7.419   5.397  15.700  0.00  0.00    +0.000 NA
ATOM     14  C   UNL     1       6.845   6.207  16.568  0.00  0.00    +0.000 A 
BRANCH  12  15
ATOM     15  C   UNL     1       6.587   4.043  13.772  0.00  0.00    +0.000 C 
ATOM     16  C   UNL     1       5.297   3.835  12.992  0.00  0.00    +0.000 C 
ENDBRANCH  12  15
BRANCH  14  17
ATOM     17  C   UNL     1       7.593   7.061  17.536  0.00  0.00    +0.000 C 
ATOM     18  C   UNL     1       7.922   6.392  18.857  0.00  0.00    +0.000 C 
ENDBRANCH  14  17
ENDBRANCH   1  10
TORSDOF 6
ENDMDL
MODEL 9
REMARK VINA RESULT:      -6.7      1.325      1.815
REMARK  Name = 
REMARK  9 active torsions:
REMARK  status: ('A' for Active; 'I' for Inactive)
REMARK    1  A    between atoms: C_1  and  C_2
REMARK    2  A    between atoms: C_2  and  C_3
REMARK    3  A    between atoms: C_3  and  C_4
REMARK    4  A    between atoms: C_7  and  C_8
REMARK    5  A    between atoms: C_8  and  N_9
REMARK    6  A    between atoms: C_11  and  C_12
REMARK    7  A    between atoms: C_12  and  C_13
REMARK    8  A    between atoms: C_15  and  C_16
REMARK    9  A    between atoms: C_16  and  C_17
REMARK                            x       y       z     vdW  Elec       q    Type
REMARK                         _______ _______ _______ _____ _____    ______ ____
ROOT
ATOM      1  C   UNL     1       5.884   4.301  18.805  0.00  0.00    +0.000 C 
ENDROOT
BRANCH   1   5
ATOM      2  C   UNL     1       2.530   4.952  19.742  0.00  0.00    +0.000 A 
ATOM      3  N   UNL     1       2.667   5.908  18.816  0.00  0.00    +0.000 NA
ATOM      4  O   UNL     1       3.996   5.768  18.403  0.00  0.00    +0.000 OA
ATOM      5  C   UNL     1       4.517   4.738  19.132  0.00  0.00    +0.000 A 
ATOM      6  N   UNL     1       3.659   4.208  19.975  0.00  0.00    +0.000 NA
BRANCH   2   7
ATOM      7  C   UNL     1       1.240   4.652  20.411  0.00  0.00    +0.000 C 
BRANCH   7   9
ATOM      8  C   UNL     1       0.809   2.591  19.037  0.00  0.00    +0.000 C 
ATOM      9  C   UNL     1       0.927   3.157  20.444  0.00  0.00    +0.000 C 
ENDBRANCH   7   9
ENDBRANCH   2   7
ENDBRANCH   1   5
BRANCH   1  10
ATOM     10  N   UNL     1       6.333   4.809  17.524  0.00  0.00    +0.000 N 
ATOM     11  N   UNL     1       5.975   4.140  16.403  0.00  0.00    +0.000 NA
ATOM     12  C   UNL     1       6.637   4.809  15.458  0.00  0.00    +0.000 A 
ATOM     13  N   UNL     1       7.415   5.832  15.923  0.00  0.00    +0.000 NA
ATOM     14  C   UNL     1       7.201   5.831  17.225  0.00  0.00    +0.000 A 
BRANCH  12  15
ATOM     15  C   UNL     1       6.505   4.507  14.011  0.00  0.00    +0.000 C 
ATOM     16  C   UNL     1       7.657   5.092  13.208  0.00  0.00    +0.000 C 
ENDBRANCH  12  15
BRANCH  14  17
ATOM     17  C   UNL     1       7.740   6.860  18.161  0.00  0.00    +0.000 C 
ATOM     18  C   UNL     1       7.800   8.267  17.597  0.00  0.00    +0.000 C 
ENDBRANCH  14  17
ENDBRANCH   1  10
TORSDOF 6
ENDMDL
