MODEL 1
REMARK VINA RESULT:      -8.7      0.000      0.000
REMARK  Name = 
REMARK  8 active torsions:
REMARK  status: ('A' for Active; 'I' for Inactive)
REMARK    1  A    between atoms: C_1  and  C_2
REMARK    2  A    between atoms: C_3  and  C_4
REMARK    3  A    between atoms: C_4  and  N_5
REMARK    4  A    between atoms: C_11  and  N_12
REMARK    5  A    between atoms: N_19  and  C_20
REMARK    6  A    between atoms: C_20  and  C_21
REMARK    7  A    between atoms: C_29  and  C_30
REMARK    8  A    between atoms: N_34  and  C_35
REMARK                            x       y       z     vdW  Elec       q    Type
REMARK                         _______ _______ _______ _____ _____    ______ ____
ROOT
ATOM      1  N   UNL     1       2.481   7.367  18.487  0.00  0.00    +0.000 N 
ATOM      2  C   UNL     1       2.318   6.450  19.586  0.00  0.00    +0.000 A 
ATOM      3  N   UNL     1       2.586   5.098  19.616  0.00  0.00    +0.000 N 
ATOM      4  C   UNL     1       2.614   4.238  18.447  0.00  0.00    +0.000 C 
ATOM      5  C   UNL     1       1.451   3.258  18.430  0.00  0.00    +0.000 C 
ATOM      6  C   UNL     1       1.420   2.405  19.681  0.00  0.00    +0.000 C 
ATOM      7  C   UNL     1       1.352   3.307  20.920  0.00  0.00    +0.000 C 
ATOM      8  C   UNL     1       2.513   4.352  20.911  0.00  0.00    +0.000 C 
ATOM      9  N   UNL     1       1.862   7.094  20.647  0.00  0.00    +0.000 NA
ATOM     10  C   UNL     1       1.590   8.368  20.283  0.00  0.00    +0.000 A 
ATOM     11  C   UNL     1       1.931   8.617  18.970  0.00  0.00    +0.000 A 
ATOM     12  C   UNL     1       1.691   9.967  18.429  0.00  0.00    +0.000 A 
ATOM     13  O   UNL     1       2.066  10.297  17.331  0.00  0.00    +0.000 OA
ATOM     14  N   UNL     1       1.006  10.867  19.330  0.00  0.00    +0.000 N 
ATOM     15  C   UNL     1       0.670  10.570  20.658  0.00  0.00    +0.000 A 
ATOM     16  O   UNL     1       0.114  11.409  21.379  0.00  0.00    +0.000 OA
ATOM     17  N   UNL     1       1.008   9.300  21.125  0.00  0.00    +0.000 N 
ATOM     18  C   UNL     1       0.678   8.975  22.513  0.00  0.00    +0.000 C 
ENDROOT
BRANCH   7  19
ATOM     19  N   UNL     1       1.337   2.439  22.112  0.00  0.00    +0.000 NA
ATOM     20  H   UNL     1       2.288   2.296  22.452  0.00  0.00    +0.000 HD
ATOM     21  H   UNL     1       1.002   1.512  21.843  0.00  0.00    +0.000 HD
ENDBRANCH   7  19
BRANCH   1  22
ATOM     22  C   UNL     1       3.217   7.040  17.129  0.00  0.00    +0.000 C 
BRANCH  22  25
ATOM     23  C   UNL     1       7.408   6.649  17.936  0.00  0.00    +0.000 C 
ATOM     24  C   UNL     1       5.978   6.779  17.660  0.00  0.00    +0.000 C 
ATOM     25  C   UNL     1       4.703   6.900  17.415  0.00  0.00    +0.000 C 
ENDBRANCH  22  25
ENDBRANCH   1  22
BRANCH  14  26
ATOM     26  C   UNL     1       0.835  12.318  19.008  0.00  0.00    +0.000 C 
BRANCH  26  27
ATOM     27  C   UNL     1       1.843  13.491  19.234  0.00  0.00    +0.000 C 
ATOM     28  N   UNL     1       2.659  13.423  20.264  0.00  0.00    +0.000 NA
ATOM     29  C   UNL     1       3.333  14.761  20.234  0.00  0.00    +0.000 C 
ATOM     30  C   UNL     1       4.457  14.736  18.701  0.00  0.00    +0.000 C 
ATOM     31  C   UNL     1       4.185  15.535  17.534  0.00  0.00    +0.000 C 
ATOM     32  C   UNL     1       2.916  16.703  17.401  0.00  0.00    +0.000 C 
ATOM     33  C   UNL     1       1.868  16.891  18.474  0.00  0.00    +0.000 C 
ATOM     34  C   UNL     1       1.784  15.933  20.181  0.00  0.00    +0.000 C 
ATOM     35  C   UNL     1       2.613  15.666  19.215  0.00  0.00    +0.000 C 
ATOM     36  C   UNL     1       3.819  17.115  19.641  0.00  0.00    +0.000 C 
ATOM     37  N   UNL     1       2.075  14.609  18.419  0.00  0.00    +0.000 NA
ENDBRANCH  26  27
ENDBRANCH  14  26
TORSDOF 5
ENDMDL
MODEL 2
REMARK VINA RESULT:      -8.6      0.557      1.019
REMARK  Name = 
REMARK  8 active torsions:
REMARK  status: ('A' for Active; 'I' for Inactive)
REMARK    1  A    between atoms: C_1  and  C_2
REMARK    2  A    between atoms: C_3  and  C_4
REMARK    3  A    between atoms: C_4  and  N_5
REMARK    4  A    between atoms: C_11  and  N_12
REMARK    5  A    between atoms: N_19  and  C_20
REMARK    6  A    between atoms: C_20  and  C_21
REMARK    7  A    between atoms: C_29  and  C_30
REMARK    8  A    between atoms: N_34  and  C_35
REMARK                            x       y       z     vdW  Elec       q    Type
REMARK                         _______ _______ _______ _____ _____    ______ ____
ROOT
ATOM      1  N   UNL     1       2.572   7.275  18.430  0.00  0.00    +0.000 N 
ATOM      2  C   UNL     1       2.395   6.399  19.560  0.00  0.00    +0.000 A 
ATOM      3  N   UNL     1       2.666   5.050  19.645  0.00  0.00    +0.000 N 
ATOM      4  C   UNL     1       2.713   4.147  18.510  0.00  0.00    +0.000 C 
ATOM      5  C   UNL     1       1.554   3.162  18.513  0.00  0.00    +0.000 C 
ATOM      6  C   UNL     1       1.506   2.358  19.795  0.00  0.00    +0.000 C 
ATOM      7  C   UNL     1       1.417   3.305  20.998  0.00  0.00    +0.000 C 
ATOM      8  C   UNL     1       2.575   4.353  20.967  0.00  0.00    +0.000 C 
ATOM      9  N   UNL     1       1.921   7.081  20.589  0.00  0.00    +0.000 NA
ATOM     10  C   UNL     1       1.651   8.340  20.173  0.00  0.00    +0.000 A 
ATOM     11  C   UNL     1       2.012   8.540  18.857  0.00  0.00    +0.000 A 
ATOM     12  C   UNL     1       1.776   9.868  18.262  0.00  0.00    +0.000 A 
ATOM     13  O   UNL     1       2.167  10.157  17.158  0.00  0.00    +0.000 OA
ATOM     14  N   UNL     1       1.076  10.798  19.118  0.00  0.00    +0.000 N 
ATOM     15  C   UNL     1       0.720  10.552  20.450  0.00  0.00    +0.000 A 
ATOM     16  O   UNL     1       0.151  11.415  21.131  0.00  0.00    +0.000 OA
ATOM     17  N   UNL     1       1.054   9.301  20.970  0.00  0.00    +0.000 N 
ATOM     18  C   UNL     1       0.704   9.027  22.365  0.00  0.00    +0.000 C 
ENDROOT
BRANCH   7  19
ATOM     19  N   UNL     1       1.386   2.483  22.221  0.00  0.00    +0.000 NA
ATOM     20  H   UNL     1       2.095   1.752  22.168  0.00  0.00    +0.000 HD
ATOM     21  H   UNL     1       0.492   1.992  22.268  0.00  0.00    +0.000 HD
ENDBRANCH   7  19
BRANCH   1  22
ATOM     22  C   UNL     1       3.329   6.899  17.096  0.00  0.00    +0.000 C 
BRANCH  22  25
ATOM     23  C   UNL     1       7.543   7.022  17.871  0.00  0.00    +0.000 C 
ATOM     24  C   UNL     1       6.106   6.979  17.603  0.00  0.00    +0.000 C 
ATOM     25  C   UNL     1       4.823   6.942  17.369  0.00  0.00    +0.000 C 
ENDBRANCH  22  25
ENDBRANCH   1  22
BRANCH  14  26
ATOM     26  C   UNL     1       0.906  12.236  18.739  0.00  0.00    +0.000 C 
BRANCH  26  27
ATOM     27  C   UNL     1       1.969  13.382  18.761  0.00  0.00    +0.000 C 
ATOM     28  N   UNL     1       3.171  13.125  18.292  0.00  0.00    +0.000 NA
ATOM     29  C   UNL     1       3.922  14.380  18.622  0.00  0.00    +0.000 C 
ATOM     30  C   UNL     1       3.213  15.720  17.477  0.00  0.00    +0.000 C 
ATOM     31  C   UNL     1       2.408  16.808  17.970  0.00  0.00    +0.000 C 
ATOM     32  C   UNL     1       2.085  17.129  19.640  0.00  0.00    +0.000 C 
ATOM     33  C   UNL     1       2.513  16.193  20.746  0.00  0.00    +0.000 C 
ATOM     34  C   UNL     1       3.531  14.533  20.520  0.00  0.00    +0.000 C 
ATOM     35  C   UNL     1       3.058  15.258  19.548  0.00  0.00    +0.000 C 
ATOM     36  C   UNL     1       4.470  16.572  19.631  0.00  0.00    +0.000 C 
ATOM     37  N   UNL     1       1.798  14.721  19.140  0.00  0.00    +0.000 NA
ENDBRANCH  26  27
ENDBRANCH  14  26
TORSDOF 5
ENDMDL
MODEL 3
REMARK VINA RESULT:      -8.2      0.559      1.128
REMARK  Name = 
REMARK  8 active torsions:
REMARK  status: ('A' for Active; 'I' for Inactive)
REMARK    1  A    between atoms: C_1  and  C_2
REMARK    2  A    between atoms: C_3  and  C_4
REMARK    3  A    between atoms: C_4  and  N_5
REMARK    4  A    between atoms: C_11  and  N_12
REMARK    5  A    between atoms: N_19  and  C_20
REMARK    6  A    between atoms: C_20  and  C_21
REMARK    7  A    between atoms: C_29  and  C_30
REMARK    8  A    between atoms: N_34  and  C_35
REMARK                            x       y       z     vdW  Elec       q    Type
REMARK                         _______ _______ _______ _____ _____    ______ ____
ROOT
ATOM      1  N   UNL     1       2.513   7.442  18.479  0.00  0.00    +0.000 N 
ATOM      2  C   UNL     1       2.351   6.534  19.585  0.00  0.00    +0.000 A 
ATOM      3  N   UNL     1       2.650   5.189  19.636  0.00  0.00    +0.000 N 
ATOM      4  C   UNL     1       2.721   4.317  18.479  0.00  0.00    +0.000 C 
ATOM      5  C   UNL     1       1.583   3.308  18.451  0.00  0.00    +0.000 C 
ATOM      6  C   UNL     1       1.548   2.470  19.711  0.00  0.00    +0.000 C 
ATOM      7  C   UNL     1       1.434   3.384  20.938  0.00  0.00    +0.000 C 
ATOM      8  C   UNL     1       2.570   4.457  20.939  0.00  0.00    +0.000 C 
ATOM      9  N   UNL     1       1.859   7.179  20.629  0.00  0.00    +0.000 NA
ATOM     10  C   UNL     1       1.563   8.442  20.246  0.00  0.00    +0.000 A 
ATOM     11  C   UNL     1       1.924   8.684  18.936  0.00  0.00    +0.000 A 
ATOM     12  C   UNL     1       1.662  10.021  18.375  0.00  0.00    +0.000 A 
ATOM     13  O   UNL     1       2.051  10.348  17.280  0.00  0.00    +0.000 OA
ATOM     14  N   UNL     1       0.939  10.914  19.252  0.00  0.00    +0.000 N 
ATOM     15  C   UNL     1       0.584  10.625  20.576  0.00  0.00    +0.000 A 
ATOM     16  O   UNL     1      -0.006  11.458  21.276  0.00  0.00    +0.000 OA
ATOM     17  N   UNL     1       0.942   9.369  21.065  0.00  0.00    +0.000 N 
ATOM     18  C   UNL     1       0.594   9.051  22.450  0.00  0.00    +0.000 C 
ENDROOT
BRANCH   7  19
ATOM     19  N   UNL     1       1.417   2.529  22.139  0.00  0.00    +0.000 NA
ATOM     20  H   UNL     1       0.531   2.028  22.198  0.00  0.00    +0.000 HD
ATOM     21  H   UNL     1       1.449   3.123  22.969  0.00  0.00    +0.000 HD
ENDBRANCH   7  19
BRANCH   1  22
ATOM     22  C   UNL     1       3.283   7.117  17.139  0.00  0.00    +0.000 C 
BRANCH  22  25
ATOM     23  C   UNL     1       7.439   6.620  18.062  0.00  0.00    +0.000 C 
ATOM     24  C   UNL     1       6.021   6.791  17.750  0.00  0.00    +0.000 C 
ATOM     25  C   UNL     1       4.756   6.942  17.468  0.00  0.00    +0.000 C 
ENDBRANCH  22  25
ENDBRANCH   1  22
BRANCH  14  26
ATOM     26  C   UNL     1       0.739  12.357  18.909  0.00  0.00    +0.000 C 
BRANCH  26  27
ATOM     27  C   UNL     1       1.596  13.590  19.345  0.00  0.00    +0.000 C 
ATOM     28  N   UNL     1       1.087  14.420  20.230  0.00  0.00    +0.000 NA
ATOM     29  C   UNL     1       2.107  15.519  20.266  0.00  0.00    +0.000 C 
ATOM     30  C   UNL     1       3.640  14.771  21.103  0.00  0.00    +0.000 C 
ATOM     31  C   UNL     1       4.859  14.505  20.381  0.00  0.00    +0.000 C 
ATOM     32  C   UNL     1       5.152  14.935  18.731  0.00  0.00    +0.000 C 
ATOM     33  C   UNL     1       4.079  15.515  17.839  0.00  0.00    +0.000 C 
ATOM     34  C   UNL     1       2.240  15.935  18.373  0.00  0.00    +0.000 C 
ATOM     35  C   UNL     1       3.111  15.315  19.115  0.00  0.00    +0.000 C 
ATOM     36  C   UNL     1       4.045  16.924  19.636  0.00  0.00    +0.000 C 
ATOM     37  N   UNL     1       2.913  13.906  18.983  0.00  0.00    +0.000 NA
ENDBRANCH  26  27
ENDBRANCH  14  26
TORSDOF 5
ENDMDL
MODEL 4
REMARK VINA RESULT:      -7.7      3.291      9.270
REMARK  Name = 
REMARK  8 active torsions:
REMARK  status: ('A' for Active; 'I' for Inactive)
REMARK    1  A    between atoms: C_1  and  C_2
REMARK    2  A    between atoms: C_3  and  C_4
REMARK    3  A    between atoms: C_4  and  N_5
REMARK    4  A    between atoms: C_11  and  N_12
REMARK    5  A    between atoms: N_19  and  C_20
REMARK    6  A    between atoms: C_20  and  C_21
REMARK    7  A    between atoms: C_29  and  C_30
REMARK    8  A    between atoms: N_34  and  C_35
REMARK                            x       y       z     vdW  Elec       q    Type
REMARK                         _______ _______ _______ _____ _____    ______ ____
ROOT
ATOM      1  N   UNL     1      -0.701  11.575  19.239  0.00  0.00    +0.000 N 
ATOM      2  C   UNL     1      -1.370  11.801  20.495  0.00  0.00    +0.000 A 
ATOM      3  N   UNL     1      -2.188  12.854  20.849  0.00  0.00    +0.000 N 
ATOM      4  C   UNL     1      -2.153  14.167  20.232  0.00  0.00    +0.000 C 
ATOM      5  C   UNL     1      -1.616  15.230  21.178  0.00  0.00    +0.000 C 
ATOM      6  C   UNL     1      -2.421  15.297  22.459  0.00  0.00    +0.000 C 
ATOM      7  C   UNL     1      -2.431  13.921  23.137  0.00  0.00    +0.000 C 
ATOM      8  C   UNL     1      -2.929  12.818  22.148  0.00  0.00    +0.000 C 
ATOM      9  N   UNL     1      -1.106  10.812  21.331  0.00  0.00    +0.000 NA
ATOM     10  C   UNL     1      -0.196   9.998  20.749  0.00  0.00    +0.000 A 
ATOM     11  C   UNL     1       0.115  10.400  19.467  0.00  0.00    +0.000 A 
ATOM     12  C   UNL     1       1.098   9.609  18.705  0.00  0.00    +0.000 A 
ATOM     13  O   UNL     1       1.337   9.825  17.543  0.00  0.00    +0.000 OA
ATOM     14  N   UNL     1       1.718   8.537  19.450  0.00  0.00    +0.000 N 
ATOM     15  C   UNL     1       1.377   8.165  20.757  0.00  0.00    +0.000 A 
ATOM     16  O   UNL     1       1.933   7.210  21.316  0.00  0.00    +0.000 OA
ATOM     17  N   UNL     1       0.377   8.908  21.383  0.00  0.00    +0.000 N 
ATOM     18  C   UNL     1      -0.005   8.528  22.743  0.00  0.00    +0.000 C 
ENDROOT
BRANCH   7  19
ATOM     19  N   UNL     1      -3.234  14.028  24.368  0.00  0.00    +0.000 NA
ATOM     20  H   UNL     1      -3.458  13.098  24.721  0.00  0.00    +0.000 HD
ATOM     21  H   UNL     1      -4.132  14.458  24.142  0.00  0.00    +0.000 HD
ENDBRANCH   7  19
BRANCH   1  22
ATOM     22  C   UNL     1      -0.948  12.398  17.914  0.00  0.00    +0.000 C 
BRANCH  22  25
ATOM     23  C   UNL     1      -3.413  10.045  15.315  0.00  0.00    +0.000 C 
ATOM     24  C   UNL     1      -2.575  10.850  16.202  0.00  0.00    +0.000 C 
ATOM     25  C   UNL     1      -1.823  11.565  16.993  0.00  0.00    +0.000 C 
ENDBRANCH  22  25
ENDBRANCH   1  22
BRANCH  14  26
ATOM     26  C   UNL     1       2.607   7.533  18.784  0.00  0.00    +0.000 C 
BRANCH  26  27
ATOM     27  C   UNL     1       2.385   5.995  18.615  0.00  0.00    +0.000 C 
ATOM     28  N   UNL     1       1.499   5.588  17.731  0.00  0.00    +0.000 NA
ATOM     29  C   UNL     1       1.460   4.108  17.970  0.00  0.00    +0.000 C 
ATOM     30  C   UNL     1       3.129   3.443  17.351  0.00  0.00    +0.000 C 
ATOM     31  C   UNL     1       4.137   2.937  18.247  0.00  0.00    +0.000 C 
ATOM     32  C   UNL     1       3.941   2.738  19.955  0.00  0.00    +0.000 C 
ATOM     33  C   UNL     1       2.714   3.219  20.694  0.00  0.00    +0.000 C 
ATOM     34  C   UNL     1       1.144   4.071  19.887  0.00  0.00    +0.000 C 
ATOM     35  C   UNL     1       2.245   3.783  19.256  0.00  0.00    +0.000 C 
ATOM     36  C   UNL     1       1.820   1.910  19.049  0.00  0.00    +0.000 C 
ATOM     37  N   UNL     1       3.080   4.942  19.227  0.00  0.00    +0.000 NA
ENDBRANCH  26  27
ENDBRANCH  14  26
TORSDOF 5
ENDMDL
MODEL 5
REMARK VINA RESULT:      -7.6      0.718      1.815
REMARK  Name = 
REMARK  8 active torsions:
REMARK  status: ('A' for Active; 'I' for Inactive)
REMARK    1  A    between atoms: C_1  and  C_2
REMARK    2  A    between atoms: C_3  and  C_4
REMARK    3  A    between atoms: C_4  and  N_5
REMARK    4  A    between atoms: C_11  and  N_12
REMARK    5  A    between atoms: N_19  and  C_20
REMARK    6  A    between atoms: C_20  and  C_21
REMARK    7  A    between atoms: C_29  and  C_30
REMARK    8  A    between atoms: N_34  and  C_35
REMARK                            x       y       z     vdW  Elec       q    Type
REMARK                         _______ _______ _______ _____ _____    ______ ____
ROOT
ATOM      1  N   UNL     1       2.377   7.643  18.509  0.00  0.00    +0.000 N 
ATOM      2  C   UNL     1       2.272   6.710  19.602  0.00  0.00    +0.000 A 
ATOM      3  N   UNL     1       2.579   5.365  19.608  0.00  0.00    +0.000 N 
ATOM      4  C   UNL     1       2.597   4.519  18.429  0.00  0.00    +0.000 C 
ATOM      5  C   UNL     1       1.463   3.506  18.434  0.00  0.00    +0.000 C 
ATOM      6  C   UNL     1       1.492   2.640  19.676  0.00  0.00    +0.000 C 
ATOM      7  C   UNL     1       1.434   3.526  20.926  0.00  0.00    +0.000 C 
ATOM      8  C   UNL     1       2.565   4.604  20.896  0.00  0.00    +0.000 C 
ATOM      9  N   UNL     1       1.829   7.329  20.682  0.00  0.00    +0.000 NA
ATOM     10  C   UNL     1       1.510   8.598  20.341  0.00  0.00    +0.000 A 
ATOM     11  C   UNL     1       1.806   8.871  19.022  0.00  0.00    +0.000 A 
ATOM     12  C   UNL     1       1.512  10.219  18.503  0.00  0.00    +0.000 A 
ATOM     13  O   UNL     1       1.846  10.572  17.399  0.00  0.00    +0.000 OA
ATOM     14  N   UNL     1       0.828  11.089  19.434  0.00  0.00    +0.000 N 
ATOM     15  C   UNL     1       0.539  10.769  20.767  0.00  0.00    +0.000 A 
ATOM     16  O   UNL     1      -0.020  11.583  21.513  0.00  0.00    +0.000 OA
ATOM     17  N   UNL     1       0.926   9.504  21.210  0.00  0.00    +0.000 N 
ATOM     18  C   UNL     1       0.646   9.155  22.603  0.00  0.00    +0.000 C 
ENDROOT
BRANCH   7  19
ATOM     19  N   UNL     1       1.478   2.645  22.108  0.00  0.00    +0.000 NA
ATOM     20  H   UNL     1       0.735   2.897  22.758  0.00  0.00    +0.000 HD
ATOM     21  H   UNL     1       2.350   2.811  22.614  0.00  0.00    +0.000 HD
ENDBRANCH   7  19
BRANCH   1  22
ATOM     22  C   UNL     1       3.082   7.351  17.126  0.00  0.00    +0.000 C 
BRANCH  22  25
ATOM     23  C   UNL     1       7.227   6.556  17.874  0.00  0.00    +0.000 C 
ATOM     24  C   UNL     1       5.813   6.825  17.622  0.00  0.00    +0.000 C 
ATOM     25  C   UNL     1       4.551   7.068  17.393  0.00  0.00    +0.000 C 
ENDBRANCH  22  25
ENDBRANCH   1  22
BRANCH  14  26
ATOM     26  C   UNL     1       0.607  12.538  19.134  0.00  0.00    +0.000 C 
BRANCH  26  27
ATOM     27  C   UNL     1       1.540  13.752  19.448  0.00  0.00    +0.000 C 
ATOM     28  N   UNL     1       1.631  14.715  18.555  0.00  0.00    +0.000 NA
ATOM     29  C   UNL     1       2.706  15.588  19.129  0.00  0.00    +0.000 C 
ATOM     30  C   UNL     1       1.942  16.400  20.668  0.00  0.00    +0.000 C 
ATOM     31  C   UNL     1       2.361  16.064  22.004  0.00  0.00    +0.000 C 
ATOM     32  C   UNL     1       3.671  15.005  22.400  0.00  0.00    +0.000 C 
ATOM     33  C   UNL     1       4.420  14.212  21.354  0.00  0.00    +0.000 C 
ATOM     34  C   UNL     1       4.107  14.273  19.420  0.00  0.00    +0.000 C 
ATOM     35  C   UNL     1       3.368  14.861  20.316  0.00  0.00    +0.000 C 
ATOM     36  C   UNL     1       4.575  16.349  20.562  0.00  0.00    +0.000 C 
ATOM     37  N   UNL     1       2.255  14.020  20.624  0.00  0.00    +0.000 NA
ENDBRANCH  26  27
ENDBRANCH  14  26
TORSDOF 5
ENDMDL
MODEL 6
REMARK VINA RESULT:      -7.6      3.312      9.258
REMARK  Name = 
REMARK  8 active torsions:
REMARK  status: ('A' for Active; 'I' for Inactive)
REMARK    1  A    between atoms: C_1  and  C_2
REMARK    2  A    between atoms: C_3  and  C_4
REMARK    3  A    between atoms: C_4  and  N_5
REMARK    4  A    between atoms: C_11  and  N_12
REMARK    5  A    between atoms: N_19  and  C_20
REMARK    6  A    between atoms: C_20  and  C_21
REMARK    7  A    between atoms: C_29  and  C_30
REMARK    8  A    between atoms: N_34  and  C_35
REMARK                            x       y       z     vdW  Elec       q    Type
REMARK                         _______ _______ _______ _____ _____    ______ ____
ROOT
ATOM      1  N   UNL     1      -0.865  11.740  19.423  0.00  0.00    +0.000 N 
ATOM      2  C   UNL     1      -1.456  11.964  20.718  0.00  0.00    +0.000 A 
ATOM      3  N   UNL     1      -2.258  13.011  21.120  0.00  0.00    +0.000 N 
ATOM      4  C   UNL     1      -2.269  14.324  20.502  0.00  0.00    +0.000 C 
ATOM      5  C   UNL     1      -1.682  15.391  21.413  0.00  0.00    +0.000 C 
ATOM      6  C   UNL     1      -2.407  15.454  22.741  0.00  0.00    +0.000 C 
ATOM      7  C   UNL     1      -2.367  14.079  23.418  0.00  0.00    +0.000 C 
ATOM      8  C   UNL     1      -2.917  12.972  22.463  0.00  0.00    +0.000 C 
ATOM      9  N   UNL     1      -1.136  10.977  21.536  0.00  0.00    +0.000 NA
ATOM     10  C   UNL     1      -0.258  10.168  20.900  0.00  0.00    +0.000 A 
ATOM     11  C   UNL     1      -0.028  10.571  19.601  0.00  0.00    +0.000 A 
ATOM     12  C   UNL     1       0.911   9.785  18.781  0.00  0.00    +0.000 A 
ATOM     13  O   UNL     1       1.077  10.003  17.606  0.00  0.00    +0.000 OA
ATOM     14  N   UNL     1       1.583   8.718  19.486  0.00  0.00    +0.000 N 
ATOM     15  C   UNL     1       1.325   8.345  20.812  0.00  0.00    +0.000 A 
ATOM     16  O   UNL     1       1.920   7.395  21.336  0.00  0.00    +0.000 OA
ATOM     17  N   UNL     1       0.360   9.083  21.498  0.00  0.00    +0.000 N 
ATOM     18  C   UNL     1       0.065   8.702  22.879  0.00  0.00    +0.000 C 
ENDROOT
BRANCH   7  19
ATOM     19  N   UNL     1      -3.093  14.182  24.697  0.00  0.00    +0.000 NA
ATOM     20  H   UNL     1      -2.608  14.824  25.323  0.00  0.00    +0.000 HD
ATOM     21  H   UNL     1      -3.070  13.275  25.166  0.00  0.00    +0.000 HD
ENDBRANCH   7  19
BRANCH   1  22
ATOM     22  C   UNL     1      -1.197  12.561  18.116  0.00  0.00    +0.000 C 
BRANCH  22  25
ATOM     23  C   UNL     1      -3.247   9.968  15.387  0.00  0.00    +0.000 C 
ATOM     24  C   UNL     1      -2.549  10.851  16.320  0.00  0.00    +0.000 C 
ATOM     25  C   UNL     1      -1.925  11.641  17.149  0.00  0.00    +0.000 C 
ENDBRANCH  22  25
ENDBRANCH   1  22
BRANCH  14  26
ATOM     26  C   UNL     1       2.436   7.720  18.768  0.00  0.00    +0.000 C 
BRANCH  26  27
ATOM     27  C   UNL     1       2.670   6.213  19.111  0.00  0.00    +0.000 C 
ATOM     28  N   UNL     1       3.860   5.849  19.540  0.00  0.00    +0.000 NA
ATOM     29  C   UNL     1       3.739   4.356  19.604  0.00  0.00    +0.000 C 
ATOM     30  C   UNL     1       2.554   3.998  21.046  0.00  0.00    +0.000 C 
ATOM     31  C   UNL     1       1.226   3.478  20.840  0.00  0.00    +0.000 C 
ATOM     32  C   UNL     1       0.574   2.989  19.314  0.00  0.00    +0.000 C 
ATOM     33  C   UNL     1       1.308   3.200  18.010  0.00  0.00    +0.000 C 
ATOM     34  C   UNL     1       3.095   3.979  17.809  0.00  0.00    +0.000 C 
ATOM     35  C   UNL     1       2.425   3.926  18.923  0.00  0.00    +0.000 C 
ATOM     36  C   UNL     1       2.845   2.072  19.268  0.00  0.00    +0.000 C 
ATOM     37  N   UNL     1       1.738   5.165  19.111  0.00  0.00    +0.000 NA
ENDBRANCH  26  27
ENDBRANCH  14  26
TORSDOF 5
ENDMDL
MODEL 7
REMARK VINA RESULT:      -7.5      2.303      9.155
REMARK  Name = 
REMARK  8 active torsions:
REMARK  status: ('A' for Active; 'I' for Inactive)
REMARK    1  A    between atoms: C_1  and  C_2
REMARK    2  A    between atoms: C_3  and  C_4
REMARK    3  A    between atoms: C_4  and  N_5
REMARK    4  A    between atoms: C_11  and  N_12
REMARK    5  A    between atoms: N_19  and  C_20
REMARK    6  A    between atoms: C_20  and  C_21
REMARK    7  A    between atoms: C_29  and  C_30
REMARK    8  A    between atoms: N_34  and  C_35
REMARK                            x       y       z     vdW  Elec       q    Type
REMARK                         _______ _______ _______ _____ _____    ______ ____
ROOT
ATOM      1  N   UNL     1       0.336  12.233  19.412  0.00  0.00    +0.000 N 
ATOM      2  C   UNL     1      -0.399  12.448  20.632  0.00  0.00    +0.000 A 
ATOM      3  N   UNL     1      -0.935  13.626  21.109  0.00  0.00    +0.000 N 
ATOM      4  C   UNL     1      -0.463  14.950  20.750  0.00  0.00    +0.000 C 
ATOM      5  C   UNL     1       0.220  15.650  21.914  0.00  0.00    +0.000 C 
ATOM      6  C   UNL     1      -0.691  15.751  23.119  0.00  0.00    +0.000 C 
ATOM      7  C   UNL     1      -1.164  14.351  23.529  0.00  0.00    +0.000 C 
ATOM      8  C   UNL     1      -1.816  13.608  22.319  0.00  0.00    +0.000 C 
ATOM      9  N   UNL     1      -0.525  11.308  21.289  0.00  0.00    +0.000 NA
ATOM     10  C   UNL     1       0.193  10.364  20.640  0.00  0.00    +0.000 A 
ATOM     11  C   UNL     1       0.763  10.851  19.482  0.00  0.00    +0.000 A 
ATOM     12  C   UNL     1       1.579   9.934  18.666  0.00  0.00    +0.000 A 
ATOM     13  O   UNL     1       2.014  10.248  17.585  0.00  0.00    +0.000 OA
ATOM     14  N   UNL     1       1.782   8.626  19.246  0.00  0.00    +0.000 N 
ATOM     15  C   UNL     1       1.189   8.173  20.431  0.00  0.00    +0.000 A 
ATOM     16  O   UNL     1       1.385   7.023  20.846  0.00  0.00    +0.000 OA
ATOM     17  N   UNL     1       0.360   9.070  21.104  0.00  0.00    +0.000 N 
ATOM     18  C   UNL     1      -0.281   8.613  22.337  0.00  0.00    +0.000 C 
ENDROOT
BRANCH   7  19
ATOM     19  N   UNL     1      -2.057  14.496  24.693  0.00  0.00    +0.000 NA
ATOM     20  H   UNL     1      -2.923  14.955  24.414  0.00  0.00    +0.000 HD
ATOM     21  H   UNL     1      -1.621  15.126  25.369  0.00  0.00    +0.000 HD
ENDBRANCH   7  19
BRANCH   1  22
ATOM     22  C   UNL     1       0.495  13.286  18.246  0.00  0.00    +0.000 C 
BRANCH  22  25
ATOM     23  C   UNL     1       4.559  14.649  18.213  0.00  0.00    +0.000 C 
ATOM     24  C   UNL     1       3.173  14.183  18.228  0.00  0.00    +0.000 C 
ATOM     25  C   UNL     1       1.936  13.769  18.236  0.00  0.00    +0.000 C 
ENDBRANCH  22  25
ENDBRANCH   1  22
BRANCH  14  26
ATOM     26  C   UNL     1       2.438   7.522  18.478  0.00  0.00    +0.000 C 
BRANCH  26  27
ATOM     27  C   UNL     1       2.730   6.056  18.936  0.00  0.00    +0.000 C 
ATOM     28  N   UNL     1       3.839   5.822  19.604  0.00  0.00    +0.000 NA
ATOM     29  C   UNL     1       3.838   4.327  19.720  0.00  0.00    +0.000 C 
ATOM     30  C   UNL     1       2.428   3.906  20.923  0.00  0.00    +0.000 C 
ATOM     31  C   UNL     1       1.216   3.255  20.492  0.00  0.00    +0.000 C 
ATOM     32  C   UNL     1       0.922   2.656  18.895  0.00  0.00    +0.000 C 
ATOM     33  C   UNL     1       1.878   2.893  17.749  0.00  0.00    +0.000 C 
ATOM     34  C   UNL     1       3.595   3.831  17.857  0.00  0.00    +0.000 C 
ATOM     35  C   UNL     1       2.726   3.751  18.821  0.00  0.00    +0.000 C 
ATOM     36  C   UNL     1       3.229   1.959  19.336  0.00  0.00    +0.000 C 
ATOM     37  N   UNL     1       1.911   4.925  18.810  0.00  0.00    +0.000 NA
ENDBRANCH  26  27
ENDBRANCH  14  26
TORSDOF 5
ENDMDL
MODEL 8
REMARK VINA RESULT:      -7.5      2.526      9.144
REMARK  Name = 
REMARK  8 active torsions:
REMARK  status: ('A' for Active; 'I' for Inactive)
REMARK    1  A    between atoms: C_1  and  C_2
REMARK    2  A    between atoms: C_3  and  C_4
REMARK    3  A    between atoms: C_4  and  N_5
REMARK    4  A    between atoms: C_11  and  N_12
REMARK    5  A    between atoms: N_19  and  C_20
REMARK    6  A    between atoms: C_20  and  C_21
REMARK    7  A    between atoms: C_29  and  C_30
REMARK    8  A    between atoms: N_34  and  C_35
REMARK                            x       y       z     vdW  Elec       q    Type
REMARK                         _______ _______ _______ _____ _____    ______ ____
ROOT
ATOM      1  N   UNL     1      -0.050  11.881  19.369  0.00  0.00    +0.000 N 
ATOM      2  C   UNL     1      -0.877  12.051  20.536  0.00  0.00    +0.000 A 
ATOM      3  N   UNL     1      -1.592  13.165  20.922  0.00  0.00    +0.000 N 
ATOM      4  C   UNL     1      -1.281  14.523  20.517  0.00  0.00    +0.000 C 
ATOM      5  C   UNL     1      -0.767  15.363  21.676  0.00  0.00    +0.000 C 
ATOM      6  C   UNL     1      -1.752  15.393  22.825  0.00  0.00    +0.000 C 
ATOM      7  C   UNL     1      -2.058  13.962  23.284  0.00  0.00    +0.000 C 
ATOM      8  C   UNL     1      -2.533  13.083  22.083  0.00  0.00    +0.000 C 
ATOM      9  N   UNL     1      -0.889  10.935  21.246  0.00  0.00    +0.000 NA
ATOM     10  C   UNL     1      -0.015  10.068  20.686  0.00  0.00    +0.000 A 
ATOM     11  C   UNL     1       0.552  10.575  19.535  0.00  0.00    +0.000 A 
ATOM     12  C   UNL     1       1.530   9.741  18.812  0.00  0.00    +0.000 A 
ATOM     13  O   UNL     1       1.982  10.062  17.740  0.00  0.00    +0.000 OA
ATOM     14  N   UNL     1       1.871   8.501  19.471  0.00  0.00    +0.000 N 
ATOM     15  C   UNL     1       1.275   8.026  20.646  0.00  0.00    +0.000 A 
ATOM     16  O   UNL     1       1.598   6.934  21.132  0.00  0.00    +0.000 OA
ATOM     17  N   UNL     1       0.296   8.832  21.226  0.00  0.00    +0.000 N 
ATOM     18  C   UNL     1      -0.350   8.349  22.447  0.00  0.00    +0.000 C 
ENDROOT
BRANCH   7  19
ATOM     19  N   UNL     1      -3.029  14.038  24.391  0.00  0.00    +0.000 NA
ATOM     20  H   UNL     1      -3.255  15.012  24.590  0.00  0.00    +0.000 HD
ATOM     21  H   UNL     1      -2.590  13.681  25.242  0.00  0.00    +0.000 HD
ENDBRANCH   7  19
BRANCH   1  22
ATOM     22  C   UNL     1       0.035  12.892  18.159  0.00  0.00    +0.000 C 
BRANCH  22  25
ATOM     23  C   UNL     1       3.953  14.632  18.136  0.00  0.00    +0.000 C 
ATOM     24  C   UNL     1       2.618  14.036  18.146  0.00  0.00    +0.000 C 
ATOM     25  C   UNL     1       1.425  13.508  18.152  0.00  0.00    +0.000 C 
ENDBRANCH  22  25
ENDBRANCH   1  22
BRANCH  14  26
ATOM     26  C   UNL     1       2.712   7.463  18.798  0.00  0.00    +0.000 C 
BRANCH  26  27
ATOM     27  C   UNL     1       2.428   5.934  18.634  0.00  0.00    +0.000 C 
ATOM     28  N   UNL     1       1.522   5.560  17.756  0.00  0.00    +0.000 NA
ATOM     29  C   UNL     1       1.426   4.084  17.999  0.00  0.00    +0.000 C 
ATOM     30  C   UNL     1       3.064   3.351  17.374  0.00  0.00    +0.000 C 
ATOM     31  C   UNL     1       4.056   2.808  18.267  0.00  0.00    +0.000 C 
ATOM     32  C   UNL     1       3.860   2.621  19.976  0.00  0.00    +0.000 C 
ATOM     33  C   UNL     1       2.657   3.153  20.719  0.00  0.00    +0.000 C 
ATOM     34  C   UNL     1       1.118   4.064  19.918  0.00  0.00    +0.000 C 
ATOM     35  C   UNL     1       2.203   3.731  19.282  0.00  0.00    +0.000 C 
ATOM     36  C   UNL     1       1.704   1.876  19.083  0.00  0.00    +0.000 C 
ATOM     37  N   UNL     1       3.084   4.856  19.246  0.00  0.00    +0.000 NA
ENDBRANCH  26  27
ENDBRANCH  14  26
TORSDOF 5
ENDMDL
MODEL 9
REMARK VINA RESULT:      -7.4      4.650      8.239
REMARK  Name = 
REMARK  8 active torsions:
REMARK  status: ('A' for Active; 'I' for Inactive)
REMARK    1  A    between atoms: C_1  and  C_2
REMARK    2  A    between atoms: C_3  and  C_4
REMARK    3  A    between atoms: C_4  and  N_5
REMARK    4  A    between atoms: C_11  and  N_12
REMARK    5  A    between atoms: N_19  and  C_20
REMARK    6  A    between atoms: C_20  and  C_21
REMARK    7  A    between atoms: C_29  and  C_30
REMARK    8  A    between atoms: N_34  and  C_35
REMARK                            x       y       z     vdW  Elec       q    Type
REMARK                         _______ _______ _______ _____ _____    ______ ____
ROOT
ATOM      1  N   UNL     1       2.684  13.997  19.418  0.00  0.00    +0.000 N 
ATOM      2  C   UNL     1       1.948  13.923  20.654  0.00  0.00    +0.000 A 
ATOM      3  N   UNL     1       0.617  13.611  20.837  0.00  0.00    +0.000 N 
ATOM      4  C   UNL     1      -0.413  13.775  19.828  0.00  0.00    +0.000 C 
ATOM      5  C   UNL     1      -1.388  14.888  20.181  0.00  0.00    +0.000 C 
ATOM      6  C   UNL     1      -2.036  14.659  21.530  0.00  0.00    +0.000 C 
ATOM      7  C   UNL     1      -0.954  14.523  22.608  0.00  0.00    +0.000 C 
ATOM      8  C   UNL     1       0.081  13.417  22.221  0.00  0.00    +0.000 C 
ATOM      9  N   UNL     1       2.747  14.193  21.671  0.00  0.00    +0.000 NA
ATOM     10  C   UNL     1       3.949  14.569  21.177  0.00  0.00    +0.000 A 
ATOM     11  C   UNL     1       3.992  14.487  19.801  0.00  0.00    +0.000 A 
ATOM     12  C   UNL     1       5.241  14.867  19.117  0.00  0.00    +0.000 A 
ATOM     13  O   UNL     1       5.398  14.714  17.931  0.00  0.00    +0.000 OA
ATOM     14  N   UNL     1       6.268  15.399  19.985  0.00  0.00    +0.000 N 
ATOM     15  C   UNL     1       6.180  15.472  21.381  0.00  0.00    +0.000 A 
ATOM     16  O   UNL     1       7.118  15.910  22.059  0.00  0.00    +0.000 OA
ATOM     17  N   UNL     1       4.998  15.013  21.963  0.00  0.00    +0.000 N 
ATOM     18  C   UNL     1       4.891  15.067  23.421  0.00  0.00    +0.000 C 
ENDROOT
BRANCH   7  19
ATOM     19  N   UNL     1      -1.627  14.287  23.898  0.00  0.00    +0.000 NA
ATOM     20  H   UNL     1      -1.825  13.294  24.012  0.00  0.00    +0.000 HD
ATOM     21  H   UNL     1      -2.538  14.748  23.886  0.00  0.00    +0.000 HD
ENDBRANCH   7  19
BRANCH   1  22
ATOM     22  C   UNL     1       2.152  13.518  18.010  0.00  0.00    +0.000 C 
BRANCH  22  25
ATOM     23  C   UNL     1       2.052   9.233  18.001  0.00  0.00    +0.000 C 
ATOM     24  C   UNL     1       2.084  10.695  18.007  0.00  0.00    +0.000 C 
ATOM     25  C   UNL     1       2.116  11.999  18.008  0.00  0.00    +0.000 C 
ENDBRANCH  22  25
ENDBRANCH   1  22
BRANCH  14  26
ATOM     26  C   UNL     1       7.651  15.673  19.485  0.00  0.00    +0.000 C 
BRANCH  26  27
ATOM     27  C   UNL     1       8.834  14.670  19.291  0.00  0.00    +0.000 C 
ATOM     28  N   UNL     1      10.025  15.158  19.016  0.00  0.00    +0.000 NA
ATOM     29  C   UNL     1      10.829  13.920  18.753  0.00  0.00    +0.000 C 
ATOM     30  C   UNL     1      11.015  13.060  20.438  0.00  0.00    +0.000 C 
ATOM     31  C   UNL     1      10.353  11.819  20.746  0.00  0.00    +0.000 C 
ATOM     32  C   UNL     1       9.426  10.880  19.626  0.00  0.00    +0.000 C 
ATOM     33  C   UNL     1       9.105  11.363  18.230  0.00  0.00    +0.000 C 
ATOM     34  C   UNL     1       9.706  13.047  17.428  0.00  0.00    +0.000 C 
ATOM     35  C   UNL     1       9.880  12.708  18.673  0.00  0.00    +0.000 C 
ATOM     36  C   UNL     1      11.381  11.548  18.309  0.00  0.00    +0.000 C 
ATOM     37  N   UNL     1       8.832  13.278  19.460  0.00  0.00    +0.000 NA
ENDBRANCH  26  27
ENDBRANCH  14  26
TORSDOF 5
ENDMDL
